12
Coordinates from ORCA-job run
  C   -0.10233035514729     -0.08092381431213      0.34094943712981
  C   1.25106437815230     -0.09418774570461      0.22633135539600
  H   1.87646284850355     -0.38541364339392      1.06552611893815
  N   -0.73571692475384     -0.35171726648081      1.53663073040035
  H   -1.67301601508468     -0.71337402337573      1.46178394144797
  H   -0.18279437165012     -0.82132339299415      2.23686808097564
  C   -1.02020006227896      0.31815105723191     -0.77453046127815
  H   -1.62792505313266      1.17284995576165     -0.46629298092865
  H   -0.46671325130366      0.58483326206010     -1.67330677464391
  H   -1.69952907064428     -0.50468106560880     -1.01935663456425
  C   1.91265613848309      0.28464006689639     -0.97181694427802
  N   2.46704173885654      0.59214660992011     -1.96378586859494
