12
Coordinates from ORCA-job run
  C   -0.14214979689578      0.01033747642107     -0.00642727485112
  C   1.09749306263169      0.23098590434087     -0.52134274616960
  H   1.23188386118507      0.40957627687434     -1.57993904804568
  N   -0.38556168319572     -0.11455235790198      1.33962874244190
  H   -1.20587722917343     -0.63542335652671      1.60118152035249
  H   0.41516417066077     -0.27645111241145      1.93292841601121
  C   -1.36069861102378     -0.01426227044357     -0.87871181458983
  H   -1.09971645024846      0.14114268536986     -1.92466269086794
  H   -1.87457480546975     -0.97710404366005     -0.79349956806324
  H   -2.06111697031646      0.76580476515572     -0.56932834911973
  C   2.23867926662455      0.23757130984773      0.32473472741149
  N   3.14547518522130      0.22237472293417      1.07643808549005
