12
Coordinates from ORCA-job run
  C   -0.13548627744010     -0.04212882202122     -0.01420961868579
  C   1.09202211818403      0.23155255043570     -0.53193783594556
  H   1.21178609539241      0.44585063937340     -1.58560575078428
  N   -0.33264417355995     -0.42719944626692      1.28985581409138
  H   0.43367584692985     -0.27317315232531      1.92897606949228
  H   -1.24077531038119     -0.23628580782816      1.68023836637887
  C   -1.36619994769105     -0.03841750767090     -0.86952938885367
  H   -1.83525725454186     -1.02576385806700     -0.85949895084817
  H   -1.12980087809273      0.22863790514757     -1.89867448179546
  H   -2.09688111513054      0.68165271862581     -0.48744164782400
  C   2.24225738461136      0.23125738657970      0.30190766770059
  N   3.15530351171978      0.22401739401734      1.04591975707380
