12
Coordinates from ORCA-job run
  C   -0.14134873429835      0.01473674787075     -0.01259110545348
  C   1.11902368841987      0.03491117804257     -0.52304690971401
  H   1.28378640465029     -0.04284051081225     -1.58944211283807
  N   -0.41729208069846      0.22024038562399      1.31805163929284
  H   0.36132892647010      0.14762833759989      1.95684618134684
  H   -1.27134403327636     -0.18550748155779      1.66402927606824
  C   -1.34272664661677     -0.13379297779311     -0.89612583813539
  H   -1.92666379415758     -1.01353157910469     -0.60763551048564
  H   -1.05289612105739     -0.24386078527222     -1.94029292348052
  H   -1.98988751210345      0.74185630897010     -0.79963468995986
  C   2.24289488125043      0.17478456187257      0.33456978075702
  N   3.13512502141768      0.28537581456019      1.09527221260202
