12
Coordinates from ORCA-job run
  C   -0.10255984720359     -0.15922336367971      0.31217124539731
  C   1.24928208867658     -0.18039153360231      0.18112809365497
  H   1.87780312410090     -0.57479856562991      0.97464031239582
  N   -0.73768921027252     -0.70517270894144      1.40898747977091
  H   -1.63861446429814     -0.31259737144444      1.63083876430999
  H   -0.16278134387600     -0.86514580545641      2.22172995052607
  C   -1.02542776758308      0.36105710750564     -0.74779901797308
  H   -1.71138988725801     -0.42980887213132     -1.06234937088105
  H   -1.62587346585233      1.18791681660368     -0.35504155536132
  H   -0.47656904638766      0.71844663390257     -1.61740418296414
  C   1.90323624582429      0.28508247843252     -0.99038729109496
  N   2.45158357412956      0.67463518444114     -1.95651442778051
