12
Coordinates from ORCA-job run
  C   -0.10716513525107     -0.04656705194411      0.34591186736302
  C   1.24817769192272     -0.02520782948267      0.25920465062489
  H   1.86345194433907     -0.19902308598430      1.13750836402368
  N   -0.75838373163132     -0.20534562053698      1.55209685790221
  H   -1.68149782735381     -0.60520971604432      1.50024173354973
  H   -0.20661089389911     -0.57532415883760      2.31064875873255
  C   -1.01193154524684      0.19424559361915     -0.82430255811393
  H   -1.65325406745884      1.05696931624252     -0.62627583497767
  H   -1.65955092121744     -0.67331939660759     -0.98687039963953
  H   -0.44703301991504      0.37653171027907     -1.73691366797826
  C   1.92420806720541      0.24285499293860     -0.96048342301805
  N   2.49058943850627      0.45839524635824     -1.96976634846864
