12
Coordinates from ORCA-job run
  C   -0.14043426889746      0.01489616991634     -0.02307085114332
  C   1.15029893091488      0.01797151867631     -0.45151821971686
  H   1.38500881225332     -0.12871737180276     -1.49736766942775
  N   -0.50441730592538      0.30373772932133      1.27022074857866
  H   0.23119823940792      0.28434507772173      1.96179801821363
  H   -1.37598462136390     -0.08886698261031      1.58642658716087
  C   -1.28037431869505     -0.21139131633098     -0.96915223039429
  H   -0.92317662156456     -0.37579736313568     -1.98491356468260
  H   -1.94979788778278      0.65274854837566     -0.96603455769314
  H   -1.86401427888292     -1.08617241498626     -0.66503501057912
  C   2.21520503024660      0.22479769279189      0.46579326996752
  N   3.05548829028935      0.39244871206273      1.27385347971639
