12
Coordinates from ORCA-job run
  C   -0.10107973893856     -0.16225381625215      0.31141517019546
  C   1.25152099947031     -0.15914204134497      0.18586688408975
  H   1.87831341495100     -0.65748376101773      0.92018948267491
  N   -0.73130840889992     -0.71917133510138      1.40492568057580
  H   -0.18075096941439     -1.35495136199951      1.96097571830528
  H   -1.67423925009705     -1.03828212893631      1.25070207658079
  C   -1.02052780952311      0.51082837133284     -0.66218417235231
  H   -1.70867119156879     -0.21977807791934     -1.09927504340922
  H   -0.46918873440770      0.98824844820385     -1.47066546945154
  H   -1.61846794103088      1.26668370953386     -0.14644464704027
  C   1.91071143746457      0.50185835306276     -0.88426195212649
  N   2.46368819199449      1.04344364043809     -1.77124372804217
