12
Coordinates from ORCA-job run
  C   -0.09431751714082     -0.18690587034806      0.29913954921039
  C   1.25396502419653     -0.18913410643784      0.13391009064095
  H   1.90328038799716     -0.65120757264385      0.87213866717301
  N   -0.70095985492468     -0.83468644369209      1.35556220193714
  H   -0.10593679627100     -1.07062683603581      2.13454666861287
  H   -1.59718392508235     -0.46951476011250      1.63499414366196
  C   -1.04436138912262      0.42481469324995     -0.68540826773444
  H   -1.63963997403713      1.20668804615667     -0.20299992880078
  H   -1.73344053192138     -0.33786447708260     -1.05743421273235
  H   -0.51773830242483      0.86682859166999     -1.52949796832525
  C   1.87716820063179      0.38304746946673     -1.00680474361297
  N   2.40016467809934      0.86056126580940     -1.94714620003055
