12
Coordinates from ORCA-job run
  C   -0.09364059400056     -0.15953864527855      0.31471501461709
  C   1.25535554459533     -0.16026563886527      0.15571714346627
  H   1.89929855332856     -0.65143746226751      0.87977313705207
  N   -0.69650935533613     -0.70153808664334      1.43147675120708
  H   -0.13301322620215     -1.33382083465415      1.97864350852589
  H   -1.64316709412467     -1.02196682920499      1.30438591247277
  C   -1.03607480735565      0.50720942875360     -0.64099178007437
  H   -0.50413489208898      0.97463944124863     -1.46795881855495
  H   -1.74021979817445     -0.22328146922242     -1.05238402169790
  H   -1.61580117572528      1.27102531010237     -0.11578862774440
  C   1.88840604342002      0.48546280598203     -0.93918403199770
  N   2.41850080166397      1.01451198004958     -1.84740418727185
