12
Coordinates from ORCA-job run
  C   -0.10685422053291     -0.12285976389106      0.32670442701071
  C   1.24877125415600     -0.09426971804015      0.24440867187651
  H   1.86250969008909     -0.34998133009531      1.10349961442651
  N   -0.75967289618369     -0.55084457094322      1.46404777701153
  H   -0.21190332517985     -0.57990357201936      2.31005511571789
  H   -1.68737838139361     -0.18357836635311      1.60133715769249
  C   -1.01007538396829      0.21147616910229     -0.82164327049556
  H   -1.65659989258891     -0.64136329287892     -1.04403553450024
  H   -1.65231226662050      1.05990125927895     -0.56449183641988
  H   -0.44400096954252      0.46784098401179     -1.71545713917679
  C   1.92571899767491      0.24731749914073     -0.95624655368591
  N   2.49179739409029      0.53626470268737     -1.94717842945725
