12
Coordinates from ORCA-job run
  C   -0.07784986912076     -0.21110516253982      0.28755244577825
  C   1.26347340721803     -0.03373740762325      0.16793602133015
  H   1.94570368716941     -0.44092200134330      0.90889096861716
  N   -0.62556819578775     -0.97618125225539      1.29717791593809
  H   -0.02772751196379     -1.16323816106756      2.08737225303972
  H   -1.56820783735862     -0.73802304082347      1.56097606237037
  C   -1.07077806612078      0.31471566744960     -0.70431415450346
  H   -0.58137021942210      0.85038202471463     -1.51601249637267
  H   -1.77248262551310      0.99705738919567     -0.21398003433941
  H   -1.64788713303464     -0.51346969985450     -1.12368051703497
  C   1.83943658216776      0.66516374486397     -0.92601201662388
  N   2.32325778176634      1.24835789928342     -1.82690644819935
