12
Coordinates from ORCA-job run
  C   -0.11488978737531     -0.00337123491584      0.34648469389817
  C   1.22741202253084      0.19518962990315      0.28438522024828
  H   1.82272681194214      0.25584188272435      1.19106977910814
  N   -0.78989574698353     -0.05306437627016      1.54881152660445
  H   -0.22664819189813     -0.21000177924728      2.37018383460352
  H   -1.64789032929408     -0.58090542675212      1.54718371644823
  C   -0.99242594561678     -0.08921312361637     -0.86543902509863
  H   -1.50685876215328     -1.05528720395814     -0.89208509290721
  H   -0.41889136753863      0.01880283020238     -1.78436439241276
  H   -1.75415609157748      0.69393871649305     -0.82815832156081
  C   1.91295285725017      0.35184277871976     -0.94937006878413
  N   2.48856453071409      0.47622730671722     -1.96870187014724
