12
Coordinates from ORCA-job run
  C   -0.09144561194928     -0.21748178964073      0.27913330222097
  C   1.25680213729484     -0.17829358749006      0.11804726924832
  H   1.91414279709110     -0.69603253881180      0.81087708823681
  N   -0.68620662196566     -0.97399573809937      1.26793505833568
  H   -0.08708547256504     -1.27031037698410      2.02272729499691
  H   -1.58944987377567     -0.65422758769351      1.57895782277135
  C   -1.05151329533459      0.46798233843961     -0.64535852120098
  H   -1.72832255125837     -0.26732655437967     -1.08818566788841
  H   -0.53146536153158      0.99515435350489     -1.44331084325935
  H   -1.65919056146745      1.19234457388883     -0.09321103349663
  C   1.87014919403047      0.51306734152765     -0.96003916608313
  N   2.38458522143124      1.08911956573824     -1.84857260388152
