19

C	0.0	0.0	0.0
C	-0.460773	0.020327	-1.465263
Br	1.942734	0.0	0.0
H	-1.550669	0.121458	-1.371376
C	-0.470927	1.229582	0.743577
H	-0.152924	2.134181	0.229921
H	-1.573059	1.170579	0.743288
H	-0.10765	1.189023	1.770693
N	-0.604637	-1.157877	0.704442
O	-0.312939	-1.294319	1.920274
O	-1.785626	-1.425988	0.19132
C	-0.13777	-1.260587	-2.227491
H	-0.535904	-2.129138	-1.705211
H	-0.5969	-1.210483	-3.222
H	0.943031	-1.374624	-2.358289
N	0.033571	1.233569	-2.130056
H	0.996054	1.083239	-2.415644
H	-0.514142	1.36355	-2.973745
H	-2.922145	0.0	0.0
