19

C	0.0	0.0	0.0
C	-0.243033	0.159705	-1.559603
Br	1.949015	0.0	0.0
H	0.302431	1.085223	-1.794558
C	-0.275031	1.266077	0.825266
H	0.13874	2.130771	0.301051
H	0.216172	1.165324	1.793479
H	-1.343569	1.404006	0.982
N	-0.767278	-1.128593	0.564989
O	-0.773333	-1.194204	1.825168
O	-0.827661	-2.18275	-0.151315
C	-1.666841	0.346773	-2.092398
H	-1.577454	0.52441	-3.178871
H	-2.196139	1.198686	-1.660998
H	-2.25025	-0.561511	-1.936659
N	0.42177	-0.931088	-2.293641
H	0.112886	-1.782214	-1.827044
H	0.037212	-0.941672	-3.23333
H	-1.999139	0.0	0.0
