19

C	0.0	0.0	0.0
C	-0.466986	0.17665	-1.467548
Br	1.940838	0.0	0.0
H	-1.559288	0.213686	-1.369721
C	-0.474908	1.130027	0.887245
H	-0.123969	2.102395	0.540507
H	-1.578819	1.089771	0.854331
H	-0.137237	0.943979	1.906836
N	-0.601855	-1.224992	0.584921
O	-0.301529	-1.490161	1.777291
O	-1.783263	-1.439736	0.049868
C	-0.080695	-0.990492	-2.360993
H	-0.59746	-0.878668	-3.317722
H	-0.37214	-1.934006	-1.901694
H	0.995946	-0.998516	-2.555157
N	-0.045196	1.425415	-2.102934
H	-0.483103	2.205953	-1.628403
H	0.959913	1.532088	-2.00276
H	-2.919539	0.0	0.0
