19

C	0.0	0.0	0.0
C	-0.255318	0.080054	-1.559016
Br	1.94518	0.0	0.0
H	0.453752	0.863102	-1.856959
C	-0.276594	1.338784	0.704932
H	0.092817	2.153319	0.074721
H	0.249393	1.357161	1.658388
H	-1.344292	1.46166	0.882412
N	-0.7098	-1.078205	0.71013
O	-0.709811	-0.969196	1.965584
O	-0.752419	-2.217983	0.152493
C	-1.608259	0.567855	-2.093545
H	-1.955706	1.481648	-1.606483
H	-2.381397	-0.193337	-2.004734
H	-1.454544	0.792936	-3.164178
N	0.173322	-1.155728	-2.220381
H	-0.199887	-1.151911	-3.163824
H	-0.2485	-1.919223	-1.697641
H	-2.046574	0.0	0.0
