19

C	0.0	0.0	0.0
C	-0.480869	0.173413	-1.446967
Br	1.936922	0.0	0.0
H	-1.569771	0.2372	-1.320449
C	-0.462731	1.148903	0.86795
H	-0.083677	1.00869	1.879523
H	-0.143217	2.096267	0.439995
H	-1.564141	1.09543	0.880861
N	-0.605598	-1.222576	0.598872
O	-1.780931	-1.454791	0.05838
O	-0.324698	-1.456571	1.801958
C	-0.145794	-1.004764	-2.351512
H	-0.476043	-1.940223	-1.903577
H	-0.656037	-0.875897	-3.31189
H	0.931277	-1.052777	-2.540439
N	-0.017116	1.459407	-1.981516
H	-0.728583	1.818335	-2.607845
H	0.830645	1.317249	-2.520297
H	-2.929337	0.0	0.0
