17

C	-0.509904	-0.069687	-1.438589
C	0.0	0.0	0.0
Cl	0.077291	1.482468	-2.272572
H	1.093241	0.0	0.0
C	0.144242	-1.221905	-2.167008
H	1.227084	-1.132632	-2.058806
H	-0.190366	-2.149402	-1.703425
H	-0.127829	-1.207527	-3.226817
N	-1.935775	-0.15042	-1.48079
H	-2.339689	0.687599	-1.075709
H	-2.248171	-0.215961	-2.443377
N	-0.333508	-1.241863	0.694201
H	-1.225291	-1.18188	1.167785
H	0.408008	-1.416844	1.366101
C	-0.526226	1.18066	0.688241
N	-1.003709	2.073422	1.288957
H	2.744947	0.0	0.0
