17

C	-0.233706	-0.091302	-1.499204
C	0.0	0.0	0.0
Cl	-2.014998	-0.320014	-1.894096
H	1.105676	0.0	0.0
C	0.229045	1.176706	-2.196379
H	-0.355944	2.046935	-1.896675
H	0.145801	1.052875	-3.279615
H	1.27924	1.327547	-1.924452
N	0.460402	-1.285754	-1.923935
H	0.452654	-1.340714	-2.936561
H	1.428812	-1.177751	-1.597455
N	-0.484461	-1.173425	0.738493
H	-0.487679	-1.932739	0.063994
H	0.256486	-1.400499	1.39807
C	-0.52065	1.231311	0.575692
N	-0.898002	2.234657	1.058049
H	2.727874	0.0	0.0
