17

C	-0.415468	-0.003387	-1.484432
C	0.0	0.0	0.0
Cl	-2.214356	-0.089724	-1.655142
H	1.099823	0.0	0.0
C	0.059922	1.245362	-2.209509
H	-0.398525	2.146225	-1.798522
H	-0.188145	1.179798	-3.273541
H	1.147091	1.318885	-2.093173
N	0.102115	-1.244064	-2.045814
H	1.107594	-1.131223	-2.181483
H	-0.330359	-1.421529	-2.947815
N	-0.449349	-1.140492	0.775657
H	-1.46145	-1.11961	0.853927
H	-0.201007	-1.964975	0.236826
C	-0.42917	1.236278	0.644634
N	-0.776089	2.239882	1.151109
H	2.726776	0.0	0.0
