17

C	-0.434117	-0.073491	-1.470624
C	0.0	0.0	0.0
Cl	0.072833	1.516458	-2.269675
H	1.094005	0.0	0.0
C	0.329427	-1.166503	-2.193411
H	0.126233	-1.127387	-3.267261
H	1.397968	-1.028903	-2.005939
H	0.015245	-2.140182	-1.809429
N	-1.850271	-0.265351	-1.572798
H	-2.333852	0.519062	-1.145102
H	-2.125226	-0.315649	-2.547874
N	-0.365363	-1.203059	0.743185
H	-1.14528	-1.671169	0.298872
H	0.450312	-1.805611	0.752282
C	-0.577327	1.174901	0.651998
N	-1.072951	2.110182	1.165062
H	2.747769	0.0	0.0
