16

C	0.0	0.0	0.0
C	-0.432432	-0.381881	-1.511984
Br	1.934607	0.0	0.0
H	0.505894	-0.619352	-2.02016
C	-0.43631	1.304959	0.474922
N	-0.568696	2.401289	0.87965
N	-0.368213	-1.046143	1.045427
O	-0.1999	-2.218069	0.724339
O	-0.706164	-0.65498	2.151198
N	-0.959462	0.858872	-2.047774
H	-1.214072	0.652582	-3.008419
H	-1.8316	0.966185	-1.517003
N	-1.330017	-1.486773	-1.710753
H	-2.124337	-1.242519	-1.101455
H	-0.903556	-2.340537	-1.375114
F	-2.479534	0.0	0.0
