16

C	0.0	0.0	0.0
C	-0.317798	0.08789	-1.6133
Br	1.931016	0.0	0.0
H	0.60582	0.555404	-1.98525
C	-0.440586	1.230812	0.638105
N	-0.603824	2.322558	1.045093
N	-0.423923	-1.196374	0.825893
O	-0.763689	-0.976627	1.97857
O	-0.276012	-2.299982	0.320078
N	-1.396958	0.914054	-2.036329
H	-2.163572	0.624112	-1.385461
H	-1.166252	1.880227	-1.830989
N	-0.537866	-1.237892	-2.14427
H	-0.605243	-1.127914	-3.148452
H	0.216848	-1.867611	-1.908712
F	-2.417198	0.0	0.0
