16

C	0.0	0.0	0.0
C	-0.523702	-0.205865	-1.471113
Br	1.922433	0.0	0.0
H	-1.311777	-0.943321	-1.350961
C	-0.431498	1.232659	0.64684
N	-0.614917	2.256308	1.194765
N	-0.404227	-1.181332	0.879109
O	-0.489939	-0.973568	2.080493
O	-0.50141	-2.267906	0.329238
N	0.485839	-0.731919	-2.366384
H	0.01017	-1.222312	-3.113643
H	1.00724	0.040834	-2.767075
N	-1.060314	1.080022	-1.906255
H	-1.895741	1.141551	-1.30495
H	-1.38801	0.945123	-2.858225
F	-2.482936	0.0	0.0
