16

C	0.0	0.0	0.0
C	-0.31586	0.063988	-1.614387
Br	1.938573	0.0	0.0
H	0.61018	0.520345	-1.993983
C	-0.44078	1.236826	0.624729
N	-0.605	2.329081	1.030194
N	-0.417906	-1.190184	0.837587
O	-0.248165	-2.297771	0.345798
O	-0.771578	-0.963315	1.984504
N	-1.389046	0.892648	-2.045846
H	-2.15532	0.626054	-1.38554
H	-1.141801	1.859392	-1.868097
N	-0.543388	-1.267824	-2.126921
H	-0.630965	-1.16346	-3.129614
H	0.221178	-1.890738	-1.902928
F	-2.412314	0.0	0.0
