18

C	0.0	0.0	0.0
C	-0.461807	0.250294	-1.428836
F	1.411922	0.0	0.0
H	-1.551887	0.351352	-1.401426
H	-0.043237	1.216122	-1.738322
C	-0.450871	1.127648	0.906361
H	-0.082305	2.085459	0.527463
H	-1.54322	1.143757	0.940179
H	-0.05531	0.978064	1.915399
C	-0.455876	-1.341275	0.536253
H	-0.033435	-2.159123	-0.051774
H	-1.547809	-1.384969	0.502739
H	-0.121434	-1.458734	1.571051
C	-0.048791	-0.829775	-2.42369
H	-0.601112	-1.756777	-2.254627
H	1.021179	-1.04235	-2.347797
H	-0.260733	-0.507794	-3.447402
Br	-4.087826	0.0	0.0
