17

C	-0.438453	0.000253	-1.459882
C	0.0	0.0	0.0
F	-0.115269	1.286484	-1.961989
H	1.090945	0.0	0.0
C	0.319146	-0.927194	-2.326879
N	0.889263	-1.546917	-3.143842
N	-1.829255	-0.259075	-1.61848
H	-2.097014	-0.187117	-2.592469
H	-2.361478	0.405193	-1.070097
N	-0.448313	-1.258246	0.609013
O	-1.00447	-1.226127	1.712859
O	-0.21262	-2.299582	-0.004749
C	-0.473993	1.207784	0.773533
H	-1.563316	1.309479	0.840518
H	-0.083569	1.13712	1.787871
H	-0.046569	2.093691	0.305829
F	2.517337	0.0	0.0
