17

C	-0.444414	-0.004335	-1.457027
C	0.0	0.0	0.0
F	-0.088069	1.266215	-1.973592
H	1.090944	0.0	0.0
C	0.283883	-0.963831	-2.314652
N	0.795885	-1.645972	-3.120411
N	-1.842963	-0.225065	-1.609132
H	-2.350103	0.459332	-1.063112
H	-2.111377	-0.14547	-2.583053
N	-0.43042	-1.256441	0.63066
O	-0.892804	-1.217781	1.777097
O	-0.255674	-2.30108	-1e-05
C	-0.476821	1.20753	0.773527
H	-0.021363	1.17918	1.762374
H	-0.121754	2.100865	0.262343
H	-1.563459	1.257952	0.907921
F	2.510632	0.0	0.0
