17

C	-0.203249	-0.191281	-1.527385
C	0.0	0.0	0.0
F	-1.280114	-1.079591	-1.783999
H	1.09189	0.0	0.0
C	-0.665126	1.069525	-2.170934
N	-0.992554	2.044644	-2.740868
N	0.995701	-0.669716	-2.077467
H	1.153301	-0.379451	-3.029925
H	1.808072	-0.499134	-1.443837
N	-0.454519	-1.239376	0.679892
O	0.1024	-2.288247	0.371452
O	-1.352012	-1.152159	1.5256
C	-0.612336	1.234139	0.610037
H	-1.693923	1.28723	0.462921
H	-0.409597	1.247637	1.681569
H	-0.142151	2.114297	0.167748
F	2.645082	0.0	0.0
