17

C	-0.202532	0.175397	-1.507119
C	0.0	0.0	0.0
F	-0.076689	-1.103368	-2.10799
H	1.09293	0.0	0.0
C	-1.544614	0.642975	-1.926777
N	-2.607545	1.017973	-2.256433
N	0.811877	1.062696	-1.914778
H	0.897283	1.07905	-2.920475
H	1.691053	0.790131	-1.431681
N	-0.587047	-1.287249	0.440853
O	0.107636	-2.028418	1.131658
O	-1.759487	-1.519808	0.128763
C	-0.563005	1.128696	0.836466
H	-0.248364	0.997883	1.875271
H	-1.655175	1.172391	0.787804
H	-0.142962	2.066303	0.470284
F	2.634414	0.0	0.0
