17

C	-0.192264	-0.178393	-1.52927
C	0.0	0.0	0.0
F	-1.302226	-1.019173	-1.800578
H	1.091899	0.0	0.0
C	-0.587097	1.106201	-2.171152
N	-0.849152	2.103138	-2.736534
N	0.993208	-0.707846	-2.068045
H	1.159931	-0.4337	-3.024353
H	1.80733	-0.534549	-1.437531
N	-0.465947	-1.246148	0.659179
O	-1.390711	-1.168044	1.475043
O	0.104411	-2.291322	0.36174
C	-0.623255	1.227026	0.612845
H	-0.459283	1.219396	1.690771
H	-1.698606	1.291062	0.429349
H	-0.131785	2.111126	0.203552
F	2.643839	0.0	0.0
