17

C	-0.136441	0.086135	-1.527304
C	0.0	0.0	0.0
F	-0.037433	-1.239228	-2.032713
H	1.092357	0.0	0.0
C	-1.43297	0.584129	-2.042925
N	-2.444613	1.02258	-2.446753
N	0.927605	0.907923	-1.941155
H	1.044538	0.895092	-2.944879
H	1.789484	0.632077	-1.414238
N	-0.62457	-1.23942	0.508945
O	0.029795	-1.957212	1.261612
O	-1.797576	-1.45012	0.185294
C	-0.574146	1.190284	0.735113
H	-0.111344	2.094025	0.337583
H	-0.323077	1.117254	1.796087
H	-1.660464	1.255113	0.622791
F	2.659541	0.0	0.0
