17

C	-0.54173	0.039032	-1.416795
C	0.0	0.0	0.0
F	-1.980686	0.117973	-1.344744
H	1.09137	0.0	0.0
C	-0.159943	1.316175	-2.063576
N	0.096372	2.308636	-2.634643
N	-0.135413	-1.005301	-2.269886
H	-0.243365	-1.889774	-1.795456
H	-0.656766	-0.973121	-3.135529
N	-0.448374	-1.208988	0.713257
O	-0.499942	-2.288607	0.109926
O	-0.688358	-1.122177	1.917728
C	-0.372656	1.240939	0.792594
H	-1.447099	1.336455	0.97137
H	0.151466	1.21089	1.745561
H	-0.008748	2.116768	0.25213
F	2.491471	0.0	0.0
