15

C	0.0	0.0	0.0
C	-0.58178	0.567879	-1.335975
Cl	1.748281	0.0	0.0
H	-1.252321	1.374003	-1.06911
H	-0.378362	-0.999507	0.168784
N	-0.435022	0.792267	1.201591
O	-0.530734	0.158303	2.24539
O	-0.556069	2.003669	1.07988
N	-1.284818	-0.380667	-2.13665
H	-2.080837	-0.553241	-1.487911
H	-0.72008	-1.21566	-2.258822
N	0.514958	1.198184	-2.163782
O	0.784512	2.376911	-1.937552
O	1.077666	0.499933	-3.003621
F	-2.564535	0.0	0.0
