11
Coordinates from ORCA-job run
  C   0.99055236630370      0.03823321975666      0.03812784523011
  C   -0.33350797444201     -0.27178582291391     -0.66354423094817
  Br  2.37915422542623     -1.20716632587306     -0.53314135372362
  H   -0.60994783866297     -1.31251671216166     -0.45057250995679
  H   1.32484894219277      1.03726071633875     -0.24284462634038
  H   -0.16515057085096     -0.18341713089408     -1.73887502666190
  C   0.83452159046508     -0.03201910934313      1.48500369990556
  N   0.64398463730231     -0.09473198572381      2.64241093686060
  N   -1.30127029922165      0.72919610670761     -0.24100086678548
  H   -1.73225274580558      0.46250708062117      0.63519459894470
  H   -2.03293233270691      0.83343996348548     -0.93075846652463
