11
Coordinates from ORCA-job run
  C   0.81823859000796     -0.26166794158223      0.22926332849164
  C   -0.50282984889979      0.38553380503414     -0.18003946659097
  Br  0.49486304602844     -1.89053400482644      1.26477769472555
  H   -0.24944581847996      1.31743886751334     -0.69545309348480
  H   1.35367771443326     -0.58426216472078     -0.66501298853543
  H   -1.06085783276958      0.64678786182289      0.72949677924520
  C   1.64030176667617      0.64545983548749      1.01762998539434
  N   2.27884424061912      1.41636622420999      1.63222050434695
  N   -1.20100415057058     -0.48285235365208     -1.11337910463700
  H   -1.65929753956261     -1.23510893789916     -0.61499315487245
  H   -1.91349016748243      0.04083880861285     -1.60451048408302
