11
Coordinates from ORCA-job run
  C   0.98992566366616     -0.04653958383055      0.04150879573958
  C   -0.35738911038134     -0.30300961437886     -0.63693130661600
  Br  2.26193633859489     -1.45790616553600     -0.40135479257262
  H   -0.72567975079000     -1.28969149930383     -0.32767805097424
  H   1.41061002133758      0.88825510664357     -0.32987893792912
  H   -0.18325551287671     -0.33326410716152     -1.71453970801451
  C   0.83129518918263      0.03350761201594      1.48749650126784
  N   0.63904126743874      0.09623257843901      2.64466981916451
  N   -1.23100893838602      0.81651250215818     -0.31915938627917
  H   -1.95174424489594      0.91861979186231     -1.02061274998191
  H   -1.68273092288999      0.67528337909174      0.57547981619564
