11
Coordinates from ORCA-job run
  C   0.92176146480071      0.04808237788175      0.00576960324019
  C   -0.38218341967921     -0.32244527148972     -0.72787349892017
  Br  2.40608372630837     -1.05040337514907     -0.63009772418170
  H   -0.58027993863172     -1.38404685500239     -0.56410547501200
  H   1.20120122320111      1.08128116158092     -0.21318346144035
  H   -0.21513724094672     -0.18104131814521     -1.79833994700615
  C   0.77027952686152     -0.11265347150443      1.44547281478562
  N   0.57696047835296     -0.24376179067832      2.59690128930392
  N   -1.53594836777810      0.44412834568529     -0.31398915445220
  H   -1.40340396481259      1.43585317464246     -0.46232517127116
  H   -1.76033348767632      0.28500702217870      0.65977072495399
