11
Coordinates from ORCA-job run
  C   0.93995650877572     -0.24835230255627     -0.00432160621986
  C   -0.30948061203750      0.07120714146557     -0.85232115600974
  Br  0.88353616028038     -2.09357151919246      0.64049813854526
  H   -0.15070878878343      1.06745930662597     -1.27935442157841
  H   1.84737920860204     -0.17577458142109     -0.60843002260168
  H   -0.33697656205174     -0.64142112225942     -1.68035893405312
  C   1.03422434645566      0.65275379315438      1.13575797824520
  N   1.05150489292345      1.42020711885707      2.02517563034330
  N   -1.57967410022182      0.05716116264280     -0.17147105753629
  H   -1.60771828263306      0.74462668966900      0.57079294120737
  H   -1.77104277130970     -0.85429568698556      0.22303250965797
