11
Coordinates from ORCA-job run
  C   0.97929000317830     -0.19770335009194      0.01306387787105
  C   -0.31455515420037      0.11842285984691     -0.73314103566269
  Br  1.00203647778135     -2.07369642208715      0.57490436534195
  H   -0.23210157120776      1.15374148397742     -1.07998495161145
  H   1.83974234473408     -0.09007092031978     -0.65095154070933
  H   -0.35221114378083     -0.53019856287088     -1.61989976351387
  C   1.15904048569160      0.65788799240816      1.17856715066961
  N   1.33460754304477      1.38149511103489      2.08643814164691
  N   -1.45269483401198      0.01813333082298      0.15923114920665
  H   -1.71487256903417     -0.94933592936695      0.29468817188979
  H   -2.24828158219496      0.51132440664634     -0.22191556512861
