12

C	0.0	0.0	0.0
C	-0.658633	-0.00813	-1.344206
Cl	1.76108	0.0	0.0
H	-1.793111	0.087093	-0.96702
H	-0.366815	-0.831185	0.597913
H	-0.567335	-1.010146	-1.775071
N	-0.394475	1.233797	0.795688
O	-0.410378	1.103245	2.015234
O	-0.5869	2.271652	0.177818
C	-0.186931	0.972043	-2.295251
N	0.200994	1.717171	-3.121392
H	-2.872361	0.0	0.0
