12

C	0.0	0.0	0.0
C	-0.664391	0.052628	-1.329563
Cl	1.761289	0.0	0.0
H	-1.885536	0.121165	-0.827879
H	-0.351243	-0.858032	0.568029
H	-0.62525	-0.936677	-1.797762
N	-0.383745	1.186986	0.862041
O	-0.586265	2.261647	0.303224
O	-0.410345	0.99652	2.080997
C	-0.213482	1.064585	-2.242649
N	0.100666	1.865996	-3.047196
H	-2.798278	0.0	0.0
