12

C	0.0	0.0	0.0
C	-0.361926	-0.064692	-1.546018
Cl	1.745853	0.0	0.0
H	-1.462657	-0.127679	-1.602981
H	-0.406099	-0.887432	0.507989
H	0.029272	-0.957262	-2.060561
N	-0.44598	1.131293	0.791477
O	-1.863466	1.172804	1.127213
O	0.234387	2.218113	0.898817
C	-0.039586	1.169228	-2.244566
N	0.130778	2.171705	-2.830825
H	-1.98449	0.0	0.0
