12

C	0.0	0.0	0.0
C	-0.360588	-0.060669	-1.532285
Cl	1.747056	0.0	0.0
H	-1.455008	-0.131457	-1.600903
H	-0.462805	-0.871906	0.512682
H	0.0464	-0.940083	-2.057365
N	-0.446629	1.193399	0.641828
O	-1.815201	1.212303	1.029344
O	0.361375	2.14419	1.108122
C	-0.03198	1.180839	-2.230266
N	0.111034	2.191877	-2.810345
H	-2.024525	0.0	0.0
