17
Coordinates from ORCA-job run
  C   -0.90299817674765      0.08633965818406     -0.26223509136296
  C   0.60990110836019      0.09861782380777     -0.53320941437105
  Cl  -1.78965405731984     -0.43124359516383     -1.75903680564470
  H   0.71923450394048      0.90633414580729     -1.26908009494382
  N   -1.30402042598614     -0.96022381947084      0.77923101399282
  O   -2.38943278597852     -0.79645051720846      1.32140547594765
  O   -0.53433472215052     -1.89272213883008      0.98272255465375
  N   -1.34020699827970      1.32575053051975      0.25017243711336
  H   -2.33143103828430      1.30064282895348      0.45561715811978
  H   -1.14381483819003      2.06744897529965     -0.40967816262470
  N   1.05966312663597     -1.11196935824642     -1.19374855004353
  H   1.93703584776251     -0.93339346971649     -1.66347224394854
  H   1.19754927280011     -1.84734647726489     -0.51393667719355
  C   1.39644938150469      0.48198460889113      0.72419475819154
  H   1.02750930593806      1.40178600107283      1.17789893958105
  H   2.44539418268164      0.62071232177646      0.45051614570166
  H   1.34715631331303     -0.31826751841144      1.46463855683120
