17
Coordinates from ORCA-job run
  C   -0.76775944900759     -0.25514990465945     -0.19425099696245
  C   0.67725854108290      0.30118057112064     -0.17876478429050
  Cl  -0.80111968986053     -2.01080130359072     -0.34331727188984
  H   0.54296155598003      1.39013768018062     -0.14253347604168
  N   -1.38272622972481      0.12924334169786      1.18068411062452
  O   -1.47653567501477     -0.69534653588846      2.07736095675621
  O   -1.66262981309137      1.32538226081895      1.26253717192627
  N   -1.49590594443256      0.31883814503957     -1.27013248717229
  H   -2.40717941907557     -0.11113703802746     -1.37480008353361
  H   -1.60799351899570      1.31303841845853     -1.10715810690866
  N   1.40514624394661     -0.01496838005721     -1.38843063222749
  H   1.64540824429390     -0.99966795147608     -1.39469619352486
  H   0.81752605604856      0.16462161367511     -2.19467688987837
  C   1.46905996685379     -0.13390555608096      1.04244930525180
  H   1.51841293643006     -1.22322132735221      1.11102165924265
  H   2.48367263879259      0.25370320446325      0.94483724643769
  H   1.04240355577449      0.24705276167800      1.97087047219057
