17
Coordinates from ORCA-job run
  C   -0.76807909050354     -0.34630531543535     -0.23972690531415
  C   0.54916598314729      0.43003277233285      0.03196826333139
  Cl  -0.44269727826364     -1.84449686517964     -1.11113796891641
  H   0.21852160279817      1.33400246573023      0.55766341198863
  N   -1.36040671080229     -0.66267316997814      1.13719721402324
  O   -1.78342829462968      0.33865294189281      1.71207067825817
  O   -1.32868286069557     -1.79732312187903      1.58593554345106
  N   -1.79597051397394      0.36698773317609     -0.93851536882415
  H   -1.58798382443243      0.42523196935052     -1.92512803746961
  H   -1.92049952882071      1.28886401133688     -0.53875249277454
  N   1.22981296779228      0.85453611410508     -1.17338998222442
  H   1.53635640339439      0.05421104915811     -1.71320642195717
  H   0.63615417904116      1.43223305786765     -1.75453133601582
  C   1.51454790683788     -0.33059957543403      0.92701090854503
  H   1.84180008600489     -1.25790267090176      0.45173437966402
  H   1.07243232854189     -0.58178102675627      1.89214431958802
  H   2.38995664456391      0.29632963061398      1.09866379464671
