17
Coordinates from ORCA-job run
  C   -0.88575546077769      0.09017589362322     -0.31696261929027
  C   0.64720407785128      0.09567979381705     -0.42720330289141
  Cl  -1.55538141565495     -0.32464833192645     -1.95786591846863
  H   0.85598212745684      0.81927309367691     -1.23438032208624
  N   -1.30284029391241     -1.04586403527562      0.64037236236575
  O   -1.13722567353502     -0.78900613269151      1.82748706646148
  O   -1.71162349061158     -2.09716430934718      0.17621253295727
  N   -1.38836786368268      1.30139776288727      0.18821723456109
  H   -1.02638593724390      2.08600235845403     -0.33830925810291
  H   -2.40044561394437      1.32757953644360      0.17834523327035
  N   1.09111964934813     -1.25442916958201     -0.72649882229538
  H   0.81706027884587     -1.53488343846037     -1.65967285632532
  H   2.09939314245320     -1.30443694437170     -0.66091251960607
  C   1.33716341411216      0.57274243840565      0.84366832547206
  H   0.94091733890842      1.52613413578132      1.18869178501082
  H   2.40487924905624      0.69336049700244      0.63755017315478
  H   1.21430647133044     -0.16191314843669      1.63826090581259
