17
Coordinates from ORCA-job run
  C   -0.76346261031968     -0.19274743084046     -0.02599991668639
  C   0.66628782738379      0.38515228687409     -0.06116740974065
  Cl  -0.68663457568423     -2.01920224342565     -0.00355424328248
  H   0.53413370126116      1.43841800642448      0.20220630805727
  N   -1.51137986672843      0.18511338465608      1.25769927507263
  O   -0.90384345673308      0.81410211662624      2.11592563453276
  O   -2.68863607189464     -0.14920437022961      1.30607483009721
  N   -1.56904926535150      0.31836933497825     -1.06160235607528
  H   -2.51929521995917     -0.02326025077426     -0.97565896362239
  H   -1.19410526405619      0.05865855852535     -1.96319454167436
  N   1.25533042611584      0.34289781854666     -1.38620343538553
  H   0.78668246885368      0.95211703323420     -2.04184547094305
  H   1.30450112946470     -0.60052300604908     -1.74989971164123
  C   1.63081543018235     -0.26245654382851      0.92155889438136
  H   1.20267803966313     -0.36100992777208      1.91712640515295
  H   1.93316203225625     -1.24983762093524      0.56937853378087
  H   2.52281527554597      0.36241285398954      0.97815616797626
