17
Coordinates from ORCA-job run
  C   -0.90067386694638      0.09684908619882     -0.26682061683179
  C   0.61346027841042      0.09883252237928     -0.53130696673586
  Cl  -1.78866966812186     -0.42144282314583     -1.76236828927320
  H   0.73386611915979      0.91741179133345     -1.25336530985846
  N   -1.30917988154108     -0.94493641878789      0.77668868164581
  O   -0.56288860964927     -1.90179066938255      0.95201191973592
  O   -2.37739632773808     -0.75676860098787      1.34461394415875
  N   -1.32988514250006      1.34182731757494      0.23911511428229
  H   -2.31816465538971      1.31923534776863      0.45861056610030
  H   -1.14301121891331      2.07564961720428     -0.43218314205638
  N   1.05855116599222     -1.10446536499308     -1.20822189775112
  H   1.95139156960755     -0.92993927666102     -1.64987653811649
  H   1.16767273801091     -1.85629179960524     -0.54111485660676
  C   1.39470936688884      0.45634089288221      0.73719402303407
  H   1.34316982091778     -0.35954499238350      1.46034369526902
  H   1.02318487755145      1.36686017424566      1.20727920270236
  H   2.44486343426080      0.60117319635972      0.47140047030151
