17
Coordinates from ORCA-job run
  C   -0.88460845194568      0.12948790883931     -0.43382872753813
  C   0.64687089026802      0.10101916632710     -0.55797719453325
  Cl  -1.67445695912120     -0.41583966143781     -1.92088017664518
  H   0.83813917612084      0.90770659364116     -1.27266087247664
  N   -1.35295017807587     -0.90312923152546      0.64854267268563
  O   -0.72507225374183     -1.95068897207116      0.75858408717795
  O   -2.33311017512044     -0.58653047910096      1.31320043834004
  N   -1.35222520953483      1.42806654853445     -0.12825027044881
  H   -1.00388454312564      1.73288334826204      0.77155201979382
  H   -2.36389360211863      1.44316076273897     -0.10182199752060
  N   1.13417986295885     -1.12224354681280     -1.16706095604358
  H   1.13909673052024     -1.87804138816064     -0.49603275524022
  H   2.07589414720894     -0.97357769622880     -1.50474239351592
  C   1.31715315746944      0.45900379557627      0.77511434102336
  H   2.39774194281719      0.49399132190489      0.62058929128453
  H   1.02218309569099      1.43741358976028      1.16333231802591
  H   1.11694236972959     -0.30268206024684      1.53234017563114
