17
Coordinates from ORCA-job run
  C   -0.85284253979869      0.11168167513433     -0.18877384748886
  C   0.63151568372922     -0.13831255725727     -0.43927177306334
  Cl  -1.51713599281847      1.24561668720446     -1.45401160437792
  H   0.72684789031345     -0.45618482372691     -1.47928010424370
  N   -1.59727288839630     -1.20462758675010     -0.44272709462728
  O   -2.43885955219815     -1.54049833645778      0.38192169441321
  O   -1.31224778870632     -1.79544238991854     -1.47062017542911
  N   -1.10325917609155      0.51655701385088      1.13638930498143
  H   -2.06402540529510      0.33240087117279      1.39765670783875
  H   -0.88967342585136      1.49762421186047      1.25600545213077
  N   0.96837947719965     -1.27518506922120      0.40584511801742
  H   1.84263282266894     -1.68958956471144      0.11078659143657
  H   1.04870786277523     -0.97839799281853      1.37044129092709
  C   1.46821286360903      1.11459660164593     -0.19614029151464
  H   1.15497297872933      1.95563316890856     -0.81783538646768
  H   1.41961871119668      1.40899851397047      0.85588984936294
  H   2.51342847893442      0.89512957711389     -0.42527573189565
