17
Coordinates from ORCA-job run
  C   -0.83737885383450     -0.16228694672755     -0.19899764577920
  C   0.66466044057210      0.15567877367840     -0.16196952947768
  Cl  -1.17425631135944     -1.83797534622550     -0.59811965773854
  H   0.70016212281455      1.23244546714945      0.07986634691279
  N   -1.34305135815020      0.10377052084132      1.25487801922835
  O   -1.52159672245341     -0.82322670170793      2.02947275407097
  O   -1.45683028763675      1.30057185379016      1.51892937044411
  N   -1.48829683648175      0.68988901642032     -1.13313363937162
  H   -2.45036189644444      0.40948759926087     -1.28010734528761
  H   -1.46201637744538      1.64358547670363     -0.79027471459225
  N   1.20820428204211     -0.16450473748630     -1.46968478393520
  H   0.69428035524250      0.33667206988730     -2.18414151973046
  H   2.18025982273188      0.11494460575446     -1.50963965159694
  C   1.41737672891721     -0.60846334355347      0.91381430700033
  H   2.48160339682440     -0.36936015819481      0.84437795445098
  H   1.08628264422585     -0.34069836344770      1.91835692663264
  H   1.29895885043525     -1.68252978614267      0.76837280876937
