17
Coordinates from ORCA-job run
  C   -0.90259471301679      0.06353811618374     -0.40346447752989
  C   0.65563258580660      0.13941996055483     -0.49367737516427
  Cl  -1.54772315356035     -0.50433467763526     -1.95992227377720
  H   0.82260390610491      0.96499625912690     -1.19776981490935
  N   -1.22353932879932     -0.97251841366611      0.66955454121442
  O   -1.03651773275551     -2.15103882134219      0.39047714188352
  O   -1.52875016362546     -0.53425601532385      1.77540078070137
  N   -1.59262473857098      1.26005076536961     -0.05684975374428
  H   -1.39808780393651      1.53447511927607      0.89573003601532
  H   -1.35986191460579      1.99981590159195     -0.70618542089326
  N   1.35149157887643     -1.01599573073621     -1.01163192275989
  H   1.20927014827085     -1.81621822057929     -0.40657485689727
  H   1.00426908001545     -1.26333015445537     -1.92917186100578
  C   1.25898290179437      0.50976183841534      0.85654546227167
  H   1.15895284557440     -0.31149074245330      1.57171403721153
  H   2.32290059021546      0.69737376954205      0.71222439375580
  H   0.80559591221230      1.39975104613105      1.29360136362757
