17
Coordinates from ORCA-job run
  C   -0.78365723225374      0.09622370654588     -0.21938411977551
  C   0.73097755153476     -0.07275430850489     -0.41614541923417
  Cl  -1.44865902180152      1.21179115345618     -1.51172537706101
  H   0.88870662509026     -0.30446878154186     -1.47050166222367
  N   -1.49396946942093     -1.22676496789912     -0.52012876325047
  O   -1.01267807215268     -1.92218377245732     -1.40534610911591
  O   -2.50962648386744     -1.47404011753613      0.11959042893969
  N   -1.11855223477125      0.46255205688988      1.09354588792288
  H   -2.11272992711908      0.37190968073804      1.26202257414493
  H   -0.81290615853314      1.40526774051157      1.29371505374608
  N   1.26838542314781     -1.16627437633633      0.37107972822182
  H   0.97357491712294     -2.05931926730975     -0.00107771216096
  H   0.95253864004113     -1.08986339286825      1.33092293653504
  C   1.46691428064127      1.21133128761860     -0.05445134851513
  H   1.43133144419350      1.38199804369105      1.02511125489426
  H   2.51568297253356      1.09192942657873     -0.32577084085962
  H   1.06466674561457      2.08366588842373     -0.57145651220817
