17
Coordinates from ORCA-job run
  C   -0.85157024910353     -0.39914867720035     -0.18649826670166
  C   0.49803328096178      0.34575765394097     -0.12604718381911
  Cl  -0.57094294187222     -2.11977602731485     -0.49127019153705
  H   0.21495035607494      1.39161199702362      0.03851298056535
  N   -1.50154324580610     -0.21529253442477      1.18768954188428
  O   -1.88747666401641      0.93426608536110      1.39523931280308
  O   -1.52596691947255     -1.13718651007613      1.98715117211217
  N   -1.78194120509366      0.09754817296848     -1.14927280372617
  H   -2.05130226738498      1.03674893777599     -0.87517040366648
  H   -1.28406422956902      0.14721704628761     -2.03304781593129
  N   1.07517811286704      0.26166483386558     -1.46244412109813
  H   1.71652534347958      1.03052668611911     -1.60948105324028
  H   1.59785721248001     -0.60112669858638     -1.56062976690348
  C   1.40729346178300     -0.10996638346457      1.00856941193337
  H   1.67406914934586     -1.16276978912601      0.89464849554639
  H   2.32553669000260      0.48197344952512      0.99246992952194
  H   0.94436411532367      0.01995175732546      1.98958076225702
