17
Coordinates from ORCA-job run
  C   -0.76849046719348     -0.39186744212362     -0.15354939083498
  C   0.56483569289654      0.40128491276123     -0.08493252925568
  Cl  -0.46285055684214     -2.10701891156607     -0.42729066407926
  H   0.24601895099752      1.43907752917244      0.07061984575332
  N   -1.44524097477650     -0.19371823066329      1.20619095691447
  O   -1.48368243804162     -1.09928655770264      2.02360623040575
  O   -1.85485411664151      0.95441106416205      1.36821776715131
  N   -1.72667678206553      0.05423907121147     -1.12137613391897
  H   -1.83700450181072      1.05948137574421     -1.07192393529052
  H   -1.46116570768304     -0.23570667631712     -2.05171286192392
  N   1.32559884033043      0.36152117219426     -1.31617627719564
  H   1.62524807122450     -0.58370995931616     -1.52264112131189
  H   0.78901961496334      0.71245538160641     -2.09897826972928
  C   1.44776216694521     -0.01799063612938      1.07977921729487
  H   1.75244404419260     -1.06253583074910      0.98523423688456
  H   0.94720088878918      0.10376251496792      2.04136684369242
  H   2.34283727471520      0.60460122274739      1.07256608544347
