17
Coordinates from ORCA-job run
  C   -0.90116880657910      0.11746446325845     -0.25636024033472
  C   0.60958987436761      0.08519647018057     -0.53621517044312
  Cl  -1.81172525972232     -0.35441521934676     -1.75415935438670
  H   0.73927271171965      0.89632792884452     -1.26499312654861
  N   -1.33033024993696     -0.92711370359188      0.77584324408544
  O   -2.40876611571383     -0.73618895266706      1.32299240961478
  O   -0.58793330534483     -1.88373677475671      0.96857451278154
  N   -1.29645924987145      1.36425404422427      0.27252622266427
  H   -2.28705384511206      1.36687197267662      0.48291656312307
  H   -1.08175026651519      2.10649636673121     -0.38104974435254
  N   1.01736016607145     -1.13249272877724     -1.21152006805978
  H   1.13126158972416     -1.87905008318282     -0.53937224484498
  H   1.90090489819378     -0.97796562925774     -1.67844845174202
  C   1.41563443974554      0.43104209024810      0.71970012153844
  H   2.46641203459661      0.54157080483269      0.44021905770343
  H   1.34734635128704     -0.37569099169298      1.45150860010561
  H   1.07740503308991      1.35642994227680      1.18583766909595
