17
Coordinates from ORCA-job run
  C   -0.91367848056214     -0.19607363026356     -0.21600379127458
  C   0.54513455716288      0.28771215916178     -0.07076102009569
  Cl  -0.94446093624194     -1.78165685445121     -1.00273394784099
  H   0.44887937125192      1.27512419912442      0.39473063486089
  N   -1.46635427026228     -0.31573995093698      1.20679424577320
  O   -1.65906842997883      0.77087557980560      1.75039357238013
  O   -1.61143434739394     -1.41307253842887      1.72116763359876
  N   -1.78418223877249      0.68891201669515     -0.92050631854182
  H   -1.88944572587133      1.53508571108364     -0.37089707043956
  H   -1.31604674420767      0.92175813654431     -1.79068861295422
  N   1.04732567768854      0.49833519048780     -1.42410103098926
  H   1.81041699879220      1.16290079754830     -1.40754904019416
  H   1.40431756191197     -0.37286197685627     -1.79980998358199
  C   1.40951354215963     -0.59990368430359      0.81644780464895
  H   1.01877255118757     -0.67576764169729      1.83374505001797
  H   1.48424233740702     -1.60806148084675      0.40409100233642
  H   2.41506857572887     -0.17656603266645      0.87668087229598
