17
Coordinates from ORCA-job run
  C   -0.83305554842918     -0.21593716670278     -0.16808148932490
  C   0.61879905285806      0.32024740406966     -0.03878020964349
  Cl  -0.84430580858585     -1.82058975625595     -0.89984180638304
  H   0.49352562458493      1.31460453247276      0.40682914158463
  N   -1.38054308578193     -0.29079044363848      1.26038832214507
  O   -1.51940322664669     -1.36637316233977      1.82052273595775
  O   -1.57963866890237      0.81922261528596      1.75062710127522
  N   -1.75725040600029      0.61194477237336     -0.88524933980625
  H   -1.68871710492233      1.57172464690018     -0.56998547158636
  H   -1.60132569998650      0.54650203000671     -1.88105861411202
  N   1.28650584968407      0.49670254940400     -1.31129860693009
  H   0.77014169927538      1.11624852725148     -1.92241151894009
  H   1.41007146162427     -0.39383341949108     -1.77778359500032
  C   1.48463488913027     -0.52258306113028      0.88416085000719
  H   1.07262489347229     -0.58591753191124      1.89224130698878
  H   2.47217272222845     -0.06391058464823      0.94115552328323
  H   1.59676335639744     -1.53826195164629      0.49856567048468
