17
Coordinates from ORCA-job run
  C   -0.86554942265130      0.14452516097105     -0.33084934188163
  C   0.67332510917611     -0.06368257490777     -0.40836468272083
  Cl  -1.38713283610396      1.19136907978825     -1.66748293266181
  H   0.88942133587680     -0.33712809406913     -1.44489516076740
  N   -1.45263576879893     -1.25153350952074     -0.56886406046598
  O   -1.26872701306140     -1.74382040464749     -1.67457080532632
  O   -1.94208429331513     -1.81781158145130      0.40301186316598
  N   -1.43132016216902      0.64032557277016      0.87486406394185
  H   -1.12301437497326      1.58545512208476      1.05476497189505
  H   -1.24100578567673      0.03172749191131      1.65888400216513
  N   1.15676093447519     -1.13964689128214      0.43306992694752
  H   0.94250312635113     -0.99022391740090      1.41082295637631
  H   0.81349272567432     -2.04730932986803      0.14800662849369
  C   1.40947500492182      1.21648288974933     -0.04583195358933
  H   2.47529304233631      1.06504255308389     -0.21663004574748
  H   1.07304754335156      2.06772565214526     -0.63826009034136
  H   1.27515083458650      1.45050278064346      1.01432466051659
