17
Coordinates from ORCA-job run
  C   -0.86091921143436     -0.15082191049516     -0.03545542285007
  C   0.61244989489849      0.29788158127823     -0.06608610067580
  Cl  -0.95894580906059     -1.97565718889987      0.07465223624615
  H   0.57698562735193      1.35480752571614      0.21402817336027
  N   -1.58739987395929      0.33657907193877      1.21806012100318
  O   -0.92243673449681      0.85810146732144      2.10749838027018
  O   -2.80164082928989      0.18325122899577      1.22395588273825
  N   -1.55827160025396      0.39304035437966     -1.11796502563206
  H   -1.05954920542300      0.15880376513395     -1.96862199505814
  H   -2.52068524428487      0.08158208712706     -1.13903749371834
  N   1.06176091362097      0.16425490190082     -1.45328826925829
  H   1.85339135146564     -0.46026872060351     -1.51742649866916
  H   1.32825026103249      1.06006127099699     -1.83634837566225
  C   1.52877869593929     -0.44029948012871      0.89798371220270
  H   2.48726806834150      0.08259425496320      0.94175160388110
  H   1.70543086901252     -1.46030276124884      0.55255564680102
  H   1.11353282653995     -0.48260744837599      1.90274342502131
