17
Coordinates from ORCA-job run
  C   -0.89175678473189      0.15020238821826     -0.45423283841587
  C   0.64148770031781      0.10760303242985     -0.57201891195840
  Cl  -1.69063241350899     -0.41153836136614     -1.92240533226426
  H   0.85671423814463      0.92481993194891     -1.26734975166002
  N   -1.28756578388524     -0.86773815920382      0.67201574484118
  O   -1.79151712797844     -0.39370804802967      1.68590447327813
  O   -1.00015604893365     -2.04594411060409      0.50077471743052
  N   -1.34906365028406      1.45544074237746     -0.15635508036450
  H   -2.35866154050339      1.50057578666036     -0.21525612997603
  H   -1.07620205178654      1.72391040988684      0.77995956151590
  N   1.11222587555431     -1.11581113314284     -1.19473798349292
  H   1.00547182758312     -1.90565223864987     -0.57122685041336
  H   2.09270202022189     -1.01389885002682     -1.42340843532878
  C   1.29296393915075      0.41979196041208      0.78114855392328
  H   1.09233914829732     -0.37340543575632      1.50677326489769
  H   2.37514373669562      0.47200960201320      0.64306169806361
  H   0.97750691564677      1.37534248283264      1.20735329992373
