17

C	-0.393418	-0.020345	-1.489637
C	0.0	0.0	0.0
Cl	-0.016484	1.644631	-2.225325
H	1.102092	0.0	0.0
N	0.396901	-1.029863	-2.117866
H	0.261795	-1.026432	-3.122024
H	1.383402	-0.865691	-1.916983
N	-1.81292	-0.180332	-1.618265
H	-2.071129	-0.337245	-2.58627
H	-2.041284	-0.993312	-1.052524
N	-0.544103	-1.246307	0.566164
H	-0.428724	-1.154343	1.568973
H	0.048899	-2.00877	0.253905
N	-0.522179	1.101417	0.769355
H	-1.436948	1.343598	0.402933
H	0.089632	1.896795	0.642
Br	3.633503	0.0	0.0
