17

C	-0.386422	0.013539	-1.491772
C	0.0	0.0	0.0
Cl	-0.01962	-1.66006	-2.215789
H	1.102991	0.0	0.0
N	-1.80553	0.184457	-1.627663
H	-2.055895	0.335837	-2.597506
H	-2.027231	1.006239	-1.072827
N	0.417331	1.011353	-2.122124
H	0.301096	0.993722	-3.128601
H	1.400199	0.845106	-1.902946
N	-0.528341	-1.096137	0.772565
H	0.081482	-1.892706	0.64776
H	-1.442432	-1.337939	0.402591
N	-0.540589	1.251541	0.558511
H	-0.438222	1.159689	1.562918
H	0.062009	2.008869	0.253286
Br	3.625407	0.0	0.0
