17

C	-0.387388	-0.011978	-1.491175
C	0.0	0.0	0.0
Cl	-0.025286	1.665035	-2.211597
H	1.103096	0.0	0.0
N	0.4205	-1.004389	-2.124358
H	1.403636	-0.835357	-1.906705
H	0.300662	-0.988361	-3.130442
N	-1.805095	-0.187335	-1.628066
H	-2.056342	-0.338704	-2.597792
H	-2.026466	-1.00862	-1.072354
N	-0.538779	-1.253534	0.556018
H	0.06257	-2.009099	0.244747
H	-0.430555	-1.165407	1.560016
N	-0.528758	1.092722	0.777071
H	0.073791	1.895032	0.649482
H	-1.446943	1.327181	0.412896
Br	3.629988	0.0	0.0
