17

C	-0.370975	-0.067544	-1.479358
C	0.0	0.0	0.0
Cl	-2.234984	-0.349158	-1.622529
H	1.101746	0.0	0.0
N	-0.017238	1.145748	-2.107659
H	-0.411839	1.223383	-3.035741
H	-0.304146	1.91488	-1.512676
N	0.218608	-1.250958	-2.053022
H	-0.016608	-1.310103	-3.037992
H	1.227916	-1.128701	-1.963037
N	-0.508751	-1.167537	0.722307
H	0.21176	-1.439563	1.384613
H	-0.585934	-1.930511	0.056559
N	-0.465773	1.253785	0.572182
H	0.198974	1.550896	1.276501
H	-1.349906	1.056558	1.02952
Br	3.61354	0.0	0.0
