17

C	-0.257914	0.039224	-1.506208
C	0.0	0.0	0.0
Cl	-2.058248	0.062723	-1.818424
H	1.105951	0.0	0.0
N	0.298612	1.26025	-2.026616
H	1.270742	1.301182	-1.71748
H	0.289796	1.196236	-3.039526
N	0.257583	-1.127646	-2.183277
H	-0.07178	-1.932223	-1.656191
H	1.268151	-1.095095	-2.047468
N	-0.462805	-1.255216	0.563368
H	-1.378682	-1.079539	0.962224
H	0.162908	-1.521588	1.313767
N	-0.55793	1.166951	0.680384
H	-0.622846	1.92033	0.00348
H	0.111697	1.46152	1.383647
Br	3.564654	0.0	0.0
