13

C	0.0	0.0	0.0
C	-0.299209	0.081878	-1.530968
F	1.372978	0.0	0.0
H	0.135028	-0.816528	-1.977384
H	-0.3735	0.872196	0.521971
C	-0.493789	-1.229565	0.617415
N	-0.559744	-2.265975	1.170659
C	0.385029	1.249011	-2.097058
N	0.924605	2.168342	-2.58962
N	-1.717159	0.115513	-2.085395
O	-2.213899	1.211546	-2.298366
O	-2.144393	-0.96305	-2.475793
F	-2.284462	0.0	0.0
