13

C	0.0	0.0	0.0
C	-0.271662	0.07845	-1.531789
F	1.372883	0.0	0.0
H	0.178535	-0.81814	-1.966083
H	-0.378477	0.8711	0.519375
C	-0.492945	-1.233696	0.608721
N	-0.562488	-2.278282	1.146288
C	0.424676	1.246881	-2.080253
N	0.989727	2.16258	-2.550186
N	-1.677597	0.102411	-2.097085
O	-2.100166	-0.981808	-2.477791
O	-2.177947	1.195397	-2.317398
F	-2.278621	0.0	0.0
