13

C	0.0	0.0	0.0
C	-0.426284	-0.134199	-1.464874
F	1.373658	0.0	0.0
H	-0.151068	0.793004	-1.973245
H	-0.369804	0.944061	0.387249
C	-0.429354	-1.09052	0.887609
N	-0.545035	-1.942028	1.688106
C	-1.83108	-0.471251	-1.770372
N	-2.583978	-0.831074	-2.612373
N	0.442085	-1.178067	-2.128152
O	0.4578	-2.293211	-1.620238
O	1.054734	-0.840661	-3.139002
F	-2.381481	0.0	0.0
