13

C	0.0	0.0	0.0
C	-0.297798	0.080901	-1.531168
F	1.372972	0.0	0.0
H	0.134102	-0.819379	-1.97604
H	-0.373712	0.872319	0.521579
C	-0.494124	-1.229698	0.616824
N	-0.559904	-2.266924	1.168563
C	0.390465	1.245065	-2.098673
N	0.933506	2.161492	-2.592859
N	-1.715246	0.118382	-2.085775
O	-2.209658	1.21589	-2.296545
O	-2.144836	-0.958584	-2.477922
F	-2.284027	0.0	0.0
