13

C	0.0	0.0	0.0
C	-0.299151	0.081703	-1.530975
F	1.372976	0.0	0.0
H	0.133162	-0.817774	-1.977069
H	-0.373503	0.872237	0.521909
C	-0.493834	-1.229551	0.617408
N	-0.559836	-2.266063	1.170455
C	0.387307	1.247268	-2.09768
N	0.928355	2.165452	-2.590781
N	-1.717091	0.118174	-2.085188
O	-2.145878	-0.95915	-2.477297
O	-2.212286	1.215246	-2.296356
F	-2.284425	0.0	0.0
