13

C	0.0	0.0	0.0
C	-0.31776	-0.165333	-1.48969
F	1.37415	0.0	0.0
H	0.131473	0.706311	-1.974583
H	-0.396536	0.953537	0.313446
C	-0.481739	-1.043676	0.908208
N	-0.740591	-1.832117	1.738039
C	-1.674004	-0.429082	-1.952443
N	-2.477837	-0.831606	-2.719819
N	0.505611	-1.294837	-2.047718
O	1.376572	-1.016482	-2.869928
O	0.220502	-2.419946	-1.648974
F	-2.282533	0.0	0.0
