13

C	0.0	0.0	0.0
C	-0.251387	0.075763	-1.533688
F	1.373021	0.0	0.0
H	0.216645	-0.816609	-1.958023
H	-0.380566	0.870825	0.517616
C	-0.495157	-1.236099	0.601014
N	-0.563526	-2.28613	1.128218
C	0.448062	1.248434	-2.069138
N	1.031157	2.162211	-2.520165
N	-1.646756	0.080891	-2.114479
O	-2.155072	1.166912	-2.3514
O	-2.059122	-1.012541	-2.479874
F	-2.271394	0.0	0.0
