14
Coordinates from ORCA-job run
  C   0.73333888730203      0.15810183640890     -0.42613000695507
  C   -0.78734433371344      0.21214486230054     -0.15898144081349
  Cl  1.07776703551818      0.62238843299781     -2.08816893231730
  H   -1.11324171474728      1.20831581672379     -0.46783717346175
  N   1.41502594401769      1.18754473886030      0.49130493510967
  O   0.88572450119679      2.28961941634489      0.50561498390024
  O   2.41237209553193      0.82654536179759      1.09807027460993
  C   1.25762615374552     -1.16900014708504     -0.14240612590242
  N   1.58842769137040     -2.27714845521686      0.06956999428340
  C   -1.00956970602946      0.07497093063306      1.29369017417138
  N   -1.21379512302347     -0.09335535308621      2.43892713082096
  N   -1.44321616497592     -0.78680851181449     -0.96813493483799
  H   -2.41678513626395     -0.55123620222447     -1.10648482206812
  H   -1.38733012992902     -1.70308272663983     -0.53903405653943
