14
Coordinates from ORCA-job run
  C   0.64206821949086      0.39410939993683     -0.32639814758785
  C   -0.66038347817527     -0.35911207910098      0.02088070074215
  Cl  0.40194151120647      2.12928198112478     -0.29980119130636
  H   -0.41054581549796     -1.42254384977475     -0.03979789919954
  N   1.65077600680690     -0.04089843735484      0.77359438267690
  O   2.09916531617377      0.80036547870054      1.52409816674539
  O   1.87110786703727     -1.24360462261935      0.76318545729880
  C   1.18126329899612     -0.03472390120063     -1.60864794908812
  N   1.59191019502260     -0.39048617255504     -2.65135057515080
  C   -1.68284686777318     -0.05801365637888     -0.99550236411684
  N   -2.54382426139547      0.18976484324745     -1.75586442975865
  N   -1.02124103770770     -0.05148566479217      1.38483384132316
  H   -1.48279989212459      0.84724813050422      1.45095613291724
  H   -1.63659106205984     -0.76190144973717      1.75881387450450
