14
Coordinates from ORCA-job run
  C   0.67208249852790      0.11473359640841     -0.39573194287975
  C   -0.85459242267336      0.22992517538691     -0.08432329925762
  Cl  0.94417748327237      0.43679021971583     -2.11002646699171
  H   -1.14142305784352      1.23603312132004     -0.40623616745363
  N   1.39897259052377      1.19642444056643      0.41511736048500
  O   2.27560425234630      0.82750604269760      1.18321686093775
  O   0.99367654205910      2.33414616045248      0.22674414305838
  C   1.17634716229075     -1.20039732886877     -0.03925052087469
  N   1.48287875927774     -2.30539724362027      0.22129331375207
  C   -1.01170055763220      0.14315863870033      1.37302488111434
  N   -1.10933377604405      0.05457435502937      2.53995294106507
  N   -1.69451740230458     -0.73830225416916     -0.72904096628515
  H   -1.67004842604072     -0.64265980604584     -1.73525687619407
  H   -1.46012364575951     -1.68653511757335     -0.46148326047598
