14
Coordinates from ORCA-job run
  C   0.72755850937671      0.15002405301087     -0.43896803954157
  C   -0.78961078611578      0.20522368258191     -0.15359093766838
  Cl  1.04846944529638      0.57587977910779     -2.11617511819325
  H   -1.12287221326886      1.19275713963541     -0.48172447922541
  N   1.41720745170156      1.20399044048975      0.44446214936028
  O   0.88368281452553      2.30405220096752      0.43941529719732
  O   2.42371796957354      0.86112354759216      1.04659154553182
  C   1.26145766033096     -1.16761173757646     -0.13098666322074
  N   1.60034479013435     -2.26882611317169      0.10328043348434
  C   -0.99357114718301      0.10180210579644      1.30444768644049
  N   -1.18543300404915     -0.03840349109298      2.45558267284574
  N   -1.45228460750871     -0.81483107986786     -0.93016763474473
  H   -1.39022087511426     -1.71990202028169     -0.47910646721289
  H   -2.42744600769927     -0.58427850719116     -1.06506044505302
