14
Coordinates from ORCA-job run
  C   0.67982798883372      0.34987502926996     -0.29915429352253
  C   -0.67620042357063     -0.32858485756775     -0.00707071986434
  Cl  0.51713370606899      2.09265644563532     -0.37486135287065
  H   -0.47127976868162     -1.40325009049429      0.00332666833039
  N   1.59133484461739     -0.06890819551739      0.88803908047059
  O   1.75701138692654     -1.27861500211838      0.95210840618701
  O   2.02648600502416      0.79100320812284      1.62514151182701
  C   1.28392227326269     -0.16793200212205     -1.51805158352320
  N   1.74699391359788     -0.59601127523887     -2.51043775398181
  C   -1.61168403436969     -0.04011955754222     -1.10718134316442
  N   -2.40627080436382      0.20052837207210     -1.93876491853397
  N   -1.11471593423410      0.06481793149063      1.31121787597763
  H   -1.53808524369397      0.98447836838383      1.30118901853275
  H   -1.78547390941752     -0.59893837437373      1.67549940413555
