14
Coordinates from ORCA-job run
  C   0.73963777584931      0.12591518493763     -0.42383934542571
  C   -0.78011304449483      0.23276132768513     -0.16812736946606
  Cl  1.10796672233686      0.53727018499209     -2.09485789380287
  H   -1.07337790747387      1.23200121955682     -0.49865272163537
  N   1.44794103408695      1.15722846380000      0.47120272140744
  O   2.43553204093526      0.78381607725927      1.08608847166758
  O   0.94763404614708      2.27290919033146      0.46044319538236
  C   1.22199709973547     -1.20871089306581     -0.10356529204454
  N   1.52068662158333     -2.31983627665612      0.13837510080658
  C   -1.01340602223912      0.13094617940805      1.28590277810441
  N   -1.22563900498852     -0.01136933799278      2.43324411152077
  N   -1.46189356550596     -0.76269484751370     -0.95995183648771
  H   -1.44223724824960     -1.66995298371504     -0.50964399784835
  H   -2.42472854772235     -0.49728348902700     -1.11661792217851
