14
Coordinates from ORCA-job run
  C   0.69688171387699      0.29089398226185     -0.49058915125046
  C   -0.80463651361009     -0.01059395310880     -0.31436188183032
  Cl  0.95639331409973      1.80979973883441     -1.35433029502660
  H   -1.16683487491317     -0.21888432206497     -1.32756167669433
  N   1.37653520189432      0.42543757928959      0.88220924500162
  O   0.64738643303423      0.71077680670353      1.82291497125723
  O   2.58733279542283      0.27351353139746      0.89817714913493
  C   1.33673383849082     -0.81055395745588     -1.19742568049154
  N   1.80890034212435     -1.69433067319893     -1.81135228248585
  C   -1.55517419562072      1.15640418243214      0.17816436461563
  N   -2.23247887396685      2.03195408768131      0.57090807861222
  N   -0.92700399799928     -1.21177232049975      0.48095373572251
  H   -0.99830860449088     -0.99356886247387      1.46596733560891
  H   -1.72672657834230     -1.76007581979807      0.19732608782604
