14
Coordinates from ORCA-job run
  C   0.72765670405090      0.17874088205273     -0.42841104382093
  C   -0.79452302112971      0.17787882973592     -0.16358820392828
  Cl  1.05584824381789      0.62289637127242     -2.09903989938163
  H   -1.15917804311147      1.15413913667893     -0.49215711713160
  N   1.36631235628662      1.25212785435363      0.46896513802823
  O   2.37476850914076      0.94223155310178      1.08552885106476
  O   0.79486982230253      2.33295619775190      0.45947917616745
  C   1.30313013697207     -1.12089928567741     -0.11797938650673
  N   1.67725188866179     -2.21103034066586      0.11436272468973
  C   -1.01396144327501      0.06017092038094      1.29121972698267
  N   -1.21444649200855     -0.09349950261356      2.43916685735376
  N   -1.40914501168159     -0.86202382899074     -0.95355836817381
  H   -1.32005655186609     -1.76616169267373     -0.50503717973188
  H   -2.39052709816016     -0.66652709470694     -1.09895127561174
