14
Coordinates from ORCA-job run
  C   0.71712253235468      0.30878814704984     -0.44826293359298
  C   -0.78195407265173     -0.04151696503113     -0.36422767232961
  Cl  0.98044114349676      1.82516568545762     -1.31520223083051
  H   -1.07150060219510     -0.27203759362003     -1.39565693369005
  N   1.30272493915862      0.48220887481409      0.96336151480512
  O   2.51528756604792      0.38113329696712      1.05642410802148
  O   0.50484005399363      0.74438724346517      1.85374312445173
  C   1.43788025425931     -0.77785062957634     -1.09794031302768
  N   1.97321856223462     -1.65656599685248     -1.66539444987909
  C   -1.59935166425577      1.10550257452527      0.06494333867231
  N   -2.32850312668742      1.96705031207277      0.38996618373470
  N   -0.91667866856683     -1.23789407271544      0.43600004572167
  H   -1.67873342439797     -1.81487257092169      0.10849793034194
  H   -1.05779349279072     -1.01249830563478      1.41174828760097
