14
Coordinates from ORCA-job run
  C   0.61842025687077      0.32284077235999     -0.43263674546375
  C   -0.61350669500277     -0.41213831314693      0.13853970541094
  Cl  0.17517314998419      1.87384752153249     -1.11607140139911
  H   -0.23583856535960     -1.36481691624753      0.52163019776368
  N   1.56526477224415      0.50627707543132      0.78640383887524
  O   1.84291690545435      1.63012132724446      1.14964541693337
  O   1.92460925215802     -0.55792459360583      1.26932321288724
  C   1.32129471181106     -0.49380475460181     -1.41142747317338
  N   1.86918383666599     -1.16967262010459     -2.20224505104710
  C   -1.56462985744050     -0.68852963962769     -0.95104356493883
  N   -2.37440638745998     -0.89153606137162     -1.77798561660155
  N   -1.13279937754633      0.35193630056607      1.24847723390414
  H   -1.69549117750413     -0.23465812363523      1.85064852689524
  H   -1.69819082487522      1.12905802520690      0.92974171995388
