14
Coordinates from ORCA-job run
  C   0.61098714296527      0.31115958193231     -0.36107881778824
  C   -0.75961687408622     -0.35619744559364      0.00507306671938
  Cl  0.43398078087734      2.03646249545747     -0.59123341692312
  H   -0.54981167977657     -1.42856005400107      0.07792272522443
  N   1.51197950764477      0.00982027837742      0.85886792725911
  O   1.74688106652471     -1.18415341719408      0.99993043374985
  O   1.84181975947206      0.92680803409026      1.58888080036649
  C   1.21901897591676     -0.31360837826490     -1.52415333170121
  N   1.68123192014197     -0.82821561383990     -2.47536954214723
  C   -1.67591195186124     -0.13652032434144     -1.11933260897421
  N   -2.40366270454461      0.05474207995514     -2.02042929948087
  N   -1.34727952202376      0.08062352780920      1.23627607375488
  H   -0.84325204036494     -0.25503482697368      2.04542975617131
  H   -1.46736438088554      1.08367406258692      1.27921623376944
