14
Coordinates from ORCA-job run
  C   0.72514000399764      0.19209399605946     -0.42638554717926
  C   -0.79350137215847      0.20039169824416     -0.14234355087983
  Cl  1.04117519147328      0.73045604725554     -2.07162123781359
  H   -1.14545866787615      1.20038478468493     -0.40701589373532
  N   1.39368215411525      1.19929009470185      0.52498676321727
  O   0.84023058888000      2.28755211667926      0.58878469206545
  O   2.40492365948645      0.83655042848177      1.10711362768647
  C   1.28166206037958     -1.13313826530379     -0.20144386133308
  N   1.63973510781420     -2.24074578796510     -0.03609269662561
  C   -0.99690259995231     -0.00107727838782      1.30563741735736
  N   -1.18511398116915     -0.22060776194588      2.44495007571303
  N   -1.43484764461223     -0.78022460484381     -0.98465014636303
  H   -2.41328975270640     -0.55916435560582     -1.11056309193122
  H   -1.35843474767170     -1.71076111205476     -0.59135655017866
