14
Coordinates from ORCA-job run
  C   0.58942709253984      0.32854880280034     -0.38553760372278
  C   -0.73548320984169     -0.39741040243576      0.03287739244426
  Cl  0.30870641388519      2.02578695338893     -0.70337127588494
  H   -0.46290364770522     -1.45089823227562      0.15666004579884
  N   1.51907283346538      0.14517818897483      0.83611389025818
  O   1.82356080116278     -1.02416746307347      1.03743937801002
  O   1.80378397542634      1.11728771280043      1.51172714766445
  C   1.21881356087632     -0.32216157106072     -1.52264700721659
  N   1.69033830371768     -0.86727119139411     -2.45199817167971
  C   -1.67669065130694     -0.29038078267953     -1.08743962457670
  N   -2.43156788255538     -0.19410961909209     -1.98134442812004
  N   -1.33467999120601      0.06629408565128      1.24891651560482
  H   -1.51221648265570      1.06201912064188      1.24313326235215
  H   -0.80216111580259     -0.19771560224637      2.06647047906805
