14
Coordinates from ORCA-job run
  C   0.62252361654362      0.37491647187043     -0.38398237161665
  C   -0.61890401867483     -0.41844562930562      0.07805230783618
  Cl  0.20169231137760      2.01738579100394     -0.82476193564770
  H   -0.25526432206196     -1.42365605264151      0.31108827824253
  N   1.57590225871301      0.35905502493020      0.84384054640291
  O   1.87088047051882      1.41141929572734      1.37070747499065
  O   1.91959260957393     -0.77092933303579      1.15993111537795
  C   1.30850507806985     -0.29636081206399     -1.47828598207546
  N   1.84123945828961     -0.85448676833903     -2.36550832310047
  C   -1.57944143736172     -0.51427935380420     -1.03387265390124
  N   -2.39800958610368     -0.58156392834234     -1.87435578595612
  N   -1.12190420446780      0.17807823670541      1.29316202496156
  H   -1.68891264791613     -0.48461376570672      1.80551442309679
  H   -1.67789958650032      1.00148082300188      1.09847088138906
