14
Coordinates from ORCA-job run
  C   0.66744894096167      0.10890532061063     -0.40668795318150
  C   -0.85603279460980      0.22356408621833     -0.07925638958726
  Cl  0.91593023696008      0.39306881499522     -2.13112792889325
  H   -1.15169561678299      1.21990088867214     -0.42272942105819
  N   1.39819092294352      1.21236918558204      0.37067697470714
  O   2.28393459492264      0.86503857007178      1.13824444871471
  O   0.98566372189447      2.34370344131574      0.16003179117221
  C   1.18289732678122     -1.19531769266041     -0.02635911504468
  N   1.49562431694326     -2.29325045621499      0.25602615983153
  C   -0.99647230610105      0.17165729243235      1.38139983229919
  N   -1.08241931626085      0.11047506677741      2.55100805225013
  N   -1.69805712735528     -0.76424989381001     -0.69000654275428
  H   -1.68907600365185     -0.69217809599594     -1.69831377603225
  H   -1.45593689664503     -1.70468652799429     -0.40290613242349
