14
Coordinates from ORCA-job run
  C   0.71954165002212      0.16939918821304     -0.44628321608932
  C   -0.79804521426922      0.16870197470550     -0.15577245796494
  Cl  1.01744173176536      0.57032278215986     -2.13347628731990
  H   -1.17290080818583      1.13365790699653     -0.50558151879716
  N   1.36783096141934      1.26963374967842      0.41147290107432
  O   2.38745350527188      0.98068019668204      1.01968067092519
  O   0.79018192666235      2.34677881511122      0.38354644823285
  C   1.30650308929226     -1.11863140733618     -0.11038730739953
  N   1.68780186542713     -2.20023513089453      0.14866742104959
  C   -0.99197450124348      0.09321467224410      1.30539423941099
  N   -1.17077186974923     -0.02131301054615      2.46155042650208
  N   -1.42026181890237     -0.89593188958729     -0.90521537993547
  H   -2.40423892878688     -0.70866288574965     -1.04283071241508
  H   -1.32056158872341     -1.78661496167694     -0.43276522727362
