14
Coordinates from ORCA-job run
  C   0.65538464837583      0.43294498429270     -0.23809089894261
  C   -0.62249027344511     -0.41664114988373     -0.06716048020702
  Cl  0.27339530185869      2.13692005387278     -0.38019910864327
  H   -0.28058638505298     -1.45401553676359     -0.00438597553718
  N   1.48393488371996      0.15818269914155      1.04824752911640
  O   1.79947396628901     -1.01735401866240      1.16434820968110
  O   1.72335012105267      1.08021020112655      1.79969833254939
  C   1.44835471102417     -0.01707897952993     -1.37270041242914
  N   2.06678470979904     -0.39443440481147     -2.29877678288682
  C   -1.46678396671203     -0.27273092669480     -1.26512487462822
  N   -2.19484637499450     -0.15261053149537     -2.17961705531733
  N   -1.24576576152627     -0.06516238175459      1.18710103776628
  H   -1.85774783459578     -0.80722564506448      1.50013429935166
  H   -1.78345774579269      0.78899563622679      1.10652618012675
