14
Coordinates from ORCA-job run
  C   0.71889668062413      0.30149583194026     -0.45218112723957
  C   -0.79174423670861      0.01433749935265     -0.34188168938907
  Cl  1.03193061541227      1.85567322189350     -1.23110625629764
  H   -1.11956091260495     -0.15375178460725     -1.37409567802947
  N   1.34829700552543      0.35976476113484      0.94923853759065
  O   0.59471296116477      0.65492151599413      1.86756527331727
  O   2.54906808845089      0.15026805190659      1.00976918591386
  C   1.36710602552206     -0.77455812785608     -1.18976762945249
  N   1.84439437903283     -1.63339059297440     -1.83418718469664
  C   -1.54840685452646      1.17144846821245      0.16432824211771
  N   -2.23543440706173      2.03769614271271      0.56053836164492
  N   -0.95456469001749     -1.21185127562843      0.40589472877069
  H   -1.06013362511249     -1.02798734133985      1.39482973380274
  H   -1.74556102970065     -1.74506637074112      0.07305550194705
