14
Coordinates from ORCA-job run
  C   0.72777385902961      0.27721693989351     -0.45136620139545
  C   -0.79170820741027      0.04102796089246     -0.34271101172708
  Cl  1.08958652997223      1.81688624634588     -1.23777549411103
  H   -1.12451149420556     -0.10578219616064     -1.37642678650228
  N   1.36087240643059      0.32044976640566      0.94969633374207
  O   0.60985919450453      0.59334922267886      1.87687631059719
  O   2.56305426937636      0.11703152012272      1.00069941941412
  C   1.34246907075262     -0.82221621452933     -1.18346501775635
  N   1.79734102666706     -1.69646958374244     -1.82338421946308
  C   -1.50469830141679      1.22074266066788      0.17494087672226
  N   -2.15596953033075      2.11003524637228      0.58073369808178
  N   -1.00077555504276     -1.18573920748241      0.39301103127381
  H   -1.81517833994606     -1.68093390174528      0.05760617535131
  H   -1.09811492838080     -1.00659845971916      1.38356488577272
