14
Coordinates from ORCA-job run
  C   0.69353438134833      0.30333797577143     -0.48662825489601
  C   -0.80538875347252     -0.01223115285588     -0.31262372955879
  Cl  0.93952052310789      1.83777858663662     -1.32655230884946
  H   -1.16774908061854     -0.20763763919793     -1.32817844156655
  N   1.37526027514401      0.42071671931015      0.88682723199632
  O   0.64589403448547      0.68162290392194      1.83455526270664
  O   2.58780539438779      0.28293268091566      0.89682585021258
  C   1.34068696377278     -0.78106366416861     -1.21318500330506
  N   1.82066866599760     -1.64723989844276     -1.84579736602836
  C   -1.56300527692737      1.14162083898728      0.19979117649608
  N   -2.24602641321128      2.00688788230488      0.60516061245647
  N   -0.91806213148673     -1.22664389257852      0.46354012966606
  H   -1.71613647291127     -1.77469038777861      0.17425706242676
  H   -0.98700210961617     -1.02439095282564      1.45200777824331
