14
Coordinates from ORCA-job run
  C   0.66312541143846      0.32905511658679     -0.35303394089978
  C   -0.66442430451239     -0.35004291261151      0.04770497281096
  Cl  0.43720775932142      2.03966160441547     -0.65720738186902
  H   -0.42125661218427     -1.40608867632944      0.19836433460684
  N   1.60275236319118      0.10364222714828      0.86424571273071
  O   1.81189246533054     -1.08046006516508      1.08613025097585
  O   2.01615200517205      1.06864558602766      1.47256404921386
  C   1.27200895005931     -0.32543249981920     -1.50198046818342
  N   1.74117300839763     -0.86454941560764     -2.43569421666782
  C   -1.62073314885057     -0.24279591170414     -1.06699906896388
  N   -2.43018616734184     -0.14114374730983     -1.91267449667547
  N   -1.10268008155139      0.20119996940655      1.30829242255539
  H   -1.55851310848758      1.09642196341457      1.18231175765577
  H   -1.74551853998256     -0.43011323845248      1.76797607271003
