14
Coordinates from ORCA-job run
  C   0.63153262461166      0.28530086137527     -0.48202264843288
  C   -0.89816217842253      0.05869168381043     -0.29651807648012
  Cl  0.94034750288908      1.73491738549125     -1.43876600864392
  H   -1.28035127452333     -0.01803909338863     -1.32178918980778
  N   1.35587749378083      0.45095733856759      0.87038860871212
  O   0.65306769491968      0.50883670647875      1.87147517494498
  O   2.57337348362735      0.50630374664373      0.81206307460025
  C   1.21458345935455     -0.88535590816775     -1.12514704594006
  N   1.60204991405918     -1.86365874401684     -1.64996638609903
  C   -1.51553807950718      1.25108058208168      0.29908308261719
  N   -2.04044270841702      2.19984953586237      0.74796462468508
  N   -1.28017846433993     -1.12761043934542      0.41583248002035
  H   -1.01236532230434     -1.97266864169903     -0.07003124097266
  H   -0.94279414572799     -1.12760501369340      1.36743355079647
