14
Coordinates from ORCA-job run
  C   0.66667593115834      0.39942622435559     -0.45347391351619
  C   -0.80567985284018     -0.03357757139952     -0.30948666511280
  Cl  0.80061641146107      2.02715388457751     -1.12667895045123
  H   -1.16474017023324     -0.14353229090280     -1.33899458954370
  N   1.35314832318217      0.41733924281504      0.92258340869918
  O   2.57229359525757      0.36395388361512      0.91385006904220
  O   0.61758698894740      0.52399022875714      1.89506340262224
  C   1.37777924324034     -0.55569821342142     -1.29287502871354
  N   1.90749563638487     -1.31564167445698     -2.01581648441682
  C   -1.63382895898155      1.00518417179065      0.32549555059777
  N   -2.37036332497243      1.77347435584220      0.82229678433993
  N   -0.82874236093542     -1.32835319927836      0.33310732259854
  H   -1.58994207795373     -1.89629475131115     -0.01179716834721
  H   -0.90229938371522     -1.23742429098304      1.33772626220162
