14
Coordinates from ORCA-job run
  C   0.63379845402635      0.34673689311396     -0.51762485990576
  C   -0.89445273611072      0.01932983952321     -0.30762743390049
  Cl  0.81657490394387      1.76312379224510     -1.53043798739051
  H   -1.31781530827057      0.04617741281612     -1.31759394495768
  N   1.24638391249816      0.59104151338911      0.87637788482479
  O   1.50726153527441      1.73148328629281      1.21006792546210
  O   1.34498135136782     -0.43089635520600      1.54870043470371
  C   1.29609740509536     -0.80747086732494     -1.10406648454667
  N   1.76303518258712     -1.75990427368726     -1.61143176196809
  C   -1.48588479058042      1.12048975083578      0.46350439020359
  N   -1.94895045565901      1.98928581914453      1.10337696027655
  N   -1.21833133944829     -1.24157596795555      0.29108073145304
  H   -0.95092017885676     -2.01438728335868     -0.30510227369208
  H   -0.79177793586733     -1.35243355982819      1.20177641943750
