14
Coordinates from ORCA-job run
  C   0.65722295847978      0.29038015654597     -0.44509160355961
  C   -0.88212287432013      0.08208736678956     -0.33691757731676
  Cl  1.02987604473004      1.76218116810235     -1.34335437395776
  H   -1.21748586050238      0.03993730523835     -1.38038953907352
  N   1.32086771312969      0.40526449914633      0.94326902335283
  O   0.57351539807849      0.44148823893452      1.91263486681529
  O   2.54030899014274      0.44612011797628      0.94205748259446
  C   1.25311154885926     -0.87015440705876     -1.09505102322638
  N   1.65009639046339     -1.83980499682583     -1.62876196289305
  C   -1.51014927564940      1.26565520043690      0.26495946720266
  N   -2.04493157845246      2.19924561897535      0.73362020609088
  N   -1.31440554339050     -1.11827120599524      0.32186674882725
  H   -1.02054868853833     -1.15083814884005      1.28736908007871
  H   -1.03435522303017     -1.95229091342572     -0.17621079493498
