14
Coordinates from ORCA-job run
  C   0.65759611158694      0.13285817041590     -0.41319577561670
  C   -0.86618449154971      0.18756519437699     -0.07314813442274
  Cl  0.88012553434780      0.41168971865960     -2.14230464730322
  H   -1.20626988395804      1.16805878070864     -0.42107349317244
  N   1.34937362048515      1.27254223320840      0.34745336144644
  O   2.25781861965994      0.96943029042135      1.10731271180766
  O   0.88746413103818      2.38369585892588      0.13265980409980
  C   1.23009052074857     -1.14537077719331     -0.02669637138790
  N   1.59374965372338     -2.22591819128056      0.26149374029746
  C   -0.99051198179997      0.14152613332876      1.38913355689612
  N   -1.06112538605007      0.08607139232567      2.56004286098850
  N   -1.67238707839355     -0.83916898895141     -0.66881625162657
  H   -1.38845235364597     -1.76617114735077     -0.37596827613723
  H   -1.67128701619265     -0.77580866759515     -1.67789308586919
