14
Coordinates from ORCA-job run
  C   0.65749405624793      0.34992574011613     -0.48429239005169
  C   -0.88357567239359      0.04657603115524     -0.33821889195489
  Cl  0.90217165967391      1.79316138004365     -1.44462854708155
  H   -1.27051884407735      0.11695501287226     -1.36057143352762
  N   1.22489763217644      0.53864214017655      0.93735973354203
  O   1.27483843028442     -0.50507096430167      1.58103061952659
  O   1.50114333982687      1.66178641607316      1.31445802753824
  C   1.31918141427951     -0.79807631265593     -1.08316745088132
  N   1.78846332940042     -1.74294058015702     -1.60263578363827
  C   -1.47872872278840      1.13382191674369      0.44960004397357
  N   -1.94252800975085      1.99122450062831      1.10418375643660
  N   -1.25298212016291     -1.22633018471681      0.20552374289193
  H   -0.97811631924760     -1.98465833961009     -0.40578895164490
  H   -0.86274017346880     -1.37501675636747      1.12714752487127
