14
Coordinates from ORCA-job run
  C   0.72841306176369      0.33203851067347     -0.48718732747418
  C   -0.78152855605808      0.00405700398094     -0.36596109469588
  Cl  0.95940686404735      1.84845244978561     -1.34300095940462
  H   -1.13818119996726     -0.07324656613708     -1.39823191558789
  N   1.28167565284243      0.45257911102071      0.94871221814870
  O   1.75953767542607     -0.57411137529394      1.41528082197721
  O   1.12173983689219      1.52534830365784      1.50815227479626
  C   1.41996809424970     -0.75296549245341     -1.16638170629901
  N   1.95901474649969     -1.59272812412236     -1.78694196002340
  C   -1.50615836653045      1.11409264549029      0.28017770284342
  N   -2.16211128875318      1.92173279773962      0.82654504874007
  N   -0.93687247419847     -1.28077698877173      0.27269337314643
  H   -1.81492622365058     -1.70992664166573      0.01337612228680
  H   -0.88997782256310     -1.21554563390422      1.28176740154608
