14
Coordinates from ORCA-job run
  C   0.66741909691242      0.37433817939863     -0.29684404856050
  C   -0.62670589311999     -0.41527497141110     -0.00345767854846
  Cl  0.31396324352365      2.02362673691367     -0.77068675760303
  H   -0.30100701301380     -1.42468095807642      0.26499718232686
  N   1.45904453824879      0.34112572267247      1.03987272130741
  O   1.75539532840754     -0.79381776446392      1.38507003881687
  O   1.69100701813931      1.38651296227841      1.61050655999412
  C   1.48153996761106     -0.29132362976851     -1.30332537817365
  N   2.11760366860871     -0.84492890896826     -2.12274008217213
  C   -1.43631554069848     -0.49548432579904     -1.23108080126699
  N   -2.13582323193730     -0.54894362962067     -2.17380564162423
  N   -1.27760966120317      0.17414944072493      1.14265903717898
  H   -1.79910666709279      1.00322242977301      0.88604598292848
  H   -1.90940485438595     -0.48852128365320      1.57278886539628
