14
Coordinates from ORCA-job run
  C   0.63108483362942      0.47583889447807     -0.22201452355410
  C   -0.62516903780133     -0.41001778496520     -0.07791711328873
  Cl  0.23678862551915      2.17432366665318     -0.04783602231632
  H   -0.27793600569196     -1.43787336563441     -0.21881609965368
  N   1.57437011279027      0.00771242050695      0.92127235137543
  O   1.87956017816146      0.79744426467044      1.79033343180192
  O   1.89969005545635     -1.16593078283512      0.81366412664005
  C   1.31517682717323      0.23028429598474     -1.48310861351936
  N   1.84174211173117      0.02154821483000     -2.51355238938330
  C   -1.57641196897114     -0.08458789910711     -1.15383329501314
  N   -2.38507431690943      0.17194084278669     -1.96689646582687
  N   -1.13009540991240     -0.27953099244960      1.26855683394040
  H   -1.67196515524766      0.56848414799779      1.37994405557261
  H   -1.71176084992712     -1.07163592291643      1.50820372322507
