14
Coordinates from ORCA-job run
  C   0.68818504439660      0.35529025885672     -0.27223821747063
  C   -0.65547064987641     -0.36749973632615     -0.03349475072107
  Cl  0.44899559973776      2.06809425317126     -0.55228036637694
  H   -0.40091349214908     -1.42160480967707      0.11174194782184
  N   1.49843320911923      0.11618833826774      1.03191960441724
  O   1.81608202007669      1.07194940766687      1.70858195927105
  O   1.71711575667942     -1.06842084893551      1.24139927454263
  C   1.43295457047831     -0.24967900590196     -1.36691763540218
  N   2.01310761957759     -0.74878170351424     -2.25961018405646
  C   -1.49357393306453     -0.24809702690543     -1.23842115969335
  N   -2.21712098694048     -0.13661574465871     -2.15755243338381
  N   -1.23807137390693      0.13385618488307      1.18898075707262
  H   -1.90906190228422     -0.52631015693291      1.55935232714668
  H   -1.70166148184395      1.02163059000632      1.04053887683237
