14
Coordinates from ORCA-job run
  C   0.61857743262679      0.28666019222755     -0.45807825894326
  C   -0.62102907214977     -0.38870528581272      0.16840750654581
  Cl  0.20243112066905      1.81758959766646     -1.20133757948201
  H   -0.26117454088214     -1.33355459227229      0.58648089722813
  N   1.59333047403085      0.49778158331913      0.73364300974832
  O   1.90349741446207      1.62878833486515      1.04430591997979
  O   1.93717765946337     -0.55380150560216      1.25416628200760
  C   1.27826428678655     -0.59109356873816     -1.41358782362167
  N   1.78658900878700     -1.31529815368883     -2.18795956876031
  C   -1.59981110228864     -0.68687301372936     -0.89053736886586
  N   -2.42820105024596     -0.90271434878155     -1.69552891802136
  N   -1.09841591999351      0.43741284647213      1.25205904331893
  H   -1.65504519387158      1.21117739496827      0.91096936522834
  H   -1.65619051739407     -0.10736948089361      1.89599749363756
