14
Coordinates from ORCA-job run
  C   0.63863495918024      0.47202122177676     -0.20666680069897
  C   -0.64671282573689     -0.37543537688329     -0.08542739094959
  Cl  0.32981706967617      2.15477629110175      0.17162524181033
  H   -0.35375214953745     -1.39426896392558     -0.35556544537137
  N   1.61967612896291     -0.15465409957379      0.82283713334631
  O   1.88638421488850     -1.32096668437046      0.57056162763398
  O   2.00696525245852      0.52255556453135      1.75201092795072
  C   1.24329711230020      0.34025587906546     -1.52414884567335
  N   1.70734622922457      0.22901297818928     -2.59873296958869
  C   -1.63941789003959      0.10354859397154     -1.06197167563090
  N   -2.48027128166126      0.48305365600461     -1.78990416474429
  N   -1.07122890749226     -0.37386992759222      1.29466888286348
  H   -1.56710014341125      0.47739838380207      1.52822833162340
  H   -1.67363776881239     -1.16442751609749      1.48248514742897
