14
Coordinates from ORCA-job run
  C   0.66117307284536      0.10804292173777     -0.41432181232337
  C   -0.86038319992555      0.21010511223403     -0.07634420766190
  Cl  0.89202415709568      0.35554582450381     -2.14714398419130
  H   -1.17265383876882      1.19489927337255     -0.43797997021682
  N   1.38376069283192      1.23910508623709      0.33058171196325
  O   0.95437931016328      2.35961265151753      0.09766836771972
  O   2.28150903887702      0.92178321808181      1.09734906805278
  C   1.19861093093422     -1.17961058233715     -0.00926804626957
  N   1.53485154101936     -2.26498686729600      0.29363216161509
  C   -0.98678436294141      0.18924464496831      1.38648043208304
  N   -1.06013447756933      0.15503930519180      2.55801743872269
  N   -1.69508184064613     -0.80171240419487     -0.65776124886595
  H   -1.43748903315727     -1.73229858164448     -0.35240431807484
  H   -1.69378199075834     -0.75176960237219     -1.66750559255281
