15

C	0.0	0.0	0.0
C	-0.231943	0.187542	-1.549183
Br	1.935651	0.0	0.0
H	0.508954	0.948873	-1.811381
C	-0.48432	1.138945	0.74778
N	-0.57291	2.152973	1.347472
N	-0.419862	-1.276516	0.644734
O	-0.447981	-2.286034	-0.06139
O	-0.483446	-1.266191	1.874942
N	-1.498627	0.731982	-2.018322
H	-1.443691	0.784892	-3.035118
H	-2.251407	0.117862	-1.739789
C	0.173399	-1.016094	-2.309715
N	0.408569	-1.854052	-3.101051
H	-1.918062	0.0	0.0
