15

C	0.0	0.0	0.0
C	-0.220289	0.07237	-1.563614
Br	1.93588	0.0	0.0
H	0.319649	0.984837	-1.840557
C	-0.484183	1.174947	0.689798
N	-0.604689	2.219253	1.229286
N	-0.497575	-1.235897	0.637386
O	-0.532674	-1.245489	1.875448
O	-0.54181	-2.24904	-0.082973
N	-1.572937	0.227241	-2.088628
H	-2.122889	-0.577568	-1.8092
H	-1.490828	0.21989	-3.105287
C	0.479415	-1.033294	-2.260176
N	0.922944	-1.817166	-3.017083
H	-1.878684	0.0	0.0
