15

C	0.0	0.0	0.0
C	-0.232465	-0.213885	-1.583398
Br	1.93457	0.0	0.0
H	0.264325	0.671918	-1.995502
C	-0.5239	1.263595	0.462729
N	-0.643257	2.391754	0.798891
N	-0.444322	-1.123105	0.863394
O	-0.506997	-0.908872	2.077022
O	-0.481704	-2.237095	0.330349
N	-1.544994	-0.291412	-2.192238
H	-2.019319	-1.090371	-1.782422
H	-2.076897	0.510927	-1.869131
C	0.514027	-1.379041	-2.089555
N	1.064275	-2.272101	-2.618434
H	-1.975498	0.0	0.0
