13

C	-0.482328	0.008489	-1.4407
C	0.0	0.0	0.0
F	-0.134598	-1.174877	-2.077642
H	1.09625	0.0	0.0
H	-0.402395	-0.907977	0.465577
C	-1.958193	0.116693	-1.514657
N	-3.132726	0.132811	-1.543435
C	0.101511	1.134925	-2.194701
N	0.517498	2.024394	-2.837905
N	-0.460365	1.245597	0.614851
H	0.347885	1.6796	1.041643
H	-1.158197	1.085875	1.326721
F	2.611499	0.0	0.0
