13

C	-0.457311	0.045904	-1.432507
C	0.0	0.0	0.0
F	-1.86282	0.015609	-1.544206
H	1.094672	0.0	0.0
H	-0.368946	-0.943785	0.424889
C	-0.012523	1.285467	-2.096278
N	0.330493	2.278432	-2.619323
C	0.036518	-1.123512	-2.186261
N	0.350731	-2.086175	-2.780053
N	-0.467028	1.19976	0.684024
H	0.299835	1.535289	1.251792
H	-1.264272	1.017908	1.277311
F	2.594606	0.0	0.0
