13

C	-0.479299	-0.06111	-1.425482
C	0.0	0.0	0.0
F	-1.885452	-0.017523	-1.5131
H	1.094672	0.0	0.0
H	-0.366156	0.947784	0.418452
C	0.016524	1.092179	-2.202327
N	0.34751	2.038616	-2.812684
C	-0.058236	-1.313252	-2.080744
N	0.270276	-2.313065	-2.599787
N	-0.460339	-1.191292	0.705603
H	-1.22815	-0.992128	1.330812
H	0.324557	-1.53206	1.246076
F	2.596739	0.0	0.0
