13

C	-0.465751	-0.04771	-1.444096
C	0.0	0.0	0.0
F	0.088633	0.991109	-2.167344
H	1.098982	0.0	0.0
H	-0.366361	-0.904295	0.501551
C	-0.072574	-1.321198	-2.082188
N	0.219565	-2.342483	-2.581182
C	-1.937736	0.083367	-1.556278
N	-3.106045	0.169143	-1.641667
N	-0.488766	1.241251	0.597148
H	0.32662	1.746935	0.918091
H	-1.076496	1.057685	1.397688
F	2.611016	0.0	0.0
