13

C	-0.46416	-0.042533	-1.43094
C	0.0	0.0	0.0
F	-1.867782	0.001608	-1.534832
H	1.092803	0.0	0.0
H	-0.368991	0.942652	0.429275
C	0.040489	1.11838	-2.191218
N	0.359461	2.062	-2.810928
C	-0.034899	-1.286441	-2.097977
N	0.286108	-2.250722	-2.684598
N	-0.464249	-1.202206	0.682048
H	-1.262591	-1.02453	1.276354
H	0.305146	-1.536721	1.248987
F	2.595841	0.0	0.0
