10
Coordinates from ORCA-job run
  C   -1.06888862607554     -0.24889664705871     -0.34273053965593
  C   0.18620225270633     -0.13541850190245      0.49118236127697
  F   -1.70451376844574      0.97724542746830     -0.43884084717226
  H   -0.08084918966738      0.36417108743461      1.42590522407821
  H   -1.76889123401650     -0.95360487071625      0.11619173049153
  H   -0.83498925489281     -0.58390003419880     -1.35802379531651
  H   0.51281508911517     -1.15628293299078      0.74891444100121
  N   1.19756963498066      0.66645558665185     -0.18922812502394
  H   1.91661435524962      0.95114487681881      0.46214700814008
  H   1.64493074104618      0.12008600849341     -0.91451745781937
