10
Coordinates from ORCA-job run
  C   -1.07222538552490     -0.19382738600025     -0.29775890920299
  C   0.24187377023247     -0.32116213784956      0.42775697593724
  F   -1.42864594605738      1.15514586049597     -0.35259237341404
  H   0.11189875597447      0.07199161588639      1.44729269106646
  H   -0.97697049348846     -0.55093653542410     -1.32468989974325
  H   -1.87291077334109     -0.72663125881363      0.22076325633991
  H   0.48502310699677     -1.38521285107898      0.50995049115421
  N   1.28584827619087      0.34379126085021     -0.34533025983297
  H   2.17316169250409      0.27969255946796      0.13673387258830
  H   1.05394699651318      1.32614887246599     -0.42212584489286
