10
Coordinates from ORCA-job run
  C   -0.98869111833743     -0.20837601645078     -0.31832569405767
  C   0.23823100410385     -0.27902907466406      0.56636859439239
  F   -1.36739082882771      1.12658897460749     -0.46052586591024
  H   0.51068246655784     -1.32948004119442      0.71154319589853
  H   -1.83522907765239     -0.74989873555356      0.11393046077967
  H   -0.77815555910599     -0.59498729407259     -1.31995429323314
  H   -0.02001253665650      0.12394899438807      1.54972977471066
  N   1.40039791330405      0.44720320120615      0.07122393432049
  H   1.13604582576682      1.40912976115102     -0.10119188678677
  H   1.70412191084747      0.05690023058268     -0.81279822011391
