10
Coordinates from ORCA-job run
  C   -1.02353456389871     -0.10513472445769     -0.25317276455934
  C   0.23694362706694     -0.27612554039934      0.56838879249241
  F   -0.79326035486842     -0.58966631052614     -1.54079823045627
  H   0.47059806669257     -1.34295097572637      0.62647036551357
  H   -1.29566714507167      0.95042651587632     -0.34689960555442
  H   -1.86390988874121     -0.66511817160936      0.16743380224253
  H   0.04330746973091      0.06602548598406      1.59024392704187
  N   1.41046999180107      0.41617981756439      0.05191537813269
  H   1.56412900709221      0.12923361673628     -0.90670494756127
  H   1.24892379019631      1.41613028655784      0.04312328270822
