15

C	-0.514197	0.032498	-1.436768
C	0.0	0.0	0.0
F	0.065093	1.023852	-2.196954
H	1.090732	0.0	0.0
C	-0.189416	-1.257063	-2.084481
N	0.050316	-2.229013	-2.69877
C	-1.983721	0.200571	-1.473707
N	-3.154385	0.300403	-1.498038
N	-0.343153	-1.240131	0.62461
H	-1.077261	-1.111465	1.308813
H	0.490091	-1.574827	1.103743
N	-0.439076	1.170777	0.736973
O	-0.697573	2.205498	0.101146
O	-0.420384	1.096797	1.9764
H	2.441141	0.0	0.0
