15

C	-0.458407	0.003434	-1.443833
C	0.0	0.0	0.0
F	-1.853125	-0.085287	-1.53449
H	1.091982	0.0	0.0
C	-0.01527	1.150709	-2.254568
N	0.359547	1.999454	-2.974206
C	0.072411	-1.219628	-2.083955
N	0.459356	-2.190102	-2.619748
N	-0.33886	-1.185113	0.709337
H	-1.108388	-1.704934	0.31523
H	0.493258	-1.758063	0.805989
N	-0.459063	1.210775	0.697227
O	-0.339793	1.234252	1.921218
O	-0.830934	2.175254	0.009053
H	2.483768	0.0	0.0
