15

C	-0.462828	0.141888	-1.453397
C	0.0	0.0	0.0
F	-0.11517	-1.022279	-2.113662
H	1.100742	0.0	0.0
C	-1.931527	0.274077	-1.533175
N	-3.101907	0.350376	-1.604664
C	0.1742	1.249637	-2.192927
N	0.635738	2.040442	-2.92798
N	-0.376234	-1.260253	0.55482
H	-1.008871	-1.114393	1.330976
H	0.473522	-1.68657	0.919877
N	-0.422544	1.135671	0.764589
O	-0.442644	1.029939	2.005029
O	-0.621166	2.205561	0.150156
H	2.396106	0.0	0.0
