16

C	0.0	0.0	0.0
C	-0.470822	-0.119156	-1.458811
F	1.402242	0.0	0.0
H	-0.247993	-1.151884	-1.761596
C	-0.369451	1.311367	0.575411
N	-0.588384	2.364799	1.044839
N	-0.55333	-1.031684	0.774867
H	-0.304892	-1.949249	0.432339
H	-0.369468	-0.935944	1.762855
C	0.332731	0.758408	-2.315936
N	0.941519	1.461233	-3.033099
C	-1.96769	0.165969	-1.610643
H	-2.191222	1.209099	-1.384053
H	-2.281268	-0.033811	-2.636709
H	-2.57706	-0.434999	-0.935114
Br	-5.183168	0.0	0.0
