16

C	0.0	0.0	0.0
C	-0.384563	0.034881	-1.519958
F	1.382554	0.0	0.0
H	0.597298	0.145544	-1.995402
C	-0.336744	1.27533	0.692885
N	-0.511289	2.276448	1.282829
N	-0.478789	-1.166578	0.653922
H	-1.50328	-1.146368	0.565439
H	-0.263176	-1.099515	1.643517
C	-1.122516	1.229379	-1.942066
N	-1.570527	2.203398	-2.422859
C	-1.016702	-1.248186	-2.063927
H	-1.060233	-1.181255	-3.154384
H	-2.028001	-1.360994	-1.675939
H	-0.410993	-2.10882	-1.780296
Br	-3.609011	0.0	0.0
