16

C	0.0	0.0	0.0
C	-0.340391	-0.309403	-1.518355
F	1.387485	0.0	0.0
H	0.644491	-0.318639	-1.998704
C	-0.377993	1.38306	0.370766
N	-0.565838	2.497841	0.686326
N	-0.479047	-0.88867	0.997234
H	-0.329962	-1.844663	0.695269
H	-1.492703	-0.736993	1.063788
C	-1.070613	0.758772	-2.204382
N	-1.515288	1.612034	-2.878537
C	-0.997068	-1.671626	-1.743783
H	-1.160391	-1.819702	-2.813882
H	-0.342908	-2.475653	-1.393642
H	-1.959396	-1.703488	-1.233428
Br	-3.59513	0.0	0.0
