16

C	0.0	0.0	0.0
C	-0.362144	-0.190172	-1.489768
F	1.402121	0.0	0.0
H	0.015221	-1.194117	-1.732925
C	-0.389141	1.342332	0.477591
N	-0.645991	2.425705	0.849054
N	-0.525053	-0.999582	0.853407
H	-1.350304	-0.684242	1.350425
H	-0.757932	-1.84082	0.342103
C	0.390751	0.754572	-2.321082
N	0.959124	1.509387	-3.017976
C	-1.857102	-0.098266	-1.773001
H	-2.437058	-0.795252	-1.170545
H	-2.250729	0.889015	-1.534362
H	-2.044721	-0.304904	-2.828121
Br	-4.759097	0.0	0.0
