16

C	0.0	0.0	0.0
C	-0.325229	-0.235164	-1.498547
F	1.376914	0.0	0.0
H	0.108369	-1.225402	-1.68715
C	-0.384239	1.369087	0.434009
N	-0.632437	2.441652	0.843568
N	-0.531335	-1.049688	0.799788
H	-1.541591	-1.089293	0.650548
H	-0.387898	-0.840626	1.782579
C	0.445256	0.730021	-2.292147
N	1.020161	1.49938	-2.967731
C	-1.786612	-0.207454	-1.924112
H	-2.270946	0.729347	-1.655789
H	-1.840243	-0.339587	-3.006609
H	-2.369132	-0.992485	-1.447722
Br	-4.509382	0.0	0.0
