16

C	0.0	0.0	0.0
C	-0.387199	-0.015774	-1.521167
F	1.38202	0.0	0.0
H	0.59281	0.087746	-2.00218
C	-0.33196	1.300472	0.650606
N	-0.468124	2.314006	1.22942
N	-0.477313	-1.142257	0.69564
H	-0.253501	-1.040885	1.680274
H	-1.502366	-1.119981	0.612565
C	-1.133112	1.16343	-1.972191
N	-1.571087	2.130551	-2.475024
C	-1.007284	-1.323099	-2.019193
H	-1.085616	-1.280167	-3.109167
H	-0.3678	-2.161173	-1.737927
H	-2.0033	-1.45183	-1.598416
Br	-3.593323	0.0	0.0
