16

C	0.0	0.0	0.0
C	-0.457526	-0.032344	-1.473563
F	1.38622	0.0	0.0
H	-1.557525	-0.075489	-1.422742
C	-0.393343	1.290509	0.614664
N	-0.572539	2.349656	1.089471
N	-0.457917	-1.073178	0.820182
H	-0.288376	-1.949901	0.335559
H	-1.471874	-0.960095	0.918995
C	0.040271	-1.273526	-2.066386
N	0.447561	-2.266571	-2.544464
C	-0.001006	1.180222	-2.284893
H	1.085995	1.279722	-2.258516
H	-0.321021	1.080065	-3.323682
H	-0.454059	2.08461	-1.874415
Br	-3.642982	0.0	0.0
