16

C	0.0	0.0	0.0
C	-0.380754	0.062004	-1.519978
F	1.382186	0.0	0.0
H	0.593834	0.248825	-1.985931
C	-0.340882	1.269552	0.704348
N	-0.518723	2.271206	1.29225
N	-0.474746	-1.17617	0.634714
H	-1.498293	-1.157194	0.542003
H	-0.262214	-1.121755	1.625663
C	-1.192307	1.211918	-1.937263
N	-1.674325	2.12131	-2.50466
C	-0.935757	-1.241557	-2.096466
H	-0.273759	-2.071522	-1.852817
H	-1.931062	-1.422601	-1.696707
H	-1.005996	-1.141032	-3.182355
Br	-3.545754	0.0	0.0
