13
Coordinates from ORCA-job run
  C   -0.36911714836821      0.18829993114808     -0.17050444473711
  C   1.01657512460781     -0.46511681805403     -0.18034012353212
  F   -0.74181082049654      0.39405109662353     -1.49086778256435
  H   0.93081693025631     -1.42648218034000     -0.69526438788201
  H   1.34264900033306     -0.65580935585065      0.84596339323011
  C   -1.40857624530677     -0.69958165147350      0.48713693815915
  H   -1.44882178272471     -1.65474935759403     -0.04007810587819
  H   -2.38699387238944     -0.22198419438236      0.42495313668484
  H   -1.16518590617323     -0.87268441635442      1.53688825763159
  C   -0.30913893736220      1.50141617217617      0.49660103578331
  N   -0.27323826867861      2.52773782258627      1.06567154028115
  C   2.00779361067124      0.36068777497884     -0.86552121805031
  N   2.80404831563131      1.02421517653609     -1.41463823912606
