13
Coordinates from ORCA-job run
  C   -0.49395633032007      0.26505690367437     -0.33413814294963
  C   0.87866662425579     -0.17126568843442     -0.86315604598227
  F   -1.33030300680695      0.30779053335626     -1.44441207557561
  H   1.21379589472143      0.54567379618073     -1.61710249480699
  H   0.75474419765361     -1.14207783269320     -1.35164481867192
  C   -1.08007871097822     -0.69948931083563      0.67627206494804
  H   -2.08327339404602     -0.37211057511852      0.95137556327664
  H   -1.14206913975739     -1.69276704659734      0.22681801200038
  H   -0.46116486047812     -0.74600816852076      1.57348103243887
  C   -0.41269311495876      1.62858056457106      0.21969973516999
  N   -0.34279295288264      2.71054363770036      0.67023991589546
  C   1.86402193463905     -0.27385571584921      0.20760203056498
  N   2.63610285895828     -0.36007109743370      1.08696522369206
