13
Coordinates from ORCA-job run
  C   -0.40230121371154      0.33143579823635     -0.24373465736057
  C   1.13256758139843      0.32266514030331     -0.23100700061089
  F   -0.80830568340718      0.15721531768039     -1.55925985735137
  H   1.49244047567186      1.09330087591071     -0.91792111742907
  H   1.49676762243557      0.56707830792975      0.77089542903114
  C   -1.02626054147768     -0.76068958995656      0.60148056093149
  H   -0.69982556357675     -1.73317581770047      0.23006850069875
  H   -2.11251527038260     -0.69938681627735      0.52856332726446
  H   -0.73368856534361     -0.65467533401069      1.64783304794087
  C   -0.85778235689417      1.66313979762112      0.19830909844850
  N   -1.20420747791138      2.71926679285620      0.57624377329749
  C   1.65713427525688     -0.97736457294134     -0.64164435265208
  N   2.06697671794218     -2.02980989965141     -0.95882675220873
