13
Coordinates from ORCA-job run
  C   -0.32735984533705      0.45305764179007     -0.13616691673624
  C   1.18066102457820      0.16651392847166     -0.13922442227114
  F   -0.70042793840347      0.73037304128363     -1.44363621476490
  H   1.53842793013339      0.04895146733781      0.88754816062620
  H   1.69821194997093      1.02229994477878     -0.58075954268648
  C   -1.16748620116899     -0.70226004961126      0.36985911185588
  H   -2.22246880495454     -0.43020388980343      0.32370107848530
  H   -0.99764637652864     -1.57471993856852     -0.26284072720077
  H   -0.90817064435162     -0.94590445726626      1.40191167093043
  C   -0.56347307044561      1.66565466172066      0.67000518337544
  N   -0.73897090471366      2.61387206297177      1.33949182235701
  C   1.48792198631846     -1.03634141282955     -0.90887900265737
  N   1.72078089490259     -2.01029300027535     -1.52001020131336
