13
Coordinates from ORCA-job run
  C   -0.37107232283500      0.21892492771503     -0.12460337609828
  C   0.99391747283678     -0.45608640703234     -0.29091604199034
  F   -0.79233148778167      0.62241680872147     -1.38382299764428
  H   0.85907198334673     -1.33190425619318     -0.93224556811283
  H   1.35763927357651     -0.79875406469834      0.68191985351406
  C   -1.40681707189196     -0.73244671069957      0.44386293014247
  H   -1.49465735389009     -1.60050076619005     -0.21226925339288
  H   -1.12586788046046     -1.06053924378230      1.44610518730246
  H   -2.37330645496741     -0.23003678018176      0.49421616980607
  C   -0.24689593769471      1.42056706889979      0.71998839377493
  N   -0.15607102247972      2.35847134648502      1.42031696135693
  C   1.97994629134704      0.43680242274240     -0.89456169577868
  N   2.77744451089395      1.15508565421385     -1.36799056287967
