13
Coordinates from ORCA-job run
  C   -0.48262697069884      0.25123403556313     -0.36154632633176
  C   0.89291825254678     -0.23979388922074     -0.83171948419889
  F   -1.29486743264302      0.23585099964992     -1.49009148167522
  H   0.76132645259710     -1.23664198806080     -1.26251809599696
  H   1.25754025777817      0.42311220888042     -1.62072288797277
  C   -1.10588538028326     -0.63674985833592      0.69568867798866
  H   -2.10943502926396     -0.27723273017830      0.92582847032447
  H   -1.17408431761034     -1.65640466589065      0.31086388453677
  H   -0.50746713034208     -0.63335199295966      1.60783895730574
  C   -0.38927218676105      1.64592216558869      0.10616515229796
  N   -0.30894934568842      2.75270657103813      0.48947115114246
  C   1.85375152422828     -0.29276293824222      0.26461820522646
  N   2.60705130614061     -0.33688791783201      1.16312377735310
