13
Coordinates from ORCA-job run
  C   -0.50725911815229      0.23862320697138     -0.33305730313630
  C   0.86390816711168     -0.18406696030136     -0.87647778184325
  F   -1.36911375442499      0.21655324471047     -1.42454509513524
  H   1.16376432739664      0.51087071560172     -1.66519451709673
  H   0.75417815513661     -1.17630427226549     -1.32343888874644
  C   -1.04604320481478     -0.69944185261086      0.72749958284182
  H   -0.41207250257974     -0.68753323003368      1.61523128161468
  H   -2.05435865267645     -0.39022928648634      1.00518270264023
  H   -1.08466564605417     -1.71293183053924      0.32295342516683
  C   -0.44980577476204      1.62427579937153      0.16556636543356
  N   -0.39922283777546      2.72483863167965      0.57141782036285
  C   1.87476377827863     -0.21827158328245      0.17481205809337
  N   2.66792706331634     -0.24738258281530      1.03905034980461
