13
Coordinates from ORCA-job run
  C   -0.50173591828030      0.25320864489301     -0.33194677130199
  C   0.87287933434352     -0.16564782635194     -0.87001595472966
  F   -1.35006362005732      0.26854659763614     -1.43350760823172
  H   1.18700786212048      0.54754760471599     -1.63657414718486
  H   0.76218513524536     -1.14491550884744     -1.34468105149553
  C   -1.06053379442349     -0.70912993949619      0.69584371472988
  H   -1.11176483274996     -1.70810436730783      0.25781077620301
  H   -2.06566289400788     -0.39494686399769      0.97923870144895
  H   -0.43051168115664     -0.73594784636912      1.58604479663372
  C   -0.43815040860792      1.62444445033242      0.20500331175760
  N   -0.38665228561592      2.71413025564400      0.63914939483174
  C   1.87118666152633     -0.23738181416289      0.19130318215560
  N   2.65281644166377     -0.31180338668846      1.06333165518324
