16

C	-0.423122	-0.033405	-1.466174
C	0.0	0.0	0.0
F	-1.795344	-0.334359	-1.559475
H	1.090722	0.0	0.0
H	0.108176	-0.882908	-1.907943
C	-0.141471	1.23083	-2.239329
H	-0.382454	1.082222	-3.294594
H	0.913393	1.492846	-2.135061
H	-0.748895	2.053281	-1.856845
N	-0.484886	-1.087678	0.790668
H	-1.358912	-1.446047	0.43323
H	0.218206	-1.810941	0.834352
N	-0.514191	1.292825	0.578513
O	-1.679751	1.299569	0.972807
O	0.221489	2.278306	0.534824
Br	3.514624	0.0	0.0
