16

C	-0.408621	-0.045574	-1.466601
C	0.0	0.0	0.0
F	-1.78068	-0.338602	-1.571931
H	1.090685	0.0	0.0
H	0.121821	-0.904217	-1.889581
C	-0.107743	1.206248	-2.25099
H	0.945826	1.464216	-2.128547
H	-0.325639	1.042311	-3.308336
H	-0.718828	2.036101	-1.893356
N	-0.477204	-1.092357	0.790434
H	-1.338317	-1.469692	0.42275
H	0.23958	-1.80125	0.849713
N	-0.520388	1.287607	0.579976
O	-1.679509	1.283464	0.994892
O	0.209758	2.276135	0.533089
Br	3.493698	0.0	0.0
