16

C	-0.471755	-0.008229	-1.462936
C	0.0	0.0	0.0
F	-0.107211	-1.252992	-1.981397
H	1.091321	0.0	0.0
H	0.091153	0.748883	-2.012971
C	-1.96356	0.145562	-1.660583
H	-2.316312	1.116146	-1.308296
H	-2.20037	0.051566	-2.722449
H	-2.500632	-0.641754	-1.126627
N	-0.470365	-1.061354	0.835363
H	-1.469601	-1.194701	0.764087
H	0.016358	-1.906289	0.564894
N	-0.47182	1.318012	0.531759
O	-1.432265	1.328936	1.30168
O	0.083889	2.321555	0.09231
Br	3.443922	0.0	0.0
