16

C	-0.499194	-0.113907	-1.433002
C	0.0	0.0	0.0
F	-0.295507	1.106388	-2.078139
H	1.090672	0.0	0.0
H	-1.584216	-0.27858	-1.42669
C	0.249554	-1.189506	-2.184982
H	0.041969	-2.174324	-1.760225
H	1.322786	-0.997784	-2.115502
H	-0.059184	-1.190185	-3.232882
N	-0.440062	-1.072023	0.848041
H	-1.27984	-1.524915	0.518062
H	0.308792	-1.736094	0.9778
N	-0.556844	1.28415	0.55167
O	-1.786567	1.328168	0.638672
O	0.207925	2.185403	0.869484
Br	3.550777	0.0	0.0
