17

C	-0.308451	0.000786	-1.503484
C	0.0	0.0	0.0
F	-1.70347	0.000888	-1.714632
H	1.097255	0.0	0.0
C	0.266856	1.256358	-2.121536
H	0.140148	1.227564	-3.206997
H	-0.242384	2.139877	-1.731293
H	1.331027	1.309687	-1.868104
C	0.266263	-1.25419	-2.122882
H	1.33045	-1.307234	-1.870902
H	0.138244	-1.224676	-3.207908
H	-0.242341	-2.13819	-1.732827
C	-0.484105	-1.195419	0.66911
N	-0.848589	-2.185911	1.188011
C	-0.484209	1.194657	0.670336
N	-0.850434	2.18371	1.190654
H	2.580286	0.0	0.0
