17

C	-0.428331	0.007753	-1.483763
C	0.0	0.0	0.0
F	0.032127	-1.2008	-2.020409
H	1.096875	0.0	0.0
C	-1.932616	0.015417	-1.675815
H	-2.37084	-0.860256	-1.190974
H	-2.165799	-0.022168	-2.743747
H	-2.373872	0.917305	-1.246707
C	0.288185	1.130775	-2.203846
H	0.117265	1.035348	-3.27921
H	-0.082969	2.102702	-1.869637
H	1.355166	1.058775	-1.982165
C	-0.489891	-1.180486	0.69303
N	-0.861604	-2.150983	1.243402
C	-0.456553	1.208004	0.666458
N	-0.831499	2.198662	1.178431
H	2.591153	0.0	0.0
