17

C	-0.308953	0.001009	-1.503412
C	0.0	0.0	0.0
F	-1.70366	0.001444	-1.713892
H	1.097248	0.0	0.0
C	0.265724	1.256816	-2.120824
H	1.329933	1.30991	-1.867122
H	-0.243784	2.140492	-1.730388
H	0.139348	1.227807	-3.206425
C	0.265332	-1.254142	-2.122589
H	0.140385	-1.223377	-3.208264
H	1.329166	-1.308546	-1.867732
H	-0.245391	-2.137947	-1.734327
C	-0.484399	-1.19555	0.66843
N	-0.8504	-2.186853	1.184696
C	-0.485451	1.194418	0.669814
N	-0.861964	2.180917	1.187673
H	2.579887	0.0	0.0
