17

C	-0.414592	-0.018833	-1.490643
C	0.0	0.0	0.0
F	0.011287	1.205817	-2.019927
H	1.099034	0.0	0.0
C	0.345976	-1.116275	-2.204881
H	0.006917	-2.100743	-1.874038
H	1.409425	-1.008317	-1.972607
H	0.182478	-1.02715	-3.282639
C	-1.91472	-0.078077	-1.697504
H	-2.392865	0.772534	-1.205547
H	-2.326171	-1.003108	-1.287708
H	-2.137167	-0.034086	-2.767589
C	-0.453145	-1.206867	0.669571
N	-0.786694	-2.205823	1.192773
C	-0.501625	1.181776	0.681419
N	-0.885926	2.149717	1.226357
H	2.590775	0.0	0.0
