17

C	-0.416939	-0.051367	-1.488265
C	0.0	0.0	0.0
F	0.027431	-1.290723	-1.966161
H	1.103539	0.0	0.0
C	-1.918622	-0.025255	-1.696652
H	-2.140529	-0.113564	-2.764055
H	-2.345818	0.906875	-1.321411
H	-2.381464	-0.864949	-1.173028
C	0.326449	1.026995	-2.24977
H	-0.028076	2.019487	-1.961363
H	0.163232	0.888891	-3.322181
H	1.39133	0.943978	-2.014895
C	-0.49482	-1.153501	0.731927
N	-0.876218	-2.104147	1.310042
C	-0.456687	1.234211	0.613038
N	-0.793278	2.263015	1.074937
H	2.579178	0.0	0.0
