17

C	-0.311006	-0.06279	-1.500767
C	0.0	0.0	0.0
F	-1.707662	-0.074365	-1.708254
H	1.102662	0.0	0.0
C	0.25863	1.168142	-2.171553
H	1.324362	1.233386	-1.928181
H	0.124162	1.096249	-3.254165
H	-0.249536	2.06563	-1.812868
C	0.263538	-1.341016	-2.071007
H	1.329948	-1.381313	-1.82396
H	0.127987	-1.357785	-3.155885
H	-0.239455	-2.209622	-1.640808
C	-0.478577	-1.166305	0.721902
N	-0.81912	-2.132544	1.298555
C	-0.482208	1.221303	0.62149
N	-0.829694	2.230992	1.115163
H	2.567597	0.0	0.0
