17

C	-0.411306	-0.080748	-1.489267
C	0.0	0.0	0.0
F	0.002121	-1.343772	-1.930283
H	1.103289	0.0	0.0
C	-1.910659	-0.017268	-1.708035
H	-2.310742	0.939856	-1.368874
H	-2.129245	-0.135517	-2.772966
H	-2.402618	-0.822507	-1.15896
C	0.366459	0.955317	-2.273202
H	0.040693	1.964547	-2.010031
H	0.203508	0.797057	-3.343121
H	1.427258	0.848388	-2.028853
C	-0.503619	-1.130977	0.759768
N	-0.890074	-2.058639	1.370566
C	-0.448806	1.251501	0.583712
N	-0.776753	2.292044	1.024458
H	2.583209	0.0	0.0
