15

C	-0.007934	-0.007795	0.006158
C	-0.448939	0.154568	-1.4599
F	1.397494	0.06751	-0.001818
H	-1.545828	0.13865	-1.468179
H	-0.067958	-0.673743	-2.065026
N	-0.486061	1.016606	0.88434
H	-0.270697	1.925553	0.486023
H	-1.504479	0.93223	0.916776
C	-0.408124	-1.367619	0.53003
H	0.035614	-2.154189	-0.085077
H	-1.496506	-1.449772	0.516982
H	-0.044611	-1.460953	1.554324
C	0.037747	1.409498	-2.024257
N	0.446784	2.418384	-2.463503
Cl	-3.662174	0.18319	-0.005336
