15

C	-0.016228	-0.010705	0.005309
C	-0.489909	-0.349531	-1.407661
F	1.38911	0.085966	-0.032481
H	-0.207816	0.483786	-2.055973
H	-1.584482	-0.418958	-1.394122
N	-0.529149	1.289977	0.321922
H	-0.369271	1.469813	1.30793
H	-1.545131	1.25895	0.190404
C	-0.349628	-1.100659	1.006311
H	-1.435496	-1.199545	1.062029
H	0.037372	-0.809998	1.987302
H	0.102427	-2.05425	0.722821
C	0.105309	-1.57957	-1.916969
N	0.58655	-2.567022	-2.330711
Cl	-3.684384	0.345715	-0.104745
