15

C	-0.0125	-0.002214	0.001265
C	-0.470856	-0.120834	-1.450554
F	1.394117	0.067036	0.005972
H	-0.15334	-1.085541	-1.856283
H	-1.567168	-0.082329	-1.456502
N	-0.505386	1.233614	0.533017
H	-1.524019	1.219844	0.436338
H	-0.300504	1.266217	1.526327
C	-0.385389	-1.244416	0.790111
H	0.066616	-2.139478	0.353096
H	-1.473071	-1.335564	0.80416
H	-0.018564	-1.136835	1.81501
C	0.082422	0.936995	-2.292227
N	0.538108	1.74122	-3.014811
Cl	-3.673123	0.185746	0.024841
