15

C	-0.011412	-0.011428	0.002811
C	-0.486992	0.037056	-1.448727
F	1.39357	0.098092	-0.008624
H	-1.580808	-0.045413	-1.451694
H	-0.216377	1.016782	-1.850117
N	-0.529006	1.15493	0.656073
H	-0.373198	1.06266	1.654707
H	-1.544227	1.160618	0.516268
C	-0.337981	-1.330646	0.676731
H	0.109925	-2.172362	0.142882
H	-1.423426	-1.441557	0.714668
H	0.059496	-1.314916	1.695776
C	0.117865	-1.004922	-2.270297
N	0.604924	-1.841191	-2.934584
Cl	-3.681513	0.353978	-0.022943
