15

C	-0.012005	-0.009399	0.003457
C	-0.448441	0.155511	-1.463729
F	1.39386	0.059556	-0.001109
H	-0.06952	-0.674352	-2.068015
H	-1.545354	0.144573	-1.47498
N	-0.48772	1.016783	0.880755
H	-1.506646	0.936914	0.910108
H	-0.267115	1.924985	0.483634
C	-0.419711	-1.367532	0.525788
H	-1.508349	-1.445416	0.508416
H	0.023322	-2.155953	-0.087482
H	-0.060603	-1.462299	1.551493
C	0.04443	1.408935	-2.025981
N	0.448073	2.421957	-2.460668
Cl	-3.665117	0.200919	-0.01374
