11
Coordinates from ORCA-job run
  C   1.10186573199635      0.55749030607754     -0.17275910002106
  C   -0.21074465305509      0.39830473561057      0.12581533868988
  H   1.57043240287142      1.53501244391850     -0.10929176096294
  C   1.92091219048451     -0.53804847696140     -0.57662652782460
  N   2.60181791806700     -1.43831047701130     -0.91067648050814
  C   -0.96088533049634     -0.89997079030068      0.07431043708013
  H   -0.30977135684268     -1.71708539605212     -0.23736740625433
  H   -1.37797311367771     -1.13140767493298      1.05776225971823
  H   -1.79613674878888     -0.82270764210012     -0.62653789663502
  C   -0.95188634059074      1.56079583105095      0.52278034206927
  N   -1.58763069996783      2.49492714070105      0.85259079464858
