11
Coordinates from ORCA-job run
  C   1.02802225406770     -0.33615350526629     -0.40656230421816
  C   -0.17364501912525      0.06562080455392      0.07160012034435
  H   1.12896715670594     -1.32475318390298     -0.84556284916299
  C   2.19710965122104      0.47897135842270     -0.36661282127695
  N   3.17629378831945      1.13199473683397     -0.34485334448262
  C   -1.40342146654617     -0.79429371822361      0.02964856467593
  H   -2.19302815991831     -0.29993086089106     -0.54170614434090
  H   -1.18530225322682     -1.75924786478915     -0.42971917988681
  H   -1.78438820086100     -0.96073718885482      1.04028866183930
  C   -0.31476019530977      1.36871853962823      0.65332061094809
  N   -0.47684755532682      2.42881088248909      1.13915868556077
