11
Coordinates from ORCA-job run
  C   1.16823390603180      0.43478466399418      0.02762689147980
  C   -0.13488790445120      0.26633650608586      0.36038649862701
  H   1.79449233172505      1.13323405666637      0.57495937015157
  C   1.77134274371899     -0.28590669725691     -1.04556236619581
  N   2.27490852593432     -0.87817557266962     -1.92952387606444
  C   -1.09093915942307     -0.66615761040304     -0.32322197666906
  H   -1.93848338832957     -0.10561697430900     -0.72551025726730
  H   -0.60123987760541     -1.20333671877328     -1.13582362060982
  H   -1.48640970578643     -1.38944447218762      0.39451778916130
  C   -0.65143707796818      1.03819236956857      1.45368710287376
  N   -1.10658039384630      1.65709044928452      2.34546444451300
