11
Coordinates from ORCA-job run
  C   1.17149600811013      0.42393968993905      0.02358820772739
  C   -0.13466074460721      0.27509332132206      0.35394866971299
  H   1.80244002036776      1.12660239694133      0.55967537044698
  C   1.77309809180572     -0.32446408969987     -1.03106862059055
  N   2.27754305667847     -0.93951533205029     -1.89884076419443
  C   -1.09700818079426     -0.66170797850471     -0.31471463806086
  H   -1.50041341734262     -1.36838704021117      0.41506605624698
  H   -0.60999662272673     -1.21756101561399     -1.11634211235774
  H   -1.93875068553929     -0.10140106884364     -0.72968677126691
  C   -0.64714313895079      1.07388683012656      1.42958238448398
  N   -1.09660438700117      1.71451428659468      2.30879221785218
