11
Coordinates from ORCA-job run
  C   1.12402178369480      0.53011923114058     -0.09895413709416
  C   -0.20996570426082      0.40513718265304      0.10557325988076
  H   1.61001316542333      1.49760479275713     -0.01483678695652
  C   1.94393104603224     -0.58876263901521     -0.43057688464372
  N   2.62596286819531     -1.50828204811242     -0.70459687004325
  C   -0.98434671669505     -0.87672868875275      0.01644179313002
  H   -1.47300809490436     -1.08770104509584      0.97102232737136
  H   -0.33216745175670     -1.71151022601392     -0.24141052915212
  H   -1.76711940119058     -0.78938985518703     -0.74131385810306
  C   -0.95019699357468      1.58923247092090      0.43428826870506
  N   -1.58612450096349      2.54228082470552      0.70436341690564
