11
Coordinates from ORCA-job run
  C   1.03342531320291     -0.32162619515046     -0.40483735302622
  C   -0.17420232000877      0.06306494229704      0.07217033664167
  H   1.14005362075941     -1.29413695742626     -0.87741875747087
  C   2.20176779495622      0.49132241078243     -0.32306053798931
  N   3.18160983554700      1.14151351313229     -0.26869603174461
  C   -1.40300922054342     -0.79486653557380     -0.01468628052193
  H   -2.18683599543175     -0.27903793011116     -0.57490952878060
  H   -1.18004375217108     -1.74187674693215     -0.50779798528941
  H   -1.79420233197355     -0.99916568327111      0.98510795055631
  C   -0.32409040319683      1.34505760180089      0.69716573624402
  N   -0.49647254114014      2.38775158045229      1.21596245138096
