11
Coordinates from ORCA-job run
  C   1.07808484848811     -0.32137588686058     -0.26763577807554
  C   -0.18208119773499      0.06271996721302      0.04616409448479
  H   1.29627299835148     -1.37406249373494     -0.42462786034199
  C   2.16143152502757      0.59496174957034     -0.40635983775025
  N   3.07012553870809      1.33368940419349     -0.52483429420877
  C   -1.32285782842808     -0.90197482189661      0.19231654062085
  H   -2.11834319284636     -0.65855944195815     -0.51659231908710
  H   -1.74774072109988     -0.83807707361898      1.19723718990956
  H   -0.99014082161988     -1.92511428436886      0.01280658186463
  C   -0.47789186489247      1.45032718084875      0.25483816355351
  N   -0.76585928395360      2.57746570061251      0.43568751903030
