11
Coordinates from ORCA-job run
  C   1.05760875171798     -0.27592601983857     -0.37647476235256
  C   -0.17864992997444      0.05404518330908      0.06739585846895
  H   1.18623404597506     -1.14536266379353     -1.01511226861944
  C   2.22927333394622      0.46616795622999     -0.04600720501365
  N   3.21081569394258      1.06117328072179      0.21548033153771
  C   -1.41210828588791     -0.72879432027975     -0.27747322721951
  H   -2.13262838270570     -0.09225128260798     -0.79724065050008
  H   -1.16546523995358     -1.57830211598459     -0.91567932025990
  H   -1.89422217841239     -1.09670036644453      0.63166822642566
  C   -0.35425943425929      1.19987614482361      0.91145832128486
  N   -0.54559837438853      2.13407420386449      1.60198469624796
