11
Coordinates from ORCA-job run
  C   1.18970472858705      0.34329903176079      0.14820095114623
  C   -0.16336380089584      0.37911139934458      0.22031872452943
  H   1.78915771753105      1.14232264291813      0.57414261810717
  C   1.88257939059863     -0.73136003838790     -0.48363313536930
  N   2.45957345103055     -1.61501276448918     -1.00500185660406
  C   -1.08958423238954     -0.66465659285356     -0.33094318678668
  H   -1.70507594391863     -1.08052345886449      0.47085676195677
  H   -1.76466255691440     -0.21696199354348     -1.06473378991475
  H   -0.53200607688611     -1.47191586614688     -0.80653994604842
  C   -0.76915856940405      1.50329594568427      0.87409553803294
  N   -1.29816410733871      2.41140169457772      1.40423732095066
