11
Coordinates from ORCA-job run
  C   1.06258416548152     -0.34255430759318     -0.30032534141012
  C   -0.17884582041477      0.06717018368595      0.05326806007013
  H   1.27347484800437     -1.40458958836631     -0.39023339713544
  C   2.13377006576731      0.55743946929795     -0.57374892640261
  N   3.03405740369034      1.28017737747540     -0.80371318731273
  C   -1.30737722961648     -0.88140517319857      0.33641955835852
  H   -2.14100372109274     -0.69321135461868     -0.34484429670586
  H   -0.98219881668558     -1.91590992225805      0.22000920151931
  H   -1.67767981105368     -0.73814787023579      1.35454101497983
  C   -0.46632489863087      1.46710603790640      0.17127136019428
  N   -0.74945618544941      2.60492514790488      0.27835595384468
