11
Coordinates from ORCA-job run
  C   1.17811416074520      0.40765465826152      0.02452139280158
  C   -0.15691709014930      0.36036853407113      0.25444487018333
  H   1.78008914138211      1.22213933648196      0.41611924350181
  C   1.84864724889159     -0.59917708211417     -0.73125456812433
  N   2.40731907721107     -1.42742747828078     -1.35379691352947
  C   -1.08397953484698     -0.71268190297091     -0.23540361527070
  H   -1.57665240064468     -1.19794254915613      0.61096389685742
  H   -1.86414215261350     -0.27576052957129     -0.86394813809049
  H   -0.54352782158370     -1.46452617204173     -0.81114410470747
  C   -0.74023882286075      1.41773080055791      1.02895528124606
  N   -1.24971180553106      2.26962238476249      1.66154265513227
