11
Coordinates from ORCA-job run
  C   1.11172981415683     -0.24925591560620     -0.19475406226088
  C   -0.18895853071344      0.05113526998481      0.03369550846911
  H   1.43425051632449     -1.28684577510026     -0.18349111801928
  C   2.10673657980133      0.73776539698778     -0.45634039988906
  N   2.94551774156955      1.53441169047488     -0.67429676010230
  C   -1.23647186613594     -0.98869716421611      0.30719925208210
  H   -1.69853765704273     -0.81522529975853      1.28223490326931
  H   -0.80136150107165     -1.98875234101927      0.29404462790351
  H   -2.02776381986225     -0.93670659361711     -0.44489907137614
  C   -0.62234159435879      1.41802438187650      0.01970715242093
  N   -1.02279968266740      2.52514634999349      0.01789996750270
