11
Coordinates from ORCA-job run
  C   0.99528365476975     -0.26585357338604     -0.52407523418042
  C   -0.16768327633453      0.05374919519394      0.09213169665085
  H   1.01539703100013     -1.07531599771978     -1.24839812722423
  C   2.22544648321312      0.40761224551412     -0.26760094425923
  N   3.25333500742255      0.94620181862594     -0.07029034451977
  C   -1.46123203863167     -0.66007869731267     -0.17347804544739
  H   -1.84790198015069     -1.09993104825318      0.74918814562209
  H   -2.21334230962279      0.04141661818826     -0.54308375613651
  H   -1.32215660902066     -1.45110571140612     -0.91146866594315
  C   -0.20192259073777      1.11920543263733      1.05137902604935
  N   -0.27522337190744      1.98409971791821      1.84669624938842
