11
Coordinates from ORCA-job run
  C   1.19114602768832      0.34002933669662      0.12994852140985
  C   -0.15836482060823      0.35868802694687      0.25626915250406
  H   1.80257373234623      1.10503593206369      0.59904074418278
  C   1.86540214527000     -0.67204819395226     -0.61501175860116
  N   2.42936227635672     -1.50491529174651     -1.22641044467421
  C   -1.09914502192091     -0.64323242061875     -0.34547519333477
  H   -1.80398009407541     -0.14274311452536     -1.01423172332893
  H   -0.55484849474487     -1.40314043855134     -0.90683112189359
  H   -1.68107368631736     -1.13031920052104      0.44116701466662
  C   -0.74236664420842      1.41826233018980      1.02705195878451
  N   -1.24970541978608      2.27538303401828      1.65448285028485
