11
Coordinates from ORCA-job run
  C   1.19005295649331      0.35539825498196      0.10038912200659
  C   -0.15677094796963      0.36079325422431      0.25400507275237
  H   1.80256932001708      1.13201354424591      0.54858396874546
  C   1.86025712648669     -0.65967031954914     -0.64432994654033
  N   2.42168415080268     -1.49688031947526     -1.25252793851542
  C   -1.09876278964413     -0.65633913400721     -0.31925479070186
  H   -0.55834949773576     -1.41670329256830     -0.88354439403333
  H   -1.66186072835615     -1.14089127804929      0.48249896604467
  H   -1.82025297440357     -0.16835094919156     -0.97947531247917
  C   -0.73699894173113      1.41982257076803      1.02862973215616
  N   -1.24256767395940      2.27180766862055      1.66402552056486
