11
Coordinates from ORCA-job run
  C   1.18714826562300      0.36407035101317      0.11423045650679
  C   -0.15541031123999      0.32645395889252      0.29697358367424
  H   1.79623431500430      1.10000169987092      0.63064811794331
  C   1.85584472601874     -0.55036432333268     -0.75215660791084
  N   2.41320103925313     -1.30249381114555     -1.46586867576345
  C   -1.09389112153021     -0.64176141076764     -0.36100529939302
  H   -1.84033730105247     -0.10017144379117     -0.94762867000810
  H   -0.55474959680263     -1.32651265080029     -1.01617126572525
  H   -1.62801216752024     -1.22038301815862      0.39692672900438
  C   -0.73643776693086      1.28821222864394      1.18896365524221
  N   -1.24459008082279      2.06294841957540      1.91508797642973
