11
Coordinates from ORCA-job run
  C   1.18937207133070      0.36191013049253      0.10263855654950
  C   -0.15183270827110      0.32929255273619      0.29591706515297
  H   1.80497959892301      1.09946038077371      0.60891037386693
  C   1.84837946945262     -0.55980495077878     -0.76350256328320
  N   2.39794374276285     -1.31675933774562     -1.47812288046274
  C   -1.09762117731951     -0.64206102841062     -0.34690065798075
  H   -1.62671674292664     -1.21315669259047      0.42022859249295
  H   -1.84778445136098     -0.10368056093354     -0.93167916499132
  H   -0.56554131829926     -1.33351349468032     -1.00080137711085
  C   -0.72439485264226      1.29804034973738      1.18561382541053
  N   -1.22678363164943      2.08027265139955      1.90769823035595
