11
Coordinates from ORCA-job run
  C   0.98576541026130     -0.35568507181010     -0.48750642637339
  C   -0.16477223411909      0.06654992807436      0.08878382621705
  H   0.94659386203859     -1.06668366215456     -1.30804337466674
  C   2.27572910740235      0.08728536634567     -0.07209959608028
  N   3.35078142983543      0.43969936432493      0.25307542182402
  C   -1.52241365156336     -0.40146099152006     -0.34881390211814
  H   -1.43959229835721     -1.10898954580974     -1.17493478149679
  H   -2.13172644890210      0.44754191345498     -0.66872664644571
  H   -2.04298643021110     -0.88482909491213      0.48169151859853
  C   -0.12252652181712      1.00461183932476      1.17282038700323
  N   -0.13585222456768      1.77295995468189      2.06475357353821
