11
Coordinates from ORCA-job run
  C   1.19531709563474      0.34100677701954      0.09497404006223
  C   -0.14826685629420      0.34969088345525      0.27360794296180
  H   1.82186574914475      1.09347011783989      0.56479535621128
  C   1.84292292251070     -0.64386448126013     -0.70778996605889
  N   2.38267229228924     -1.45465170568110     -1.36893152758704
  C   -1.10869681118827     -0.63744935811211     -0.32137618813347
  H   -0.58517599972232     -1.37689530541233     -0.92775900809337
  H   -1.65698451049073     -1.15097684868834      0.47250971991039
  H   -1.84176406408508     -0.11930168988713     -0.94471576371227
  C   -0.70677394577178      1.38238778682828      1.09793236294705
  N   -1.19611587202704      2.21758382389819      1.76775303149229
