16

C	-0.085827	0.065821	-1.535084
C	0.0	0.0	0.0
Cl	-1.731807	0.596916	-2.152405
H	1.098974	0.0	0.0
N	0.922905	0.983441	-1.960435
H	1.107723	0.889215	-2.951135
H	1.771386	0.764057	-1.393235
C	0.076939	-1.287476	-2.104103
N	0.266337	-2.341954	-2.587335
C	-0.618036	-1.22202	0.658293
H	-0.461707	-1.16424	1.73972
H	-1.695505	-1.295488	0.465836
H	-0.12519	-2.12699	0.297721
C	-0.479115	1.239044	0.583254
N	-0.87073	2.202278	1.132115
F	2.618201	0.0	0.0
