16

C	-0.107935	-0.071261	-1.553364
C	0.0	0.0	0.0
Cl	-0.035785	1.623106	-2.217422
H	1.097033	0.0	0.0
N	1.001168	-0.804627	-2.102288
H	1.817518	-0.599407	-1.484442
H	0.798521	-1.795959	-2.083121
C	-1.385819	-0.631017	-2.007221
N	-2.415589	-1.114355	-2.299189
C	-0.435279	-1.310047	0.653424
H	-0.175855	-1.283015	1.713356
H	-1.506922	-1.499793	0.556048
H	0.120797	-2.135511	0.208438
C	-0.646259	1.132865	0.619279
N	-1.198045	2.008498	1.177403
F	2.621471	0.0	0.0
