16

C	-0.094142	-0.045289	-1.548263
C	0.0	0.0	0.0
Cl	0.013342	1.713423	-2.195966
H	1.097443	0.0	0.0
N	0.975829	-0.85062	-1.976254
H	1.11067	-0.820388	-2.977312
H	1.829679	-0.592767	-1.423984
C	-1.38379	-0.514256	-2.069612
N	-2.411001	-0.92646	-2.46571
C	-0.484398	-1.308826	0.623438
H	-1.563748	-1.453245	0.508069
H	-0.241635	-1.306978	1.68848
H	0.046131	-2.137073	0.152115
C	-0.628565	1.144925	0.618405
N	-1.159588	2.015102	1.204285
F	2.638603	0.0	0.0
