16

C	-0.386723	-0.063145	-1.454903
C	0.0	0.0	0.0
Cl	-2.281085	-0.496996	-1.605217
H	1.096663	0.0	0.0
N	-0.106899	1.116748	-2.154621
H	-0.442891	1.095441	-3.106855
H	-0.441407	1.935165	-1.662683
C	0.234099	-1.209399	-2.127252
N	0.694753	-2.12753	-2.696765
C	-0.35299	-1.240463	0.811176
H	0.088208	-2.114118	0.32576
H	0.120558	-1.146691	1.790436
H	-1.428123	-1.393432	0.932137
C	-0.512192	1.21553	0.590187
N	-0.911969	2.22288	1.050682
F	2.488441	0.0	0.0
