16

C	-0.104737	-0.094965	-1.544209
C	0.0	0.0	0.0
Cl	-0.022917	1.644312	-2.25395
H	1.097465	0.0	0.0
N	0.969275	-0.903512	-1.953556
H	1.824641	-0.628705	-1.411923
H	1.102288	-0.903625	-2.954921
C	-1.394197	-0.596153	-2.037569
N	-2.420411	-1.037889	-2.402474
C	-0.477828	-1.288203	0.669215
H	0.053432	-2.130486	0.225027
H	-0.229976	-1.249702	1.732381
H	-1.556726	-1.440895	0.564554
C	-0.624779	1.164018	0.586442
N	-1.140408	2.058227	1.149777
F	2.63709	0.0	0.0
