14

C	0.0	0.0	0.0
C	-0.472109	0.005602	-1.459012
Cl	1.784646	0.0	0.0
H	0.033955	0.822009	-1.983825
H	-1.548738	0.184526	-1.360565
C	-0.35485	1.306222	0.608619
N	-0.557223	2.352231	1.103892
N	-0.592975	-1.114792	0.67227
H	-1.630094	-0.863436	0.532469
H	-0.367702	-1.064152	1.661293
N	-0.131909	-1.279669	-2.089247
H	-0.315157	-1.983031	-1.378066
H	-0.818013	-1.436738	-2.82125
F	-2.817254	0.0	0.0
