14

C	0.0	0.0	0.0
C	-0.479471	0.298856	-1.444785
Cl	1.843578	0.0	0.0
H	-1.051435	-0.588873	-1.732866
H	0.396305	0.381228	-2.091102
C	-0.31043	1.112369	0.927725
N	-0.440784	1.959299	1.731729
N	-0.522191	-1.256067	0.433326
H	-0.296468	-1.381105	1.416178
H	-1.554415	-1.042821	0.354175
N	-1.251101	1.532344	-1.498937
H	-1.50226	1.699106	-2.468014
H	-2.102587	1.262865	-0.980879
F	-2.764309	0.0	0.0
