14

C	0.0	0.0	0.0
C	-0.647862	-0.247588	-1.337962
Cl	1.867276	0.0	0.0
H	-0.296528	0.506404	-2.056259
H	-1.742249	-0.078818	-1.01609
C	-0.308569	1.374098	0.446121
N	-0.491135	2.471379	0.823822
N	-0.4215	-0.943873	0.982638
H	-0.823196	-1.734415	0.499205
H	0.345366	-1.222194	1.579511
N	-0.458052	-1.629192	-1.757063
H	-1.294763	-1.942655	-2.228431
H	0.330003	-1.728985	-2.383926
F	-2.896984	0.0	0.0
