17

C	0.0	0.0	0.0
C	-0.359287	0.179668	-1.486265
F	1.417578	0.0	0.0
H	0.023753	-0.716972	-1.990836
N	-0.454465	1.10231	0.777148
H	-1.470897	1.106395	0.777471
H	-0.123074	1.01576	1.731414
N	-0.467072	-1.269646	0.448149
H	0.09226	-2.020057	0.06435
H	-0.486037	-1.326103	1.456478
C	0.379862	1.320653	-2.038755
N	0.936894	2.237735	-2.5146
C	-1.855847	0.312782	-1.75486
H	-2.044497	0.281267	-2.830131
H	-2.417157	-0.481015	-1.267223
H	-2.250647	1.252898	-1.373042
Br	-4.875305	0.0	0.0
