17

C	0.0	0.0	0.0
C	-0.183825	0.139679	-1.555273
F	1.429715	0.0	0.0
H	0.460979	-0.65107	-1.949886
N	-0.425396	1.07433	0.831112
H	-0.118399	1.966866	0.459829
H	-1.443445	1.057047	0.87774
N	-0.494397	-1.265	0.426937
H	-1.50623	-1.25723	0.277719
H	-0.356791	-1.307609	1.431986
C	0.417525	1.417199	-1.949877
N	0.867751	2.463543	-2.238155
C	-1.563298	0.013017	-2.193826
H	-1.441393	0.07318	-3.280661
H	-2.024901	-0.939615	-1.939978
H	-2.247772	0.788576	-1.860641
Br	-4.051296	0.0	0.0
