17

C	0.0	0.0	0.0
C	-0.358884	-0.435329	-1.430381
F	1.431674	0.0	0.0
H	0.253643	-1.321293	-1.61251
N	-0.487794	1.29682	0.282841
H	-0.339716	1.552339	1.248079
H	-0.090096	1.995062	-0.332226
N	-0.413059	-1.000188	0.937453
H	0.020243	-0.804988	1.833937
H	-1.422342	-0.933171	1.051087
C	0.068338	0.606661	-2.366596
N	0.365107	1.443039	-3.136865
C	-1.83584	-0.783689	-1.614955
H	-2.046675	-1.728155	-1.113231
H	-2.069208	-0.904406	-2.674055
H	-2.511308	-0.04045	-1.191516
Br	-4.93444	0.0	0.0
