17
Coordinates from ORCA-job run
  C   -0.42715333419035     -0.45307735084298     -0.02530339922632
  C   0.82780659563762      0.36203522502298      0.35540420051496
  F   -0.03318013108002     -1.43890252836286     -0.92142267564231
  H   0.58542723840090      0.98941771920180      1.21468812756766
  N   -0.80640885961041     -1.15959221466713      1.18406094280282
  H   -1.35271685996502     -0.55065164358401      1.78302613500419
  H   -1.39143847388149     -1.94629713099371      0.92452922968783
  C   -1.52761214369357      0.34715384653393     -0.69003168951670
  H   -2.39096164490179     -0.30247773670628     -0.84839965214191
  H   -1.20087482803087      0.73041382831690     -1.65762028891831
  H   -1.82555339627784      1.19210653075731     -0.06572277715029
  N   1.12798471773549      1.31995776597328     -0.75668291789142
  O   0.68253895479062      2.46123498296100     -0.64890177339133
  O   1.74624950647976      0.87417810101103     -1.71867217147674
  N   2.00367135798494     -0.41100660663481      0.61968498927281
  H   1.80770931208861     -0.99613047928490      1.42345542123721
  H   2.17351198851342     -1.01936230870155     -0.17309170073215
