17
Coordinates from ORCA-job run
  C   -0.53659887012119     -0.45718733726975      0.22579700189544
  C   0.90198807592784      0.06769434528990      0.31372351967562
  F   -0.35998045816645     -1.86473523040608      0.43552795928018
  H   1.26686038345617     -0.11418534380141      1.33168992905231
  N   -1.30739837303203      0.13218180788558      1.24619441831053
  H   -2.26950876140048     -0.17683551390393      1.21661412972261
  H   -0.91938145971832     -0.02723488483690      2.16684633882293
  C   -1.19807285936046     -0.31009957077236     -1.12365981019170
  H   -2.14056992798670     -0.86299166619027     -1.10713550567483
  H   -1.39225280988550      0.73801225368955     -1.33958360991117
  H   -0.56425425178330     -0.71688836129835     -1.90878529783671
  N   0.87253887481506      1.57860285203064      0.22670595459654
  O   1.05611418120603      2.17859785936480      1.28472093140788
  O   0.66267147828574      2.09193077153473     -0.86542462116461
  N   1.70979899353138     -0.46444521401822     -0.73880737177520
  H   2.69363294553404     -0.33647982044042     -0.53913429882981
  H   1.52541283869816     -1.45593694685751     -0.82228966738001
