17
Coordinates from ORCA-job run
  C   -0.48493887243861     -0.47990403714740     -0.13158890248946
  C   0.74687118107532      0.31990338865993      0.35536431979172
  F   0.01805122104861     -1.36943376115669     -1.08800470209254
  H   0.45240234444217      0.94016907365800      1.20199510852428
  N   -1.04607845782192     -1.26924678773858      0.91905335636502
  H   -0.33867374487065     -1.62931424747218      1.54550956012679
  H   -1.75276650877922     -0.76683781882564      1.43654336501032
  C   -1.55217797319976      0.35797946205042     -0.79546560973327
  H   -2.40430011359372     -0.28568068047460     -1.01805319769082
  H   -1.86941935325559      1.18290075093229     -0.15464666201669
  H   -1.17669730662041      0.77266498527640     -1.73000197762200
  N   1.12283180258381      1.31447955115421     -0.72459241987303
  O   1.81590981153921      0.90625310986332     -1.64794812434622
  O   0.65005941406388      2.44626016821296     -0.61469591265051
  N   1.87844440814658     -0.47734796609723      0.67321097016819
  H   2.00299580954419     -0.64684348183861      1.65685126941375
  H   1.93848633813611     -1.31600170905660      0.11646955911448
