17
Coordinates from ORCA-job run
  C   -0.52553523443362     -0.46463692409207      0.13387107178457
  C   0.87619546190949      0.04538162635934     -0.22160796152145
  F   -0.30313364302670     -1.61417694942769      0.92913006527766
  H   1.40426615796188     -0.71103379707528     -0.80299917819601
  N   -1.25592079130250      0.52642079245951      0.83436680672028
  H   -2.21161279261278      0.23190298990826      0.98428814547461
  H   -0.82009995373416      0.75305490309225      1.71956294399661
  C   -1.26404995481346     -0.91522783946534     -1.10559353339343
  H   -1.39195967321853     -0.08058365916806     -1.79215265383566
  H   -0.70822790849722     -1.71332696831786     -1.59892868034829
  H   -2.24160393078612     -1.31056457285799     -0.81887159585135
  N   1.69166668952725      0.10430887760815      1.07667819848960
  O   2.58560524384704     -0.72241968359437      1.22062661558746
  O   1.40061286225172      0.99519673373649      1.87620417530327
  N   0.79714233743573      1.27816587619343     -0.90761920888165
  H   0.26095514823556      1.94936940389923     -0.37377340701602
  H   1.70469998125642      1.64716919074201     -1.15518180359022
