17
Coordinates from ORCA-job run
  C   -0.49404099056811     -0.42183717477156      0.20378596385690
  C   0.92055789186674      0.08822769480951     -0.10866325746634
  F   -0.31706768338283     -1.45421393709007      1.15494767210448
  H   1.48724598191884     -0.70049734867020     -0.60366327214156
  N   -1.30721856925587      0.62723936829402      0.69670339078657
  H   -2.25764193757989      0.31371556657533      0.84208462969861
  H   -0.92747295389903      1.00958644709466      1.55416607022094
  C   -1.11454234147382     -1.06034061566921     -1.01997017797245
  H   -0.51318001287490     -1.91090106833834     -1.34314229206230
  H   -1.19710933291754     -0.33825074967424     -1.83210036039588
  H   -2.11332740731952     -1.42691708279471     -0.77204916971127
  N   1.65961421684202      0.26517321953113      1.21130015411983
  O   1.20502570759349      1.09326769508162      1.99697904919371
  O   2.66578762548446     -0.41264482295900      1.38831995770324
  N   0.95350905215374      1.31217434596053     -0.82684260292150
  H   0.07319804448865      1.80368795214885     -0.76686328712978
  H   1.27566270892360      1.21253051047168     -1.77499246788318
