17
Coordinates from ORCA-job run
  C   -0.54461932215920     -0.49311382906884     -0.06162004275100
  C   0.70520165775193      0.31039134409708      0.35178339970863
  F   -0.06388483336195     -1.40105118368953     -1.02208587505857
  H   0.42403119159207      1.05202319358544      1.10080572399085
  N   -1.04885818820370     -1.23982322570703      1.03695554443623
  H   -0.31504638375730     -1.48552089317657      1.68789877941081
  H   -1.81917488939133     -0.78220319153912      1.49979852860791
  C   -1.63790079962949      0.31951060583124     -0.71497274647323
  H   -1.30886421502802      0.70370784862542     -1.67849984618549
  H   -2.49385618437211     -0.33789635397005     -0.87585330230126
  H   -1.93437600641295      1.16337379444829     -0.08943377794578
  N   1.17626309641055      1.14762684063373     -0.83686910781376
  O   2.04382557006630      0.67012888435512     -1.56172236743046
  O   0.62950283004305      2.23942839535536     -0.98561055157514
  N   1.69632421584462     -0.57681798740087      0.84492361061719
  H   2.50435869341157     -0.08192687572592      1.19702487946993
  H   1.98607356719599     -1.20783736665373      0.10847715129312
