17
Coordinates from ORCA-job run
  C   -0.57190859607489     -0.39430648306968      0.02117142875659
  C   0.73687834781042      0.32727467847372      0.37248424486402
  F   -0.19609666803902     -1.39588743303618     -0.92059665037050
  H   0.53443412814449      1.08426747399885      1.12958644863233
  N   -1.05808798573472     -0.95977800621424      1.22064689130908
  H   -0.34053700979960     -1.52370445938447      1.65895158525409
  H   -1.89043243455836     -1.50989775758614      1.05444111588105
  C   -1.61878290145106      0.45760183952533     -0.65605600262926
  H   -2.52599072861877     -0.13764621665886     -0.78202714818357
  H   -1.28256031433334      0.77589832977942     -1.64140086470721
  H   -1.84929999530931      1.33539524183284     -0.05319840251020
  N   1.19243054895994      1.12597438221481     -0.84762202198845
  O   1.96225618946144      0.57606782738105     -1.62983468310305
  O   0.73679734326306      2.26209875340886     -0.96035996237448
  N   1.69730492434346     -0.61859292669877      0.81683149202556
  H   1.94155165776773     -1.23729682027270      0.05373104214190
  H   2.53304349416854     -0.16746842369384      1.16325148700210
