17
Coordinates from ORCA-job run
  C   -0.54099070973461     -0.55248089230348      0.28701545890522
  C   0.92196069593367     -0.09056811107766      0.38433702787348
  F   -0.51886484691542     -1.87401630873585      0.72165376802460
  H   1.31290469539154     -0.48589819324732      1.32053174232431
  N   -1.29932049118431      0.17225543313977      1.28564489907639
  H   -2.08424826235314     -0.40519396086782      1.56287001885679
  H   -1.66058919841822      1.03431993388531      0.89502044193639
  C   -1.12288938444612     -0.56233362039473     -1.11054953248739
  H   -0.54431399027138     -1.22364095324651     -1.75644579654939
  H   -1.13917206943273      0.44500949128933     -1.52742345082060
  H   -2.14502107212949     -0.94208157586817     -1.05479875599364
  N   0.95013318070516      1.41718365335375      0.57382946138160
  O   1.62688469842615      1.86591848856647      1.49283308532129
  O   0.34272921390592      2.09016129050840     -0.26315635079086
  N   1.72010253808126     -0.50341306162016     -0.71875411505546
  H   2.70642837117722     -0.38317256157351     -0.52916144967589
  H   1.47426663126451     -0.00104905180781     -1.56244645232682
