17
Coordinates from ORCA-job run
  C   -0.51814534441000     -0.36437547112709     -0.03169630742387
  C   0.81179001577867      0.32760178838211      0.32181976528812
  F   -0.21327523975414     -1.27642092671332     -1.07452045425822
  H   0.64529637296273      0.98018474328120      1.17731883629773
  N   -0.95339524364649     -1.05291463003747      1.13141118397684
  H   -1.84173269646542     -1.50822475466494      0.96354620126556
  H   -0.27615030296762     -1.75575512015148      1.40010845794844
  C   -1.59200641048815      0.56006652977526     -0.55404493484505
  H   -2.51100463545534     -0.01049873398365     -0.70752027762219
  H   -1.29579494808852      0.98584408353885     -1.51159003534195
  H   -1.78446082190482      1.36707130919465      0.15263441607069
  N   1.16523907490952      1.25653773551222     -0.81679344311497
  O   1.75393746330344      0.77033128785391     -1.77476879237375
  O   0.79060355378236      2.42401905186279     -0.70995927327302
  N   1.90930652672889     -0.54851729711217      0.55516943210422
  H   1.88942223683997     -1.35811401263843     -0.04726124839075
  H   2.01937039887491     -0.79283558297248      1.52614647369217
