17
Coordinates from ORCA-job run
  C   -0.61851975565041     -0.21271123149380      0.18913670692904
  C   0.90995529346220     -0.06312159941988      0.18664647639456
  F   -0.95022080938111     -0.63103718284999      1.49946960746404
  H   1.36797307903119     -1.04208368333130      0.32846898366309
  N   -1.24232300722187      1.01014397088157     -0.15720289036239
  H   -2.24559847058322      0.90179337783351     -0.22330076820580
  H   -1.00932870383975      1.73848407930392      0.50671210529206
  C   -1.04868900126728     -1.32435241854561     -0.74337044176412
  H   -0.74414080466377     -1.10892965165890     -1.76738322873767
  H   -0.61417613932548     -2.27152318792555     -0.42152216942070
  H   -2.13618603600928     -1.42353882077390     -0.71280629178431
  N   1.31260383874856      0.69066176210879      1.44743892866520
  O   0.89173517036099      1.83868109501695      1.56744409706736
  O   2.04534896013552      0.10962155261875      2.24021620694571
  N   1.42642525787245      0.61891670491007     -0.94634018776565
  H   1.94497764952422      0.02363533341760     -1.57042926425466
  H   0.70916347880703      1.14735989990776     -1.42217787012576
