17
Coordinates from ORCA-job run
  C   -0.59893541938659     -0.49585059341060      0.24040200091937
  C   0.88543904619463     -0.10623592538943      0.37799576523999
  F   -0.61643391545213     -1.86082503664231      0.61193878530708
  H   1.23914974315287     -0.46683333430359      1.34488350964221
  N   -1.38036489920809      0.29434411223720      1.11609953928113
  H   -2.35672859175644      0.03692743447452      1.06158436079775
  H   -1.06575616108079      0.22724933272830      2.07617570667070
  C   -1.12495715970614     -0.42132548109173     -1.17362771204303
  H   -0.58315020525910     -1.12410928830806     -1.80466122533220
  H   -2.17935693137793     -0.70629195440326     -1.17813321596500
  H   -1.03023917370124      0.59183717370180     -1.56446588854371
  N   0.96224251015516      1.41321004923356      0.48892857186422
  O   1.03131763199409      1.89239325354622      1.61649968069174
  O   0.95080850965332      2.04521659359651     -0.56537757150334
  N   1.68355603589993     -0.62823405987897     -0.67253529995748
  H   2.66736202296511     -0.57224063783620     -0.44509483970876
  H   1.51704695691333     -0.11923163825397     -1.53161216736068
