17
Coordinates from ORCA-job run
  C   -0.71233401200648     -0.28675017321597      0.17965248204433
  C   0.82855908750264     -0.20217174026690      0.15314919245021
  F   -1.00320772779849     -0.88375471154498      1.40943232243101
  H   1.25578165264890     -1.20509594835947      0.14418195192732
  N   -1.39501890414695      0.96053378629826      0.13268179783832
  H   -0.95193105310486      1.67715452086248      0.69165312415162
  H   -1.56588321128900      1.27670014333779     -0.80950150270218
  C   -1.20140110984796     -1.20404189490535     -0.91828470889583
  H   -0.81210539189744     -2.20992297576428     -0.75631383356855
  H   -2.29095458122244     -1.24066172931080     -0.88040324524149
  H   -0.87210662247279     -0.84806053076855     -1.89458107819496
  N   1.28369804015450      0.37363576766507      1.48769126207360
  O   1.80798435794319     -0.38453343251762      2.29478445953030
  O   1.08700142496696      1.57993480376563      1.65505831995777
  N   1.26937110183771      0.55991794925912     -0.96285570153365
  H   2.27307393248488      0.50737256163097     -1.07761645058507
  H   0.99947301624763      1.52874360383459     -0.84972839168275
