17
Coordinates from ORCA-job run
  C   -0.48290624995599     -0.58382429437922      0.28165290400503
  C   0.91405691275545      0.06917503287260      0.32183530128553
  F   -0.20252853567294     -1.97079342365527      0.30858417128994
  H   1.27960085747033      0.03229063118664      1.35609800283120
  N   -1.20869965835562     -0.26298171232787      1.45765824752477
  H   -2.20708321823144     -0.28413431563070      1.30421705969648
  H   -0.93713053856787      0.62935196471515      1.84552062544590
  C   -1.21065765460282     -0.33744435115729     -1.02406879429782
  H   -0.58011356628376     -0.59147854334610     -1.87541084687624
  H   -1.51388799578354      0.70773178472061     -1.10469560822483
  H   -2.10545064206966     -0.96443055919900     -1.04166779541639
  N   0.74786650034258      1.55807046972260      0.06066508074486
  O   0.29299574148351      2.20801454249798      1.00453798662463
  O   1.05523045681175      2.01226174602445     -1.03229099446148
  N   1.75372020002901     -0.50070444895856     -0.67685964851904
  H   2.71557584677762     -0.21116220027713     -0.56370856638932
  H   1.69241154385339     -1.50794232280890     -0.62106712526322
