17
Coordinates from ORCA-job run
  C   -0.56014345117981     -0.54036696238579      0.27657863976391
  C   0.90614162081208     -0.10082744217836      0.41220400575401
  F   -0.57069540336381     -1.85806698486654      0.72372580819325
  H   1.26233611601489     -0.49253564125319      1.36367570490030
  N   -1.33451984286893      0.20444344964106      1.24742618969884
  H   -1.66110882578750      1.07395963510089      0.84310124445066
  H   -2.14190361066412     -0.35344517157268      1.49918245379475
  C   -1.10228220069054     -0.55578333272769     -1.13684875864950
  H   -1.09019574392180      0.44738136085871     -1.56386058540016
  H   -0.51606443513183     -1.23275498233914     -1.75924828603206
  H   -2.13184370371226     -0.91791654415802     -1.10679551764563
  N   0.95959774073517      1.40782830609069      0.58493150258814
  O   1.65091267340197      1.85324920105035      1.49477449089046
  O   0.36378031493140      2.08331787995832     -0.25832404514638
  N   1.73114201196187     -0.53998890446315     -0.66120629669784
  H   1.51992372813482     -0.04477362517049     -1.51840827451473
  H   2.71292301132840     -0.43372024158496     -0.44190827594801
