14

C	-0.592391	-0.032969	-1.408086
C	0.0	0.0	0.0
Cl	0.232075	-1.205707	-2.42962
H	1.092728	0.0	0.0
H	-1.650296	-0.286515	-1.375337
N	-0.52909	1.319992	-2.06365
O	0.559478	1.874168	-2.101893
O	-1.592638	1.764054	-2.500292
N	-0.402307	-1.232893	0.677217
H	0.390497	-1.580816	1.198331
H	-1.165613	-1.069923	1.315836
C	-0.491061	1.195854	0.698253
N	-0.952082	2.093738	1.302179
Br	3.401732	0.0	0.0
