14

C	-0.509514	0.04217	-1.435218
C	0.0	0.0	0.0
Cl	-2.281249	0.067528	-1.508213
H	1.105282	0.0	0.0
H	-0.130599	0.917676	-1.958279
N	0.015256	-1.143758	-2.211333
O	1.066636	-0.927578	-2.806648
O	-0.605829	-2.196528	-2.178334
N	-0.412296	-1.209313	0.681036
H	-1.312461	-1.11056	1.129965
H	0.291718	-1.451252	1.366015
C	-0.428158	1.241263	0.667613
N	-0.802357	2.197312	1.239566
Br	3.400105	0.0	0.0
