14

C	-0.585628	-0.063738	-1.408461
C	0.0	0.0	0.0
Cl	0.248316	-1.253556	-2.397849
H	1.092688	0.0	0.0
H	-1.643332	-0.321162	-1.375116
N	-0.522757	1.277476	-2.091654
O	0.567198	1.832365	-2.146217
O	-1.590168	1.712531	-2.529562
N	-0.403187	-1.223845	0.697787
H	-1.126864	-1.041585	1.381199
H	0.41407	-1.590782	1.172086
C	-0.491559	1.205841	0.674492
N	-0.953553	2.120926	1.249288
Br	3.415033	0.0	0.0
