17

C	-0.425655	-0.007104	-1.460954
C	0.0	0.0	0.0
Br	-2.397275	0.053186	-1.630038
H	1.092812	0.0	0.0
C	0.186277	1.150729	-2.217213
H	1.268207	1.071379	-2.068302
H	-0.168976	2.076433	-1.767895
H	-0.095266	1.110383	-3.272337
N	0.050884	-1.291143	-2.156262
O	1.127617	-1.724291	-1.765141
O	-0.60105	-1.732545	-3.099985
C	-0.456312	-1.218546	0.675034
N	-0.835953	-2.163514	1.265007
N	-0.464524	1.225279	0.631798
H	0.114573	1.386265	1.4485
H	-1.43251	1.134853	0.925251
F	2.545289	0.0	0.0
