17

C	-0.580392	0.015166	-1.414199
C	0.0	0.0	0.0
Br	0.233367	-1.410909	-2.473488
H	1.091785	0.0	0.0
C	-2.084635	-0.102443	-1.48625
H	-2.521788	0.728276	-0.927719
H	-2.436164	-0.057695	-2.515458
H	-2.385696	-1.050019	-1.03752
N	-0.141546	1.325313	-2.069782
O	1.018389	1.67022	-1.918765
O	-0.990596	1.932881	-2.724023
C	-0.471341	-1.180257	0.706017
N	-0.87943	-2.101639	1.314921
N	-0.404745	1.250506	0.659589
H	0.442228	1.632192	1.065985
H	-1.080543	1.092345	1.395539
F	2.52561	0.0	0.0
