17

C	-0.513012	0.016792	-1.444015
C	0.0	0.0	0.0
Br	0.30925	-1.448864	-2.440935
H	1.091863	0.0	0.0
C	-2.01393	-0.056699	-1.594057
H	-2.37106	-0.977144	-1.130386
H	-2.45413	0.808999	-1.094203
H	-2.306052	-0.038504	-2.642424
N	-0.006105	1.303842	-2.10141
O	-0.808856	1.917193	-2.80752
O	1.152672	1.623661	-1.905338
C	-0.490416	-1.191872	0.675597
N	-0.925769	-2.114035	1.264044
N	-0.438591	1.241488	0.643107
H	-1.222988	1.093282	1.266992
H	0.352134	1.587747	1.174818
F	2.530757	0.0	0.0
