17

C	-0.642703	-0.006187	-1.384075
C	0.0	0.0	0.0
Br	0.11516	-1.447799	-2.462452
H	1.091844	0.0	0.0
C	-2.148995	-0.125031	-1.375227
H	-2.423093	-1.072957	-0.911072
H	-2.556915	0.703513	-0.792436
H	-2.557533	-0.080957	-2.383355
N	-0.235449	1.296133	-2.071018
O	-1.129786	1.943816	-2.617093
O	0.945673	1.599227	-2.040903
C	-0.451597	-1.162219	0.749712
N	-0.836339	-2.069768	1.393627
N	-0.369547	1.266143	0.654385
H	-1.021867	1.129195	1.415886
H	0.497657	1.637903	1.027228
F	2.521178	0.0	0.0
