15
Coordinates from ORCA-job run
  C   -0.72775611200149      0.74125876108583      0.05075673926026
  C   0.76790538171398      0.44816125806389      0.17720186820907
  Br  -0.95271680335461      2.34102599428470     -1.04039642471299
  H   1.29123421776902      1.33671406170391      0.53236530583875
  H   -1.10350683896038      1.01950085955266      1.03562405413220
  C   -1.51993554313787     -0.41110055319366     -0.53684716802333
  H   -2.58438230749807     -0.17524656508303     -0.53644832687705
  H   -1.21906013850992     -0.60258721221162     -1.56780875004990
  H   -1.37041472472397     -1.31830869009083      0.05649547903681
  N   1.35597923448219     -0.04825943637220     -1.00506581156434
  H   2.36471676435949     -0.04945707111288     -0.94435657324557
  H   1.04405376820785     -0.98818416749769     -1.20897478198103
  N   0.87142047221971     -0.53101268677934      1.37333154186674
  O   1.12444907787896     -1.70811952629573      1.12869726456692
  O   0.66001355155512     -0.05438502605403      2.48442558354347
