15
Coordinates from ORCA-job run
  C   -0.64334513764981     -0.45692826406812     -0.31633992702171
  C   0.53474909741009     -0.01002441509879      0.54501306743220
  Br  -1.60202521742991     -1.89542856142526      0.59312631215569
  H   0.19686916165688      0.29915054331469      1.53504696351122
  H   -0.25160926637946     -0.90316761343114     -1.23317420462313
  C   -1.59793339347602      0.68589579421483     -0.60991776801306
  H   -2.44673738766049      0.33250952237929     -1.19569585723064
  H   -1.98120866589195      1.11871974172267      0.31720368692166
  H   -1.09073802451765      1.46489150118201     -1.18393989722026
  N   1.36311320565113      1.01021586919643     -0.03316863486509
  H   1.52524741397812      0.85164860322071     -1.01907914866002
  H   0.98462730887851      1.93283775435327      0.12072481265186
  N   1.43943621207951     -1.19334715166247      0.77988544507722
  O   1.90892789030163     -1.70501053230694     -0.23376518011316
  O   1.66062680304939     -1.53196279159116      1.93608032999722
