15
Coordinates from ORCA-job run
  C   -0.64679643678431      0.77881631283046      0.10044489544954
  C   0.78584525797059      0.26450844091173      0.21405363106998
  Br  -0.60581312150142      2.34926916998365     -1.07366931706649
  H   1.42007651138005      1.05665203046574      0.64011984681781
  H   -0.95338203580531      1.16769191428125      1.06916183295858
  C   -1.62591313631966     -0.25194618829967     -0.42207778910619
  H   -1.32018851233180     -0.62240391086982     -1.39877453600762
  H   -1.66777935335125     -1.09365123062560      0.27461944287041
  H   -2.62520919340756      0.17899133264487     -0.49405711792324
  N   1.24894385723416     -0.32217828735521     -1.00984307149064
  H   2.16806894953256     -0.72446925370477     -0.88299898950815
  H   1.29385170177065      0.39527686293561     -1.72255492178010
  N   0.82007958793511     -0.80921520466774      1.29252989876928
  O   1.56877355585144     -1.76375059948060      1.11899953644817
  O   0.14144236782677     -0.60359138904991      2.29504665849866
