15
Coordinates from ORCA-job run
  C   -0.63561002975804      0.73846899246844      0.09783496051538
  C   0.84248999712883      0.34552423885014      0.28847761467572
  Br  -0.66581011965876      2.31337099797588     -1.06133553236612
  H   1.36912679271777      1.18212148279398      0.74928415199521
  H   -1.02219199588747      1.08691102233988      1.05740508335452
  C   -1.50945929706500     -0.35492233834272     -0.48241634329378
  H   -1.52023828653661     -1.22374395698804      0.18063684210325
  H   -1.15310149311856     -0.66785673965994     -1.46520417162350
  H   -2.53369304323333      0.00120357490914     -0.59605839392131
  N   1.59169074819638     -0.13427919738833     -0.82611012220183
  H   1.13831124491132     -0.91462987136368     -1.28102303636564
  H   1.74890587473630      0.61245691656114     -1.48898154009749
  N   0.81440304998803     -0.73345257043068      1.34801229867399
  O   0.64238104961069     -0.35231188916978      2.50327141324781
  O   0.89179550796846     -1.89986066255543      0.97520677530380
