15
Coordinates from ORCA-job run
  C   -0.58901292307396      0.31771755720008     -0.65589455820340
  C   0.64935702645527      0.37924807217596      0.23654821337913
  Br  -0.32266715933499     -0.97625006004211     -2.10202676534424
  H   0.42919731894424      1.06728086297576      1.05794211282350
  H   -0.62135614857164      1.28571220987255     -1.15898809255951
  C   -1.89902094988871      0.03158400551168      0.05278476731671
  H   -2.72721005484510      0.14986007338444     -0.64711153546399
  H   -2.03305816158712      0.73791205476778      0.87699887060778
  H   -1.92788701072682     -0.97717279182706      0.46092856872385
  N   1.79875396050322      0.80549154180549     -0.46940563096346
  H   2.59030065164389      0.91637623630009      0.15032240804241
  H   2.04291486506928      0.14022781403816     -1.19223011426495
  N   0.82927905005836     -0.96886642403212      0.95294794290696
  O   0.06887422397116     -1.19383755711712      1.89243247956843
  O   1.71053531138292     -1.71728359501358      0.54275133343078
