15
Coordinates from ORCA-job run
  C   -0.52440196739139      0.33323803156720     -0.62247248409073
  C   0.71220873369165      0.29731842655772      0.29238788507563
  Br  -0.30134111132495     -0.84331440279772     -2.16778662186610
  H   0.53677411889885      1.03150032156428      1.08301820874146
  H   -0.54095402826463      1.33870927702825     -1.05173234322874
  C   -1.83886811575953      0.03230721467546      0.07415197967219
  H   -1.94596262757495      0.67099150267640      0.95545969888531
  H   -1.88849349783752     -1.00613468214783      0.40081353166364
  H   -2.67343404578624      0.22271966210409     -0.60157890169371
  N   1.99674222545353      0.52398286743475     -0.28739423571996
  H   2.12761330767913     -0.04047921988519     -1.11697754732680
  H   2.11875227279747      1.50173089529613     -0.51283478373219
  N   0.74531690839812     -1.02658056770081      1.01301284468302
  O   0.09975152886171     -1.10168651902646      2.05780643704550
  O   1.37729629815875     -1.93430280734627      0.48512633189150
