15
Coordinates from ORCA-job run
  C   -0.64720804256372     -0.27331177461206     -0.54965572458117
  C   0.47454145379361     -0.15330188561809      0.47261561152321
  Br  -1.28434769806506     -2.11856002426424     -0.58866463544910
  H   0.13595683954763     -0.45399308550483      1.46509973793881
  H   -0.23435259623979     -0.09428588962584     -1.54500694745625
  C   -1.79738809035599      0.66518731718152     -0.23877049686484
  H   -2.59114808588535      0.54895514998527     -0.97749353428883
  H   -2.21195475842958      0.44872699915035      0.74810451438688
  H   -1.44166926999135      1.69584133394836     -0.24852787382222
  N   0.98198017556446      1.18112039887032      0.49217602406792
  H   1.63718684173710      1.31551385590281      1.25190498925590
  H   1.44228243156264      1.39439880180264     -0.38524152648307
  N   1.56819240665492     -1.15561440999742      0.12018280938162
  O   1.87125936628595     -1.99552722481627      0.96179922594621
  O   2.09766902638454     -1.00514956240253     -0.97952217355508
