15
Coordinates from ORCA-job run
  C   -0.60159784585683      0.75963199970359     -0.13702658862732
  C   0.83573901442274      0.37799454462769      0.26669606078556
  Br  -0.46448995513730      2.00302807840190     -1.64070896609726
  H   1.37016993367841      1.28389396044337      0.55521656788887
  H   -1.03983913294766      1.34523593095469      0.67328203725730
  C   -1.48615805522836     -0.41342403688856     -0.50779597802644
  H   -1.59173592665842     -1.09253163744274      0.34202789134310
  H   -2.47901927961950     -0.06212127805199     -0.78996351464773
  H   -1.07544429013171     -0.96901679914108     -1.35240240541660
  N   1.63955103055839     -0.38393318863963     -0.63190920718631
  H   1.88566462749636      0.17385008289175     -1.43821146873761
  H   1.17942547071812     -1.23476614174138     -0.92497282288432
  N   0.67331179592864     -0.40760132345103      1.54939651411292
  O   0.43831787750029      0.25044311980429      2.55998064017531
  O   0.71510473527684     -1.63168331147088      1.47639124006053
