15
Coordinates from ORCA-job run
  C   -0.67198470946392      0.75365675401746      0.11197665627021
  C   0.77084101347750      0.27630140549944      0.25452504271771
  Br  -0.63983736905662      2.37712670963064     -0.98814126268192
  H   1.36451413558996      1.06612541886395      0.73932360238580
  H   -1.02360530024825      1.08850629142647      1.08555693947943
  C   -1.60099775068601     -0.27988711884559     -0.49055386349217
  H   -2.60969397261752      0.12539858266720     -0.57851216889663
  H   -1.25155573236849     -0.59667349739226     -1.47151716553244
  H   -1.64120709064173     -1.15354139463407      0.16572986983297
  N   1.29398915184272     -0.23945020926329     -0.97635027642969
  H   2.22571867870305     -0.60778023171471     -0.83977238827272
  H   1.32549858665529      0.50623749827998     -1.66009411795811
  N   0.79893052383688     -0.84399648854035      1.28426506393473
  O   1.57758156721756     -1.77066564018654      1.09342577795286
  O   0.08380826775956     -0.70035807980832      2.27213829068999
