13

C	0.0	0.0	0.0
C	-0.25349	-0.095808	-1.51986
F	1.374901	0.0	0.0
H	0.30063	0.731425	-1.969377
H	-0.392326	-0.855021	0.54229
C	-0.442887	1.279792	0.557888
N	-0.501577	2.357838	1.022171
C	-1.558831	-0.174829	-2.179759
N	-2.211984	-0.262934	-3.160455
N	0.50419	-1.329847	-1.982413
O	0.330486	-2.363007	-1.347175
O	1.210752	-1.20218	-2.976399
Cl	-2.999813	0.0	0.0
