13

C	0.0	0.0	0.0
C	-0.550741	-0.192051	-1.403017
F	1.371581	0.0	0.0
H	-1.664929	-0.128506	-1.280744
H	-0.363491	-0.844284	0.591481
C	-0.43066	1.242751	0.663781
N	-0.59247	2.218625	1.295322
C	-0.15738	-1.486422	-1.939477
N	0.152515	-2.551245	-2.325889
N	-0.127102	0.879506	-2.366283
O	-0.258183	0.621354	-3.558893
O	0.264489	1.943042	-1.89974
Cl	-3.299244	0.0	0.0
