13

C	0.0	0.0	0.0
C	-0.445914	-0.014247	-1.465596
F	1.371435	0.0	0.0
H	-1.539655	0.096518	-1.551799
H	-0.427892	-0.883159	0.478807
C	-0.406596	1.184622	0.769701
N	-0.627023	2.1782	1.353827
C	-0.012518	-1.266045	-2.079933
N	0.300256	-2.29918	-2.538999
N	0.168052	1.124529	-2.272495
O	0.207005	0.956724	-3.489613
O	0.513258	2.133392	-1.670747
Cl	-3.173463	0.0	0.0
