17

C	-0.193057	-0.025215	-1.504803
C	0.0	0.0	0.0
F	-0.110883	-1.359363	-1.947329
H	1.098758	0.0	0.0
N	-1.609112	0.32736	-1.999855
O	-1.714477	0.633363	-3.185084
O	-2.540719	0.222908	-1.206944
N	0.721126	0.826781	-2.09983
H	1.642807	0.692674	-1.652827
H	0.744433	0.726785	-3.104622
C	-0.517862	-1.199643	0.777507
H	-1.606228	-1.271112	0.749346
H	-0.079173	-2.108415	0.36573
H	-0.189484	-1.108424	1.81565
C	-0.444087	1.266128	0.554097
N	-0.783147	2.272807	1.057808
H	2.713626	0.0	0.0
