17

C	-0.192073	-0.027038	-1.504869
C	0.0	0.0	0.0
F	-0.107693	-1.361204	-1.946056
H	1.098847	0.0	0.0
N	-1.607903	0.32361	-2.001311
O	-2.539854	0.221024	-1.208504
O	-1.712874	0.627787	-3.18727
N	0.721384	0.825567	-2.100059
H	0.74556	0.724476	-3.104813
H	1.642972	0.69257	-1.652332
C	-0.518248	-1.198509	0.778981
H	-0.081236	-2.108235	0.367344
H	-0.188619	-1.106952	1.816776
H	-1.606787	-1.268653	0.752094
C	-0.443917	1.267101	0.552146
N	-0.7789	2.27629	1.053693
H	2.712995	0.0	0.0
