17

C	-0.497998	-0.013436	-1.431074
C	0.0	0.0	0.0
F	-0.096989	1.100371	-2.093514
H	1.094319	0.0	0.0
N	0.206772	-1.18749	-2.174781
O	-0.299999	-2.296412	-1.980434
O	1.174738	-0.95218	-2.880092
N	-1.906332	-0.117276	-1.567826
H	-2.223664	-0.980246	-1.149426
H	-2.156354	-0.115254	-2.550846
C	-0.396118	-1.210353	0.845373
H	0.059361	-1.083725	1.82973
H	-1.477409	-1.320555	0.97348
H	0.017361	-2.119181	0.409449
C	-0.465108	1.229566	0.621337
N	-0.82239	2.202497	1.176885
H	2.683125	0.0	0.0
