17

C	-0.221989	0.042919	-1.510718
C	0.0	0.0	0.0
F	-0.004922	-1.21057	-2.002886
H	1.097639	0.0	0.0
N	-1.69111	0.353435	-1.835204
O	-1.98717	1.529545	-2.035502
O	-2.480541	-0.586688	-1.801547
N	0.603675	0.960521	-2.20133
H	0.269657	1.901767	-2.037257
H	1.537725	0.85933	-1.784779
C	-0.537221	-1.222152	0.728681
H	-0.112763	-2.117821	0.27544
H	-0.212029	-1.182966	1.771265
H	-1.627834	-1.285892	0.695057
C	-0.432516	1.24812	0.600654
N	-0.75536	2.257104	1.112734
H	2.684999	0.0	0.0
