12

C	0.0	0.0	0.0
C	-0.333828	-0.032051	-1.493789
F	1.389226	0.0	0.0
H	-1.402492	0.055458	-1.650716
H	-0.409257	-0.862596	0.51611
H	0.164418	0.844701	-1.931404
C	-0.411272	1.239484	0.684699
N	-0.519408	2.191539	1.362215
N	0.17093	-1.298412	-2.035258
H	-0.370024	-1.545659	-2.852428
H	1.137153	-1.186078	-2.320296
Br	-3.516231	0.0	0.0
