12

C	0.0	0.0	0.0
C	-0.477081	-0.006205	-1.442778
F	1.383323	0.0	0.0
H	-1.488956	0.403654	-1.493062
H	-0.377942	-0.879276	0.527702
H	0.208126	0.650158	-1.991367
C	-0.386188	1.230202	0.725117
N	-0.539824	2.20171	1.363324
N	-0.396254	-1.381107	-1.96207
H	-1.327937	-1.781364	-1.88469
H	-0.169471	-1.353415	-2.949711
Br	-3.602783	0.0	0.0
