12

C	0.0	0.0	0.0
C	-0.550732	-0.115617	-1.413566
F	1.378929	0.0	0.0
H	0.186185	-0.705428	-1.97121
H	-0.335135	-0.854573	0.595029
H	-1.495314	-0.659532	-1.354108
C	-0.405647	1.235975	0.695209
N	-0.577922	2.225556	1.301031
N	-0.687037	1.204672	-2.032514
H	-0.824637	1.074255	-3.028153
H	-1.562879	1.588076	-1.678799
Br	-3.669046	0.0	0.0
