12

C	0.0	0.0	0.0
C	-0.471025	-0.0322	-1.447254
F	1.388235	0.0	0.0
H	0.076625	0.753742	-1.975702
H	-0.363145	-0.86474	0.556843
H	-1.536385	0.190938	-1.462708
C	-0.383183	1.245793	0.690892
N	-0.541622	2.263809	1.251664
N	-0.234646	-1.310255	-2.105246
H	0.692718	-1.645807	-1.872919
H	-0.912128	-1.977285	-1.75758
Br	-3.641048	0.0	0.0
