16

C	-0.411383	-0.044182	-1.479499
C	0.0	0.0	0.0
Br	0.341193	1.666569	-2.302478
H	1.095252	0.0	0.0
C	0.296357	-1.186538	-2.177964
H	-0.100064	-2.130016	-1.792865
H	1.365659	-1.118849	-1.959813
H	0.127808	-1.139946	-3.256875
N	-1.820497	-0.097432	-1.643389
H	-2.266607	0.684688	-1.17626
H	-2.064108	-0.070082	-2.627516
C	-0.423601	-1.224418	0.664494
N	-0.714124	-2.240417	1.181842
C	-0.533296	1.153838	0.700498
N	-0.953006	2.092512	1.273707
H	2.536002	0.0	0.0
