16

C	-0.40269	0.035089	-1.486221
C	0.0	0.0	0.0
Br	0.154617	1.782685	-2.220718
H	1.09625	0.0	0.0
C	0.388862	-1.034171	-2.226978
H	0.052261	-2.021534	-1.891794
H	1.452623	-0.922277	-1.991015
H	0.221839	-0.950453	-3.303973
N	-1.844365	-0.019442	-1.632377
H	-2.169748	-0.88602	-1.211058
H	-2.078756	-0.041891	-2.620412
C	-0.438881	-1.26228	0.576475
N	-0.800956	-2.296716	1.007062
C	-0.522115	1.108187	0.779681
N	-0.891435	1.992808	1.460961
H	2.552754	0.0	0.0
