16

C	-0.407363	-0.208901	-1.465273
C	0.0	0.0	0.0
Br	0.367365	1.388548	-2.479218
H	1.10595	0.0	0.0
C	0.289034	-1.430515	-2.026846
H	-0.117065	-2.319923	-1.537079
H	0.122743	-1.505999	-3.103723
H	1.357922	-1.348605	-1.815686
N	-1.815947	-0.264321	-1.630634
H	-2.254902	0.567602	-1.251518
H	-2.055729	-0.339935	-2.612901
C	-0.432814	-1.137333	0.796533
N	-0.725693	-2.081414	1.433996
C	-0.518074	1.23261	0.562121
N	-0.900348	2.248367	1.017553
H	2.515233	0.0	0.0
