16

C	-0.403052	0.037179	-1.486398
C	0.0	0.0	0.0
Br	0.154237	1.786652	-2.214862
H	1.096308	0.0	0.0
C	0.390804	-1.027723	-2.231514
H	0.222111	-0.941492	-3.307679
H	0.057242	-2.016771	-1.899138
H	1.454362	-0.914792	-1.996508
N	-1.84416	-0.017246	-1.632473
H	-2.078069	-0.040398	-2.620726
H	-2.169712	-0.88313	-1.209891
C	-0.435849	-1.264679	0.572161
N	-0.774687	-2.312204	0.989763
C	-0.521542	1.105353	0.784188
N	-0.883018	1.996798	1.46105
H	2.550103	0.0	0.0
