15
Coordinates from ORCA-job run
  C   0.75426195966780      0.10588654396934      0.01440632562051
  C   -0.65509271093749      0.52714784757305     -0.40729632365912
  Cl  1.71679651301460      1.49579891881527      0.38716045822748
  H   -0.56199222666760      1.21808208601639     -1.24616072808672
  N   0.72404271054912     -0.90432241679963      1.17821018838570
  O   1.21349625771965     -0.58075653802665      2.24190186181367
  O   0.18996777673530     -1.95838515623431      0.86528623765291
  N   1.42374663322708     -0.65812226725266     -1.13448099134105
  O   0.91103591936365     -0.53419674457299     -2.23853284979452
  O   2.42902030070234     -1.27807750365056     -0.83190832997686
  N   -1.27395853013067      1.32011910741888      0.73103710827488
  O   -1.43015318980207      0.71127404866818      1.78203354517344
  O   -1.55559273065242      2.48520439541949      0.48649260390450
  C   -1.55098805553924     -0.56628357288640     -0.75369152497949
  N   -2.33459062725006     -1.38136874845740     -1.07345758121535
