15
Coordinates from ORCA-job run
  C   0.75716134483257      0.20754957345101     -0.18523582027145
  C   -0.71080770335191      0.63229991724343     -0.13243670520003
  Cl  1.65163626800171      1.33133368906202     -1.16706068548532
  H   -0.72964052262079      1.62785288354350      0.32422194227048
  N   1.36869148029837      0.22431747873579      1.23208172480366
  O   1.91692738851838     -0.79325587849836      1.61334374032207
  O   1.24397186027686      1.29006512505634      1.80948936581639
  N   0.90991208134708     -1.21142041041574     -0.73064400006271
  O   2.00744720910466     -1.52562552823109     -1.15448276056805
  O   -0.09846407300309     -1.90396358788578     -0.64947364961264
  N   -1.56520782222186     -0.23670855175440      0.79110578943730
  O   -1.02442274515971     -0.59121483234049      1.82743066228487
  O   -2.71645751325754     -0.43228806535386      0.44405880262404
  C   -1.28753822774085      0.66324605637380     -1.46695797934532
  N   -1.72320902502388      0.71781213101384     -2.55644042701327
