15
Coordinates from ORCA-job run
  C   0.75311146116034      0.22321126806841     -0.18159259043259
  C   -0.72409357010182      0.61351619800959     -0.13049342773023
  Cl  1.62433041886950      1.37540182248938     -1.15182498861707
  H   -0.76671500620749      1.60521843147043      0.33298280965944
  N   1.35798431634096      0.24680646524503      1.23916633442457
  O   1.93970193352604     -0.75398907312255      1.61391834943129
  O   1.19206844175929      1.30151930905887      1.82597189519966
  N   0.94281442952515     -1.18665700411779     -0.73728002574312
  O   2.05338482796455     -1.47440022083321     -1.14599698925010
  O   -0.05230153543325     -1.90078039162258     -0.68102200333971
  N   -1.56242236761433     -0.27859477589539      0.78522064638552
  O   -2.72270452950769     -0.45229129531583      0.45559398412085
  O   -1.00389770455691     -0.67186747281438      1.79748584285607
  C   -1.29926946323871      0.64365150119103     -1.46551904705853
  N   -1.73199165248563      0.71025523818898     -2.55561078990604
