15
Coordinates from ORCA-job run
  C   0.44847152716714     -0.50489417476258      0.03638843489718
  C   -0.69347297308255      0.47359085608049     -0.21790966580303
  Cl  -0.07431879210510     -2.13738722425252      0.13922728165540
  H   -0.29862653517896      1.49219178546296     -0.19414710495667
  N   1.50294931728060     -0.33758113693238     -1.08415765763713
  O   2.33056810117649     -1.22808057623970     -1.17318693556839
  O   1.44172678986132      0.70618558597453     -1.72087341567086
  N   1.26046890027593     -0.06297123777619      1.28495017674067
  O   1.50363274627111      1.13575765499450      1.29767040824533
  O   1.61254190527183     -0.91870571534671      2.06964914797383
  N   -1.71198725836012      0.40359491957407      0.91673426142634
  O   -1.25862774379494      0.15966205787547      2.02663726983901
  O   -2.86850782545689      0.66312704787220      0.62509280920987
  C   -1.34643707240439      0.19555744283060     -1.48636028951776
  N   -1.84938108692147     -0.03904728535472     -2.52171472083379
