15
Coordinates from ORCA-job run
  C   0.75949866828845      0.06162762161028      0.01598553451588
  C   -0.62075372384677      0.55533853657466     -0.42342853419407
  Cl  1.79965123003311      1.40092294950968      0.36492148188332
  H   -0.48269582517218      1.22211329073953     -1.27553780215122
  N   0.66449721762342     -0.91938745213614      1.20064048211299
  O   0.07246599829092     -1.94768476050956      0.90682529462846
  O   1.16504335689405     -0.60120156687730      2.26082809792136
  N   1.38891534524310     -0.76493590009147     -1.11220165468121
  O   2.35506594017095     -1.43522695701913     -0.79029077938032
  O   0.88920578325277     -0.63585205804455     -2.22158426795409
  N   -1.19809464695029      1.40699573214769      0.69440810203906
  O   -1.39741015563387      0.83009907830782      1.75600742162293
  O   -1.40802368754316      2.58147865629968      0.42421813202727
  C   -1.57732162145593     -0.49086640953502     -0.75268216794929
  N   -2.41004387919453     -1.26542076097617     -1.04810934044106
