15
Coordinates from ORCA-job run
  C   0.48323336597933     -0.47248306914686      0.03979279524577
  C   -0.71747935327045      0.42808336864852     -0.23164811845356
  Cl  0.07805274856672     -2.14065622541912      0.08375270822297
  H   -0.39805675650184      1.47128625061713     -0.17087970838538
  N   1.56023203884345     -0.19994791475606     -1.03765096892762
  O   1.44110262222752      0.84992945257163     -1.65597534652444
  O   2.45639573879177     -1.02267819455075     -1.11397011822827
  N   1.21769904836411     -0.00680750301337      1.32702123713435
  O   1.37253835950004      1.20555838280383      1.37705232727429
  O   1.60433841652186     -0.85546277970097      2.10305794286603
  N   -1.76572139783449      0.25784811335477      0.86485523612423
  O   -1.33417777950448      0.01132263786751      1.98284963532129
  O   -2.92644810629905      0.45065388611959      0.54025011567046
  C   -1.30677457745408      0.13590998969983     -1.52773004620389
  N   -1.76493436793038     -0.11555639509563     -2.57977769113625
