15
Coordinates from ORCA-job run
  C   0.60149423430747     -0.13693014179355      0.44707886718906
  C   -0.70689827685161      0.59471155693221      0.13976680264184
  Cl  0.72517912959838     -0.47139786406108      2.14128994780616
  H   -0.74043633459716      1.49453738340085      0.75535786167894
  N   0.75799637566399     -1.41083701575974     -0.40562624391047
  O   0.79075766336467     -2.48709619995532      0.15685097349931
  O   0.83971509399061     -1.16393857241630     -1.60006241216481
  N   1.78768451124568      0.74361550173342      0.03481633516307
  O   1.54480510434033      1.92883602020725     -0.14773578238527
  O   2.86344310748004      0.17309400808521     -0.02583599970574
  N   -1.85977766626383     -0.28038274506494      0.60141365110121
  O   -1.96494856980748     -1.36370479331138      0.04026662493565
  O   -2.56860694791803      0.18265823640718      1.48436433291850
  C   -0.91316997881101      0.93516190741155     -1.26010904924213
  N   -1.15723744574208      1.26267271818469     -2.36183590952532
