16

C	0.0	0.0	0.0
C	-0.501139	0.071274	-1.432312
F	1.42099	0.0	0.0
H	-1.578574	-0.142845	-1.413185
H	-0.304874	1.047951	-1.86828
C	-0.468355	1.229298	0.744616
H	-0.035825	2.130654	0.304948
H	-1.560125	1.260483	0.708031
H	-0.144867	1.162871	1.787148
N	-0.461019	-1.169553	0.646279
H	-0.206408	-2.00173	0.135386
H	-0.128957	-1.207201	1.599135
N	0.174026	-0.900766	-2.334597
O	0.215886	-2.083479	-1.994117
O	0.638137	-0.468529	-3.388957
Br	-4.014666	0.0	0.0
