16

C	0.0	0.0	0.0
C	-0.194579	0.313133	-1.502282
F	1.42423	0.0	0.0
H	-0.106388	1.383923	-1.674208
H	0.602969	-0.210746	-2.031328
C	-0.510603	1.089536	0.905281
H	-0.275415	0.848344	1.946455
H	-0.035619	2.041711	0.6607
H	-1.598664	1.15065	0.784945
N	-0.528263	-1.229688	0.354203
H	-0.369801	-2.01244	-0.253171
H	-0.609566	-1.433218	1.333112
N	-1.433026	-0.141894	-2.189514
O	-1.593639	-1.357396	-2.258111
O	-2.113824	0.708794	-2.749304
Br	-4.130335	0.0	0.0
