16

C	0.0	0.0	0.0
C	-0.448522	0.021105	-1.465051
F	1.393821	0.0	0.0
H	-0.154663	-0.90886	-1.953584
H	-1.534281	0.16159	-1.482994
C	-0.43866	1.213111	0.793504
H	-1.521323	1.334207	0.734315
H	-0.145139	1.043256	1.831409
H	0.053989	2.108163	0.416379
N	-0.479317	-1.187999	0.644106
H	-0.373315	-1.984211	0.023658
H	-1.482304	-1.057659	0.792879
N	0.189741	1.098494	-2.268386
O	1.026875	0.763731	-3.110749
O	-0.149833	2.260522	-2.046538
Br	-3.828859	0.0	0.0
