16

C	0.0	0.0	0.0
C	-0.13642	0.089198	-1.550683
F	1.413263	0.0	0.0
H	0.169168	1.077885	-1.886945
H	0.539969	-0.666539	-1.950089
C	-0.484444	1.234163	0.71624
H	-0.240205	1.1417	1.776531
H	-1.567816	1.321309	0.59898
H	0.012156	2.117122	0.309057
N	-0.504366	-1.178175	0.602638
H	-0.430932	-1.960711	-0.036713
H	-1.501476	-1.034485	0.772264
N	-1.443423	-0.197115	-2.190485
O	-1.767698	-1.381555	-2.253528
O	-2.057674	0.747796	-2.678373
Br	-3.949498	0.0	0.0
