16

C	0.0	0.0	0.0
C	-0.481974	-0.020013	-1.448548
F	1.379262	0.0	0.0
H	-1.572744	-0.079033	-1.462901
H	-0.10871	0.858522	-1.972205
C	-0.440248	1.297444	0.65898
H	-1.530479	1.344712	0.66915
H	-0.026645	2.162564	0.132795
H	-0.065484	1.308103	1.687178
N	-0.443644	-1.198394	0.654128
H	-0.289931	-1.098246	1.651555
H	-1.451913	-1.273867	0.515983
N	0.068806	-1.195712	-2.171393
O	-0.597804	-2.226926	-2.18626
O	1.171889	-1.058888	-2.705963
Br	-3.860296	0.0	0.0
