18

C	0.0	0.0	0.0
C	-0.510992	-0.26549	-1.415276
F	1.401206	0.0	0.0
H	-1.596046	-0.095449	-1.290101
C	-0.486083	1.328906	0.536724
H	-0.074288	1.498373	1.536157
H	-0.150421	2.111506	-0.144759
H	-1.581415	1.230862	0.544154
C	-0.396694	-1.091152	0.915009
N	-0.548462	-1.987459	1.658198
C	-0.241893	-1.69981	-1.862758
H	0.822865	-1.949034	-1.774907
H	-0.818308	-2.411285	-1.267539
H	-0.535051	-1.819104	-2.911032
N	0.086986	0.740965	-2.300565
H	-0.46563	0.784224	-3.14785
H	1.022164	0.443294	-2.558541
F	-2.848059	0.0	0.0
