18

C	0.0	0.0	0.0
C	-0.468907	-0.187289	-1.471557
F	1.388168	0.0	0.0
H	0.464276	-0.397829	-2.012376
C	-0.493757	1.240264	0.715464
H	-1.587196	1.151464	0.73348
H	-0.166539	2.136622	0.183564
H	-0.075425	1.256325	1.725687
C	-0.362538	-1.176418	0.830399
N	-0.472262	-2.053949	1.602058
C	-1.129743	1.066045	-2.053432
H	-2.054948	1.211283	-1.492044
H	-1.375553	0.871674	-3.104043
H	-0.493724	1.958821	-2.022336
N	-1.332617	-1.362253	-1.554928
H	-1.612573	-1.467597	-2.525572
H	-2.168083	-1.061256	-1.006151
F	-2.951271	0.0	0.0
