18

C	0.0	0.0	0.0
C	-0.502238	0.229059	-1.435016
F	1.398857	0.0	0.0
H	-1.594695	0.155218	-1.302389
C	-0.501557	1.039917	0.977908
H	-0.148766	0.807267	1.986661
H	-0.118891	2.023517	0.69162
H	-1.600383	0.966396	0.892728
C	-0.399147	-1.345614	0.463235
N	-0.552785	-2.445611	0.84539
C	0.040838	-0.825052	-2.38925
H	-0.257727	-1.831328	-2.083699
H	1.134951	-0.788723	-2.438634
H	-0.352966	-0.62886	-3.388498
N	-0.154048	1.560107	-1.941722
H	-0.748137	2.244951	-1.487704
H	0.807523	1.773072	-1.688819
F	-2.840648	0.0	0.0
