18

C	0.0	0.0	0.0
C	-0.452179	-0.044299	-1.466175
F	1.401054	0.0	0.0
H	-1.518325	0.208558	-1.408435
C	-0.464547	1.260293	0.702015
H	-0.096375	2.11407	0.129454
H	-1.560137	1.196915	0.689835
H	-0.056955	1.286359	1.716877
C	-0.416515	-1.200816	0.746324
N	-0.528042	-2.165598	1.406367
C	-0.291304	-1.439695	-2.064385
H	-0.993008	-2.135963	-1.599693
H	-0.500065	-1.408294	-3.138759
H	0.729439	-1.816084	-1.924535
N	0.303628	0.995166	-2.179788
H	-0.112684	1.115037	-3.095317
H	1.259168	0.676918	-2.314671
F	-2.776762	0.0	0.0
