18

C	0.0	0.0	0.0
C	-0.489104	0.053883	-1.448369
F	1.376094	0.0	0.0
H	-1.580123	0.141774	-1.309033
C	-0.495155	1.187347	0.803864
H	-0.126534	2.088899	0.316123
H	-0.121585	1.137902	1.829716
H	-1.590804	1.111391	0.767124
C	-0.424797	-1.26177	0.646332
N	-0.588952	-2.279788	1.206895
C	-0.114986	-1.211651	-2.217614
H	-0.401772	-1.103335	-3.268959
H	-0.622793	-2.090996	-1.816607
H	0.967354	-1.384911	-2.178431
N	0.064541	1.268727	-2.059849
H	-0.467766	1.465	-2.89994
H	1.021098	1.081169	-2.343337
F	-2.83513	0.0	0.0
