18

C	0.0	0.0	0.0
C	-0.428672	0.012192	-1.514502
F	1.402668	0.0	0.0
H	0.500546	-0.276034	-2.023619
C	-0.540683	1.093678	0.8868
H	-0.166448	0.958499	1.905615
H	-1.635142	0.975305	0.838995
H	-0.221855	2.070148	0.51797
C	-0.357454	-1.314383	0.582167
N	-0.53491	-2.36654	1.07223
C	-0.852434	1.403031	-1.965195
H	-1.798182	1.625736	-1.470125
H	-0.110957	2.17483	-1.738144
H	-1.018147	1.374374	-3.044138
N	-1.47678	-0.914509	-1.90089
H	-1.170795	-1.859282	-1.692594
H	-2.267331	-0.690069	-1.250044
F	-2.985962	0.0	0.0
