18

C	0.0	0.0	0.0
C	-0.442163	0.237447	-1.493613
F	1.396115	0.0	0.0
H	0.490921	0.070926	-2.046853
C	-0.534903	0.949487	1.044492
H	-0.225088	1.97139	0.819575
H	-0.146734	0.667667	2.027711
H	-1.628224	0.833868	0.991324
C	-0.357304	-1.385771	0.383606
N	-0.507699	-2.504403	0.707303
C	-0.926589	1.662557	-1.718749
H	-0.205556	2.417463	-1.390177
H	-1.113923	1.792826	-2.78623
H	-1.869332	1.766376	-1.178325
N	-1.461637	-0.654561	-2.016186
H	-2.25607	-0.544315	-1.34381
H	-1.131252	-1.611564	-1.946896
F	-2.972464	0.0	0.0
