18

C	0.0	0.0	0.0
C	-0.584552	-0.389222	-1.387093
F	1.392747	0.0	0.0
H	-1.361248	-1.123924	-1.162568
C	-0.48023	1.318212	0.563534
H	-0.002841	1.482842	1.53362
H	-1.567884	1.214705	0.649995
H	-0.217486	2.116334	-0.130264
C	-0.342288	-1.09304	0.945582
N	-0.474703	-1.988034	1.693942
C	0.475827	-1.009903	-2.281579
H	1.259044	-0.291231	-2.530911
H	0.935324	-1.877528	-1.799827
H	0.005217	-1.352884	-3.209591
N	-1.219441	0.782803	-1.993846
H	-2.080654	0.819403	-1.418576
H	-1.51021	0.505137	-2.92761
F	-2.879707	0.0	0.0
