18

C	0.0	0.0	0.0
C	-0.249833	0.034762	-1.56038
F	1.377597	0.0	0.0
H	0.552339	0.715779	-1.877807
C	-0.593911	1.166793	0.738742
H	-0.259288	1.175069	1.780849
H	-1.688689	1.001697	0.652759
H	-0.287597	2.09899	0.254394
C	-0.433395	-1.282644	0.580415
N	-0.609833	-2.35767	1.020383
C	-1.563309	0.562259	-2.099857
H	-2.414285	0.112684	-1.569447
H	-1.641169	1.637196	-1.923073
H	-1.555853	0.390463	-3.181123
N	0.051438	-1.259383	-2.180727
H	-0.705504	-1.900015	-1.95419
H	0.894006	-1.640315	-1.760811
F	-3.061138	0.0	0.0
