18

C	0.0	0.0	0.0
C	-0.246755	-0.046715	-1.545185
F	1.402364	0.0	0.0
H	0.008911	0.98352	-1.856176
C	-0.658026	1.162273	0.681222
H	-0.371914	1.207188	1.736172
H	-1.748731	0.958842	0.573604
H	-0.373676	2.094986	0.185476
C	-0.390417	-1.274901	0.631706
N	-0.611011	-2.287187	1.183554
C	-1.631273	-0.392326	-2.04952
H	-1.69043	-0.111215	-3.110227
H	-1.761575	-1.476631	-1.968856
H	-2.442472	0.035687	-1.428736
N	0.691937	-1.027905	-2.112272
H	0.425564	-1.181286	-3.077176
H	1.63701	-0.66969	-2.093122
F	-3.252594	0.0	0.0
