18

C	0.0	0.0	0.0
C	-0.458764	-0.078577	-1.485437
F	1.391406	0.0	0.0
H	0.473118	-0.289168	-2.026596
C	-0.517147	1.170422	0.807025
H	-1.610419	1.059587	0.801219
H	-0.203574	2.112561	0.353167
H	-0.113628	1.112426	1.821361
C	-0.3551	-1.245824	0.726241
N	-0.478667	-2.181514	1.424626
C	-1.068613	1.22962	-1.994347
H	-2.011472	1.357615	-1.457885
H	-1.275226	1.122875	-3.06539
H	-0.417608	2.10304	-1.869242
N	-1.359879	-1.214823	-1.656611
H	-2.187985	-0.946307	-1.076817
H	-1.648253	-1.229981	-2.630862
F	-2.976744	0.0	0.0
