18

C	0.0	0.0	0.0
C	-0.271136	-0.095607	-1.554606
F	1.399862	0.0	0.0
H	0.621297	0.405417	-1.949682
C	-0.545369	1.233337	0.668532
H	-1.642659	1.103753	0.6188
H	-0.215354	2.122712	0.124222
H	-0.187111	1.291069	1.700799
C	-0.427809	-1.216949	0.708032
N	-0.629319	-2.221167	1.282693
C	-1.498262	0.593169	-2.120659
H	-2.394139	0.218506	-1.604365
H	-1.457563	1.66867	-1.924682
H	-1.500977	0.432941	-3.204002
N	-0.221826	-1.47399	-2.044321
H	-1.070601	-1.934849	-1.729939
H	0.5584	-1.954949	-1.606594
F	-2.979199	0.0	0.0
