14
Coordinates from ORCA-job run
  C   0.86531578858160     -0.58958554042939      0.77314555382008
  C   -0.47143942431772      0.05375129334718      0.40886767384349
  H   1.35028838793627      0.02841961846930      1.53442314450288
  H   -1.09410069902484      0.09284292901589      1.30929050053408
  H   0.70966362649425     -1.58340702226206      1.19314303742727
  C   1.74727795096369     -0.69197490658397     -0.38849146408551
  N   2.44341143677031     -0.75044953675837     -1.33114119927660
  N   -1.23587621855764     -0.87339126711680     -0.51751004676156
  O   -2.06443810644658     -0.36103570748038     -1.26267298111351
  O   -1.01330821768955     -2.07722690501057     -0.41865527000310
  C   -0.33860302940040      1.42950811540975     -0.21245626583703
  H   0.20141268258525      1.37468947906475     -1.15916964759339
  H   -1.31661577941566      1.86853789570294     -0.39713488960852
  H   0.21601160152101      2.07932155463173      0.46836185415143
