14
Coordinates from ORCA-job run
  C   1.19505476191302     -0.15905842680068      0.10975628649559
  C   -0.30255589424424      0.04287969165184      0.31142144669755
  H   1.73522037607154      0.49872024923368      0.79691618570920
  H   -0.61892996451976     -0.32405576780162      1.28866755850179
  H   1.46822088360853      0.11767389628740     -0.91045625281379
  C   1.59887479300735     -1.54187041256178      0.35854461560190
  N   1.90333154712435     -2.65435158954976      0.57364363793273
  N   -1.05574940784535     -0.80652016045997     -0.67564858064387
  O   -2.08574179694673     -1.33955152418582     -0.27279619687026
  O   -0.61604566143321     -0.85659182909604     -1.82175835946872
  C   -0.72670805811730      1.48653611468108      0.09802118192850
  H   -1.80736788293192      1.58523927602878      0.21460408067291
  H   -0.44612919799694      1.81972313823688     -0.90324548986444
  H   -0.24147449768931      2.13022734433602      0.83432988612090
