11
Coordinates from ORCA-job run
  C   0.90201740866065     -0.31643415315937     -0.02879213692307
  C   -0.50925530477604      0.13235716930873      0.40600779858712
  F   0.78309138697605     -1.34238677279461     -0.92860533164161
  H   -0.40212161759830      0.96934628003018      1.10770094526656
  H   1.44841974005072     -0.68470330327181      0.84455114443055
  C   1.62778933395366      0.80780738563606     -0.63319117169784
  N   2.20606432802191      1.72442314709463     -1.08408470536788
  C   -1.18625609972442     -0.97360593943926      1.09170442541762
  N   -1.69635941122805     -1.86313471423466      1.66271078997619
  C   -1.28434247100095      0.58604639311850     -0.75340985569638
  N   -1.89004729333522      0.96228450771161     -1.68559190235124
