11
Coordinates from ORCA-job run
  C   0.86671206881933     -0.45138527044210     -0.33609856399451
  C   -0.64188918379704     -0.44556991915036     -0.00763192476375
  F   1.00203648476041     -0.72873330148138     -1.67362565956727
  H   -1.03645318709062     -1.42212603376773     -0.31336652421299
  H   1.35522892783912     -1.24606818125084      0.23500979569079
  C   1.48629514951608      0.84092576837828     -0.02238785291006
  N   1.98438544469854      1.87105809875259      0.24010562884879
  C   -1.33568774246901      0.59894468010327     -0.76694986646381
  N   -1.88488426164128      1.43100337181750     -1.38654297635864
  C   -0.83786016559731     -0.28031944859231      1.43506721399701
  N   -0.95788353503822     -0.16772976436691      2.59742072973443
