11
Coordinates from ORCA-job run
  C   0.92011623063616     -0.17124082349711      0.15281471105235
  C   -0.60524059145573     -0.24931093068930     -0.08377780168097
  F   1.39891924371386     -1.45530210772917      0.22244813463410
  H   -0.76750029137186     -0.78215764012916     -1.02843717252875
  H   1.12900765580708      0.33121883901590      1.10114716096512
  C   1.56857299281342      0.54438198101547     -0.95257103154497
  N   2.08052976496034      1.11435910880588     -1.84207048542813
  C   -1.17071121071602      1.09850164027198     -0.18594080862424
  N   -1.59674996546856      2.18942646088274     -0.26704064682503
  C   -1.23485312394872     -1.00609231481138      1.00278337984588
  N   -1.72209070496998     -1.61378421313586      1.88064456013462
