11
Coordinates from ORCA-job run
  C   0.85810189603369     -0.40201301679634     -0.12994276935133
  C   -0.49166403228566      0.08482178010938      0.43850807205095
  F   0.62215924071248     -1.15181937903845     -1.25155525286413
  H   -0.28852948913603      0.70339355309056      1.32209401761487
  H   1.35325110608702     -1.03572866823569      0.61177307108528
  C   1.71460359426093      0.74494126919881     -0.45641322667583
  N   2.39899562154640      1.67067019629612     -0.68566959271637
  C   -1.29632388336390     -1.07129620418194      0.84778182279763
  N   -1.90800502653043     -2.01115880823648      1.19380905399076
  C   -1.20418215527173      0.89996141424048     -0.55080491541990
  N   -1.75840687205277      1.56822786355356     -1.34058028051192
