11
Coordinates from ORCA-job run
  C   0.91697864307367     -0.20379149431193      0.12730734508645
  C   -0.61145194340103     -0.22699401697331     -0.10272848477108
  F   1.36852278764626     -1.49847713458333      0.07302112057100
  H   -0.79179182924192     -0.66260328460342     -1.09267942488270
  H   1.14243466156561      0.20354370298705      1.11651855921226
  C   1.57288034329731      0.59797305999943     -0.91267275486595
  N   2.08812756607657      1.23721133407831     -1.75169370591013
  C   -1.14671643524514      1.13653252755858     -0.06746600022770
  N   -1.54711910570557      2.23963720652655     -0.03609294122217
  C   -1.24929745840308     -1.07122887764219      0.91239089731318
  N   -1.74256722966267     -1.74980302303574      1.73309538969684
