11
Coordinates from ORCA-job run
  C   0.84182591418107     -0.44004756684364     -0.12508968737749
  C   -0.46398258666577      0.14912366831898      0.44839607083572
  F   0.52953829097115     -1.30776789711204     -1.13770080210057
  H   -0.20057538279888      0.86195612466441      1.24024427233570
  H   1.36138288706278     -0.99755701422754      0.65993250854710
  C   1.70630784945016      0.63622032566883     -0.62569450207866
  N   2.39823257239058      1.51114138916558     -0.99132564859439
  C   -1.27327410581711     -0.92545492355679      1.03318205072816
  N   -1.89306964484083     -1.79389456099224      1.52203700036490
  C   -1.20986055582420      0.86120748385906     -0.59454764835869
  N   -1.79352523810895      1.44407297105539     -1.42943361430181
