11
Coordinates from ORCA-job run
  C   0.85452868500509     -0.47820349180995     -0.33008887168289
  C   -0.65705799068247     -0.42484767181774     -0.02022925538780
  F   0.99773765958750     -0.74588777745099     -1.66883987034003
  H   -1.07928688614874     -1.38425954839612     -0.34304916744130
  H   1.30763872846059     -1.29545672402486      0.23846572314081
  C   1.51415876947631      0.78859596850119      0.00465069175743
  N   2.04153246178538      1.80235274850099      0.27375175849037
  C   -1.30702451232368      0.65065731306405     -0.77465847585952
  N   -1.81790877334610      1.51243944556040     -1.38625860471045
  C   -0.86473483163405     -0.27042691760180      1.42188992026331
  N   -0.99058331017983     -0.15496334452515      2.58336615177006
