11
Coordinates from ORCA-job run
  C   0.82275424528905     -0.45102638006685     -0.19188754297579
  C   -0.46852066764622      0.08498571464074      0.46174159027547
  F   0.49703687268583     -1.09185047359797     -1.35770493500779
  H   -0.19179147490197      0.61514537792500      1.38201204688636
  H   1.29283798462731     -1.17457783289909      0.48077051709702
  C   1.75052390830546      0.65457091277858     -0.46187993974517
  N   2.48968167319527      1.54777761210143     -0.64557883637618
  C   -1.34372411465539     -1.03904301404607      0.81191253529196
  N   -2.01512181283342     -1.95500363936255      1.10779093171316
  C   -1.15051219069744      1.02322922134874     -0.43534401471597
  N   -1.68216442336851      1.78479250117806     -1.15283235244307
