11
Coordinates from ORCA-job run
  C   0.92537027303321     -0.23979945595163      0.04014014816604
  C   -0.55325043080657      0.06598357711310      0.36009752310807
  F   0.97861097090383     -1.21759234866895     -0.91741238073588
  H   -0.58335009023063      0.86812570975277      1.10857305140196
  H   1.41975177355971     -0.61214601566062      0.94233091968106
  C   1.60305846573730      0.97372640724936     -0.43321133886561
  N   2.14035399763867      1.95981038626226     -0.77505272430990
  C   -1.19047874845751     -1.12840037896581      0.92471043649343
  N   -1.67225296586349     -2.08662820712285      1.40111459113514
  C   -1.25735135611561      0.51996148993922     -0.84353802028645
  N   -1.80946188939887      0.89795883605314     -1.80775220578786
