11
Coordinates from ORCA-job run
  C   0.91925925382476     -0.00296345149316      0.23421249998317
  C   -0.55308286268065     -0.34898470168044     -0.08370263867489
  F   1.56964732161905     -1.17360096636328      0.53351842532686
  H   -0.55618567369038     -1.02864717024545     -0.94428551362735
  H   0.97161890894822      0.65790003677264      1.10371358636360
  C   1.55037563743244      0.63692952267856     -0.92627120599699
  N   2.04488368058039      1.14715231450570     -1.86076064867074
  C   -1.29466723658738      0.86795547007550     -0.42465503661304
  N   -1.86575400184693      1.86072128512445     -0.68255913611893
  C   -1.15914899065666     -1.03252429691230      1.06299818974712
  N   -1.62694603694286     -1.58493804246223      1.98679147828121
