11
Coordinates from ORCA-job run
  C   0.92691974787172     -0.15027643278663      0.13749398750969
  C   -0.59681531834929     -0.26183556165314     -0.09664944786895
  F   1.44717613797743     -1.41984563574532      0.12418483887029
  H   -0.74926603502237     -0.73369658283458     -1.07477314490517
  H   1.12561638780804      0.29869836911234      1.11446368835718
  C   1.54401315429550      0.65378691253517     -0.92419361288480
  N   2.02642183028921      1.29471326288855     -1.78130494752549
  C   -1.20475157073246      1.07123929013178     -0.10327482664598
  N   -1.66456223367280      2.15148740087490     -0.10789129255185
  C   -1.19496012499141     -1.11089518950598      0.93819208169528
  N   -1.65879197547359     -1.79337583301707      1.77275267594978
