11
Coordinates from ORCA-job run
  C   0.87870481919953     -0.36987015748002     -0.08977559604019
  C   -0.48718466860889      0.12349395224083      0.43280660377425
  F   0.66829963739895     -1.29362391305701     -1.07867629914495
  H   -0.30462793276501      0.87980881330412      1.20684311471086
  H   1.42223946871673     -0.85460614921309      0.72676845452523
  C   1.66098160673665      0.75979157347392     -0.60730699024620
  N   2.28536234961916      1.67682804710128     -0.99083706116327
  C   -1.21776673654334     -0.99779913943895      1.03317338598993
  N   -1.77253417125126     -1.90287385695703      1.53360100830441
  C   -1.26296388574448      0.73670189324361     -0.65016849311985
  N   -1.87051048675804      1.24114893678235     -1.51842812759023
