11
Coordinates from ORCA-job run
  C   0.83060573727195     -0.45497137534964     -0.12524381197820
  C   -0.47422918569443      0.14064299561425      0.44385502623251
  F   0.52372051258982     -1.25746303481880     -1.19206326710410
  H   -0.21276786962617      0.79973948992630      1.28163037886399
  H   1.31179072366321     -1.06938560645538      0.64153940043471
  C   1.73966000068955      0.62059490865317     -0.54109069799303
  N   2.47938087589017      1.48803668079244     -0.82094757587479
  C   -1.33102177976366     -0.93972824342381      0.94381942289416
  N   -1.98909626828147     -1.82177548259148      1.35156293158620
  C   -1.16804406497510      0.93094817358048     -0.57839717277316
  N   -1.71099868176387      1.56336149407247     -1.40466463428832
