11
Coordinates from ORCA-job run
  C   0.88693158732479     -0.44583609535457     -0.28468180686264
  C   -0.63373212085415     -0.45543950251046     -0.01900305329173
  F   1.08271831972155     -0.77228471820779     -1.60375557532657
  H   -0.99841088892265     -1.45004314415619     -0.30306128089974
  H   1.36460548410616     -1.20880662101189      0.33673402898153
  C   1.47193012459589      0.86808923039654      0.00428663025749
  N   1.94460702078585      1.91113069913295      0.26295371693918
  C   -1.31376419539254      0.54613239862531     -0.84562148477337
  N   -1.85085907325910      1.34692785804501     -1.51490197220230
  C   -0.89249934278026     -0.24117699977847      1.40717812479871
  N   -1.06152691532549     -0.09669310518045      2.55987267237947
