11
Coordinates from ORCA-job run
  C   0.84816547330410     -0.18586086178294     -0.38256485665736
  C   -0.61268417413776      0.22752862190184     -0.09293099476578
  F   1.11583977401227      0.11345825789030     -1.69468853134770
  H   -0.69432499096374      1.30629435061983     -0.27218952921926
  H   0.97069760588481     -1.26265787156667     -0.23771028052625
  C   1.76573679689469      0.54999952864750      0.49554477119516
  N   2.49049580649257      1.14067194869222      1.20561158815603
  C   -0.95042489761606     -0.05790484424204      1.30391988409176
  N   -1.19302820662301     -0.30028929792899      2.42669673404712
  C   -1.51586069920245     -0.47667309194782     -1.00838699307025
  N   -2.22561248804539     -1.05556674028323     -1.74230179190347
