11
Coordinates from ORCA-job run
  C   0.83357909797639     -0.22711888388100     -0.38773134514568
  C   -0.61493260369292      0.22149744076630     -0.08936618671136
  F   1.06266522991089     -0.04240757574787     -1.72784649708086
  H   -0.69636391122201      1.28209241511353     -0.35594113817047
  H   0.95410243402469     -1.28870820565029     -0.15541105656929
  C   1.78246134665856      0.57486094466272      0.39423660766759
  N   2.53772106434974      1.23957036282384      0.99908654026203
  C   -0.90854102906595      0.05659241632059      1.33676924137563
  N   -1.11538954892371     -0.09636543747354      2.48220918572550
  C   -1.55124163424712     -0.54858348051669     -0.91374831853783
  N   -2.28506044576857     -1.17142999641763     -1.58525703281525
