11
Coordinates from ORCA-job run
  C   0.91223676983067     -0.42073167978838     -0.24088908388987
  C   -0.62070918449392     -0.46863763049677     -0.06334279693537
  F   1.19065517766467     -0.71470926018665     -1.55249696151410
  H   -0.94529827015720     -1.46468849796311     -0.38815080883146
  H   1.37017408853193     -1.18629215326599      0.39210918148573
  C   1.44955716370899      0.89930078990306      0.10694431247713
  N   1.88087200669145      1.95037521595728      0.40265897638184
  C   -1.27531011746302      0.53512867958503     -0.90736369884604
  N   -1.79199750852979      1.33518939199126     -1.59337413572520
  C   -0.96474997360969     -0.29131505430466      1.34976093723539
  N   -1.20343015217410     -0.17361980143107      2.49314407816191
