11
Coordinates from ORCA-job run
  C   0.81847183836077     -0.45242360678873     -0.20330629685357
  C   -0.45101453223094      0.10318354180935      0.47593026884533
  F   0.45287949207939     -1.14830082996233     -1.32497732109349
  H   -0.14345742703187      0.67911206799785      1.35812984773749
  H   1.32170030059000     -1.14105192488028      0.48193348114008
  C   1.72527003132538      0.64594015468004     -0.56002062054836
  N   2.45530354144687      1.52928194721080     -0.81434641580224
  C   -1.30142470129927     -1.00921675068772      0.91290617260891
  N   -1.95597988867860     -1.91308906503269      1.27606111359143
  C   -1.17679869746315      0.99273501895619     -0.43654448076305
  N   -1.74494995709860      1.71482944669752     -1.16676574886253
