11
Coordinates from ORCA-job run
  C   0.86474302490337     -0.46724673205324     -0.32158012489487
  C   -0.64568745261983     -0.44042435598666     -0.00273726767189
  F   1.00566606943271     -0.77818663468738     -1.65124471795823
  H   -1.04585273046511     -1.42057123575479     -0.28939235255833
  H   1.34214176837912     -1.25247522360054      0.27170664255269
  C   1.49465587662871      0.82600248565600     -0.03435329579278
  N   1.99924975526113      1.85559683444627      0.21761825061483
  C   -1.32691700649705      0.59178935982642     -0.78929613002591
  N   -1.86528624256082      1.41711267497280     -1.42695575973464
  C   -0.84902956901704     -0.24137003600178      1.43443433128710
  N   -0.97568349344522     -0.09122713681710      2.59180042418204
