11
Coordinates from ORCA-job run
  C   0.92994365873830     -0.13563474887910      0.12247320064403
  C   -0.59624166487308     -0.27123635595027     -0.08113005516656
  F   1.46695243511500     -1.39821126864751      0.12425496494513
  H   -0.76105971554100     -0.76310794994321     -1.04726659579717
  H   1.14017287823134      0.33525355447317      1.08662230059349
  C   1.51715209204819      0.65494765924624     -0.96599960451068
  N   1.98122146400337      1.28053305021464     -1.84429009291605
  C   -1.22080764377188      1.05411675448349     -0.10097718566333
  N   -1.69119848398821      2.12965387557955     -0.11436302275602
  C   -1.16407401882450     -1.10724381082209      0.98102232982386
  N   -1.60206100113755     -1.77807075975487      1.83865376080332
