11
Coordinates from ORCA-job run
  C   0.89334357564461     -0.46271621678500     -0.23249794709325
  C   -0.64228603494646     -0.43777205909804     -0.07414427638187
  F   1.17371401282430     -0.75732757952895     -1.54374915856508
  H   -1.01095970293109     -1.41416760437607     -0.41126766775135
  H   1.30541214423532     -1.25619362579120      0.39758139966537
  C   1.48951516975719      0.82645124578702      0.13412601491614
  N   1.96859248065868      1.85473518920909      0.43635442836523
  C   -1.23664141495339      0.60350900462909     -0.91735278338229
  N   -1.70563525103249      1.43317122978974     -1.60246761973667
  C   -0.99464622784955     -0.25501524089425      1.33623773860663
  N   -1.23840875140712     -0.13367434294142      2.47817987135715
