11
Coordinates from ORCA-job run
  C   0.86797183296249     -0.36903998942024     -0.16417853504576
  C   -0.48630213995547      0.03989870243783      0.45320710819294
  F   0.63760461723937     -1.03561501912175     -1.33814001855261
  H   -0.28645653893130      0.59394464733771      1.37930523511976
  H   1.38597055175441     -1.04577059324092      0.52188112323164
  C   1.69230703702829      0.82074148836476     -0.41090450232405
  N   2.34027113299505      1.78117738271739     -0.59977730759404
  C   -1.25936180205245     -1.16297291608751      0.78034915977749
  N   -1.85007564235562     -2.14170516512078      1.04580832687056
  C   -1.23025858605102      0.90887323208284     -0.46434900553913
  N   -1.81267046263372      1.61046823005069     -1.20320158413681
