11
Coordinates from ORCA-job run
  C   0.90924330449275     -0.26374590566512      0.06354847801463
  C   -0.62782900620377     -0.18750494220422     -0.07806467777403
  F   1.27785708556689     -1.57786682665977     -0.08131298260324
  H   -0.88828961901676     -0.56177220927014     -1.07535664506643
  H   1.21344020229362      0.07656164881345      1.05710677134725
  C   1.55481846442517      0.55395323748004     -0.97025585583975
  N   2.06090584150794      1.22020618441839     -1.79385773648458
  C   -1.07950218883259      1.20020307409568      0.05163744981144
  N   -1.41180926442214      2.32135496589323      0.15569774399393
  C   -1.25944374353824     -1.04488754669153      0.93007049784285
  N   -1.74939107627285     -1.73650168021000      1.74178695675793
