11
Coordinates from ORCA-job run
  C   0.83683475409328     -0.42900175622433     -0.18056176917168
  C   -0.47387886739315      0.07448216300638      0.46052079316834
  F   0.53772537217228     -1.08659337838238     -1.34399354641508
  H   -0.21895498042468      0.62077837195172      1.37763828084093
  H   1.32261500629008     -1.13416654305731      0.50041738563048
  C   1.73398943544373      0.70102063114444     -0.45303254824971
  N   2.44238396626025      1.61506257864239     -0.65474375076090
  C   -1.31854765689680     -1.07156358364915      0.81391396727347
  N   -1.96565818742783     -2.00654251124150      1.10433938239657
  C   -1.17614426334804      0.98557111863872     -0.44899454040320
  N   -1.71836457876910      1.73195290917102     -1.17450365430921
