11
Coordinates from ORCA-job run
  C   0.92903422371302     -0.13947947139543      0.12896777931192
  C   -0.59852186181820     -0.26910984147790     -0.06816387468765
  F   1.45156162251563     -1.40683406504937      0.19330709460640
  H   -0.76656352907633     -0.81184323519950     -1.00606293181754
  H   1.14512149275499      0.37538297855604      1.06902564964500
  C   1.52490863483676      0.58922713295972     -0.99716637721296
  N   1.99366092441580      1.16140606830692     -1.90876322837604
  C   -1.21001692184321      1.05926012397175     -0.15999533326927
  N   -1.67261546977017      2.13643497995632     -0.22308578276561
  C   -1.17521610500544     -1.03953023286348      1.03797463450022
  N   -1.62135301072285     -1.65391443776508      1.93296237006558
