11
Coordinates from ORCA-job run
  C   0.92813460423031     -0.12641476237419      0.15013286443118
  C   -0.58880681686064     -0.27833943756000     -0.10359060974896
  F   1.48048489480367     -1.38259881747630      0.15148349185871
  H   -0.71555075919697     -0.76207755778117     -1.07953064337385
  H   1.10255671182433      0.33290044561503      1.12689777062729
  C   1.53912369311809      0.68662491407792     -0.90828810150822
  N   2.01877060137416      1.33468120127790     -1.76159823742494
  C   -1.23069688500628      1.03857298343180     -0.12934958237617
  N   -1.71799755250645      2.10654845881083     -0.14487133563899
  C   -1.17960446103540     -1.13303166178672      0.93097101808580
  N   -1.63741403074484     -1.81686576623509      1.76774336506815
