11
Coordinates from ORCA-job run
  C   0.86978509566793     -0.38585590402376     -0.09778714913092
  C   -0.50075049921743      0.09305784201683      0.42538497265156
  F   0.67208974845000     -1.18967070041015     -1.18903489348508
  H   -0.32692575777758      0.75463280442624      1.28372819322164
  H   1.36656440237261     -0.97424650699617      0.67941082550061
  C   1.70567930438868      0.76626567123989     -0.45833121923678
  N   2.37982595818388      1.69707768029660     -0.69729831977423
  C   -1.28685016691347     -1.06190766215193      0.87206801201123
  N   -1.88940561746040     -2.00020023682718      1.23790127436907
  C   -1.21460852583583      0.84531841735787     -0.61144199191854
  N   -1.77440394185840      1.45352859507173     -1.44459970420858
