11
Coordinates from ORCA-job run
  C   0.81134001994632      0.04785055131536     -0.50614430203144
  C   -0.58207686373743     -0.31632102705086      0.04862642863223
  F   0.82182726624683      1.37547634542514     -0.84252953100558
  H   -0.56966017164938     -1.37493319206923      0.33796682931097
  H   1.00418133793101     -0.53900513491982     -1.40911275736383
  C   1.84526633297392     -0.22942971339594      0.49876075556316
  N   2.66278610402422     -0.47851910197012      1.30343661682445
  C   -1.59230933088910     -0.12508118212777     -0.99745962817853
  N   -2.38030331900549      0.01868203919297     -1.85518362567428
  C   -0.89266504563822      0.49086478133655      1.23288926420367
  N   -1.12638633020268      1.13041563426372      2.18874994971918
