11
Coordinates from ORCA-job run
  C   0.89375770450603     -0.44685585547710     -0.26120487983468
  C   -0.63788297673855     -0.44501134991551     -0.06813696904598
  F   1.14810035570309     -0.71896620310746     -1.58265854023741
  H   -1.00093364719057     -1.42089621533708     -0.41286807138939
  H   1.33088064797377     -1.24317364406267      0.34810917106706
  C   1.48149586225192      0.84430757438495      0.11226258069894
  N   1.95432810368169      1.86848628555184      0.43759508766147
  C   -1.26532484502956      0.60113491656274     -0.88073497936459
  N   -1.76080386011857      1.43207211367870     -1.54528457177432
  C   -0.96108676097747     -0.28920227888892      1.35253768176643
  N   -1.18253058406181     -0.18189534338950      2.50038349045250
