11
Coordinates from ORCA-job run
  C   0.88885132989244     -0.45761766206004     -0.25898818518479
  C   -0.64465759480399     -0.43148502970260     -0.08313467147968
  F   1.15358116643350     -0.70566516426326     -1.58311328103461
  H   -1.02104526217340     -1.39311906574378     -0.45262611490312
  H   1.30367566800649     -1.27533774172903      0.33738542105660
  C   1.49580287568052      0.81441815155197      0.14763509849374
  N   1.98200798898144      1.82922025315670      0.48237170721210
  C   -1.24358123254168      0.64286097670394     -0.88032361544955
  N   -1.71644949823691      1.49770996430283     -1.53101916867567
  C   -0.98163886720711     -0.29993203973146      1.33670595458222
  N   -1.21654657403130     -0.22005264248529      2.48410685538275
