11
Coordinates from ORCA-job run
  C   0.87496657502122     -0.45358638411980     -0.31340152048023
  C   -0.64576391651955     -0.43703023527203     -0.04741703897788
  F   1.06261199962566     -0.69913582047761     -1.65095722450966
  H   -1.03741888989049     -1.40034264204824     -0.39620744621318
  H   1.32942958823679     -1.26884722011494      0.25693099482946
  C   1.49661723182010      0.82169465465744      0.05952033191174
  N   1.99425764350384      1.83544268449091      0.38024918698940
  C   -1.29673949220432      0.63520773625000     -0.80560597681161
  N   -1.81055945638872      1.49322010815493     -1.41996997453206
  C   -0.89984134540159     -0.30888097998645      1.38977673076860
  N   -1.06755993780292     -0.21774190153420      2.54808193702547
