15
Coordinates from ORCA-job run
  C   -0.79719399516534      0.19675356091287      0.35312843851147
  C   0.57640439462017     -0.44900210063024      0.22159394506744
  F   -1.12228102987556      0.15822984099159      1.67631330591256
  H   0.53167749055721     -1.48699517751766      0.54747822196075
  C   -0.89876577556907      1.55906419828334     -0.15299183977409
  N   -0.97288003805538      2.67347854507493     -0.51957727752695
  N   -1.83952308720875     -0.69884543520569     -0.34655118559679
  O   -2.79011158319242     -0.13396280235621     -0.86119098203317
  O   -1.64329200166123     -1.90106925768903     -0.23524259941360
  N   1.55944288774720      0.27582890889322      1.09136958687614
  O   1.85704778430468      1.40853121404645      0.72960482702368
  O   1.95487386718801     -0.33268114544911      2.07790484947724
  N   1.07843699486983     -0.41500049736346     -1.18876148609941
  O   0.24197003254298     -0.18064796999782     -2.05568244461871
  O   2.26319405889765     -0.67268188199317     -1.33739535976654
