15
Coordinates from ORCA-job run
  C   -0.84845340939009      0.31084051586943      0.36077100482122
  C   0.67302263468654      0.40540925863914      0.19899704823983
  F   -1.15753261934688      0.52275107572201      1.66320486831087
  H   1.00620104898430      1.37966419854557      0.55858057855040
  C   -1.49594825269359      1.31342435465929     -0.48425461492341
  N   -1.96998083690717      2.18814276334751     -1.11048139153353
  N   -1.39681980063059     -1.08405423858215      0.02697724586341
  O   -2.36346699720487     -1.14315009235403     -0.71429308278850
  O   -0.82837669001574     -1.99337913847990      0.61312620584232
  N   1.07279074424644      0.26932014176574     -1.22993392696238
  O   0.33018717702863     -0.39823707046408     -1.94487717130122
  O   2.12615266669101      0.81151811991327     -1.53864228049164
  N   1.43666709869000     -0.62983255338082      1.00520168290079
  O   1.41184968408966     -0.43776552058621      2.21050636282547
  O   2.00470755177234     -1.51365181461477      0.38511747064638
