13

C	-0.628599	0.014124	-1.354982
C	0.0	0.0	0.0
F	-0.29326	1.182472	-1.994195
H	1.087326	0.0	0.0
H	-1.715	-0.080958	-1.371105
H	-0.270905	0.925043	0.514008
N	-0.155961	-1.099791	-2.267372
O	-0.799877	-1.207088	-3.313414
O	0.809936	-1.77347	-1.94222
N	-0.545654	-1.094677	0.792537
O	-0.330904	-1.090901	2.004133
O	-1.183279	-1.983827	0.203587
F	2.497625	0.0	0.0
