13

C	-0.452389	-0.009057	-1.417595
C	0.0	0.0	0.0
F	-0.167666	-1.229022	-1.976667
H	1.090954	0.0	0.0
H	-0.022792	0.778796	-2.028918
H	-0.375238	-0.863801	0.543645
N	-1.959496	0.129694	-1.575312
O	-2.671894	-0.385288	-0.716925
O	-2.361836	0.691619	-2.592614
N	-0.475547	1.199479	0.676259
O	-0.768659	2.179132	-0.02436
O	-0.513664	1.196475	1.905119
F	2.509526	0.0	0.0
