13

C	-0.567967	0.027963	-1.393576
C	0.0	0.0	0.0
F	-0.383841	1.258407	-1.945005
H	1.088416	0.0	0.0
H	-1.627228	-0.23223	-1.453759
H	-0.389371	0.891519	0.499659
N	0.132403	-0.990722	-2.261419
O	0.765689	-0.610979	-3.234417
O	-0.051913	-2.151647	-1.905319
N	-0.599474	-1.14677	0.739928
O	0.14317	-2.008717	1.200285
O	-1.832342	-1.145677	0.869165
F	2.550682	0.0	0.0
