13

C	-0.415116	-0.178929	-1.415011
C	0.0	0.0	0.0
F	-1.783002	-0.168733	-1.606522
H	1.088997	0.0	0.0
H	-0.002469	-1.073337	-1.869667
H	-0.405233	0.910765	0.433161
N	0.105896	0.986472	-2.215116
O	0.842068	0.737113	-3.166019
O	-0.290629	2.099782	-1.883256
N	-0.466458	-1.129913	0.802475
O	-0.75588	-0.914289	1.980387
O	-0.494269	-2.248141	0.280167
F	2.501249	0.0	0.0
