13

C	-0.521767	-0.254652	-1.385856
C	0.0	0.0	0.0
F	-0.953536	0.904001	-1.973032
H	1.090458	0.0	0.0
H	-1.313368	-1.000516	-1.432501
H	-0.309273	0.991505	0.328353
N	0.579391	-0.826652	-2.259906
O	0.887067	-1.977519	-1.983715
O	1.037218	-0.140492	-3.161757
N	-0.520591	-0.951957	0.979401
O	-0.939032	-2.050821	0.598326
O	-0.478887	-0.607179	2.160649
F	2.488477	0.0	0.0
