13

C	-0.381509	0.121184	-1.435713
C	0.0	0.0	0.0
F	-0.139691	-1.073744	-2.065208
H	1.088694	0.0	0.0
H	0.136983	0.918726	-1.960092
H	-0.404964	-0.900023	0.454254
N	-1.862479	0.37248	-1.662002
O	-2.652948	-0.234331	-0.943065
O	-2.168694	1.117184	-2.590768
N	-0.471544	1.152486	0.75348
O	-0.69251	2.198112	0.127136
O	-0.573472	1.046899	1.974511
F	2.509506	0.0	0.0
