13

C	-0.526913	-0.187966	-1.381793
C	0.0	0.0	0.0
F	-1.865245	-0.500061	-1.415235
H	1.089522	0.0	0.0
H	0.031762	-0.998046	-1.853584
H	-0.305892	-0.865697	0.589408
N	-0.322349	0.997455	-2.306058
O	0.844867	1.274862	-2.538844
O	-1.312425	1.536805	-2.782499
N	-0.539577	1.17317	0.686084
O	-0.733791	1.083224	1.900385
O	-0.714773	2.20519	0.031947
F	2.503657	0.0	0.0
