13

C	-0.369589	-0.034786	-1.444089
C	0.0	0.0	0.0
F	-0.14388	-1.296192	-1.934432
H	1.089911	0.0	0.0
H	0.167519	0.690388	-2.048388
H	-0.412318	-0.842764	0.547193
N	-1.844326	0.214982	-1.710068
O	-2.131068	0.824615	-2.738664
O	-2.650524	-0.263628	-0.916156
N	-0.471824	1.232008	0.614588
O	-0.633239	2.213956	-0.123426
O	-0.635359	1.251257	1.833777
F	2.510718	0.0	0.0
