13

C	-0.529821	0.04875	-1.391963
C	0.0	0.0	0.0
F	-1.870288	-0.246563	-1.475916
H	1.093677	0.0	0.0
H	0.023878	-0.673289	-1.995379
H	-0.302436	-0.95399	0.434979
N	-0.320616	1.372106	-2.103472
O	0.848065	1.685292	-2.277876
O	-1.307891	1.982411	-2.492126
N	-0.539915	1.038654	0.875785
O	-0.729571	2.163362	0.403614
O	-0.719822	0.747114	2.060049
F	2.502023	0.0	0.0
