16
Coordinates from ORCA-job run
  C   0.50480741100674      0.21092461654000     -0.62308223006683
  C   -0.83725101028521      0.15808730266227      0.13143332960957
  Br  0.21668162732828      0.08561699587959     -2.58057181785582
  H   -1.31748720688660      1.12154202643364     -0.10829814027821
  N   1.35894031547456     -1.00853156631662     -0.27910318613081
  O   0.79788738636438     -2.09313584676151     -0.26928778558999
  O   2.55060229852297     -0.81171347476554     -0.07049850376531
  N   1.21929183589599      1.36196692794778     -0.22517429770608
  H   0.79199609673480      2.19053417406513     -0.61934580883056
  H   2.19098009425685      1.30542098185980     -0.50402019390935
  N   -0.46499755377205      0.01841641178544      1.53676653765722
  H   0.10058675340671      0.80649712645995      1.82940260343744
  H   -1.30188163351842     -0.02149561238963      2.10485601091295
  N   -1.72927631259460     -0.86601993591915     -0.32696871534696
  H   -2.66665026440331     -0.68806109738274      0.00713803862929
  H   -1.41322983753109     -1.77004903009841     -0.00224584076656
