16
Coordinates from ORCA-job run
  C   0.49951700446487      0.07048930477330     -0.69621464079442
  C   -0.71431748644527     -0.48683755245077      0.05837994339205
  Br  0.48063052858869     -0.42070318783416     -2.56827368562355
  H   -0.76711447029606     -1.56297679525653     -0.12320953497003
  N   1.76253283748412     -0.65023572568699     -0.13148473090926
  O   1.63760738727024     -1.81724127499351      0.22673316918249
  O   2.79521065534448      0.00679446001313     -0.09726128729985
  N   0.57318676322518      1.46487915002913     -0.54391435540710
  H   1.38773528591471      1.85091751893930     -1.00256852656432
  H   0.59803048283756      1.66426263419075      0.45179885366759
  N   -1.89050586672797      0.12782605056756     -0.48276872650900
  H   -1.85659071260097      1.13275383424552     -0.37177336721736
  H   -2.73086790280055     -0.25280309165584     -0.06992939118350
  N   -0.45854889516442     -0.16600548705843      1.47538523262327
  H   0.02496730613263     -0.93351758925019      1.92830760595813
  H   -1.34247291722724     -0.02760224857228      1.94779344165486
