16
Coordinates from ORCA-job run
  C   0.42799506683549      0.01361786596442     -0.65670448221514
  C   -0.74765288144962     -0.43299470282205      0.23845185196787
  Br  0.16707584632361     -0.57868603000157     -2.49172197121530
  H   -0.87321532250869     -1.51237934851958      0.12159652628166
  N   1.70438483722435     -0.74895078931342     -0.19630294255542
  O   2.76861102109784     -0.15217042531308     -0.30305648931519
  O   1.55393233610026     -1.88798242304729      0.23515373647411
  N   0.58541745501723      1.40568288873358     -0.60333809109325
  H   1.40127536371847      1.71637618071157     -1.11425249633317
  H   0.65165527367666      1.66738623125553      0.37669170554568
  N   -1.98741187118277      0.22144346446754     -0.10127989387886
  H   -1.80037493141386      1.18844505257289     -0.34398482531927
  H   -2.40989774450300     -0.22603766818728     -0.90353013107505
  N   -0.37241583313680     -0.02704943537262      1.59079629421645
  H   -1.23156316365713      0.11081619951796      2.10871259619566
  H   0.16318454785795     -0.75851706064660      2.04276861231922
