16
Coordinates from ORCA-job run
  C   0.62542754905390     -0.04434867480727     -0.58993368367068
  C   -0.59554588725555      0.06894113769705      0.35748970591441
  Br  0.29002807860619     -1.38358816156029     -1.95006872754146
  H   -0.26340954564690      0.80616366235455      1.10659219730514
  N   1.79905231936903     -0.47810646689840      0.29648133539357
  O   2.06491572935197     -1.66711055371476      0.41345900456445
  O   2.33516420258941      0.43985819194368      0.91361699270950
  N   1.00588406754068      1.17155651600579     -1.22321655123187
  H   0.16246483363655      1.56300473763799     -1.63030169564903
  H   1.36025880484403      1.81016551799911     -0.51923889484616
  N   -0.96556804070715     -1.21536194593073      0.91854926961986
  H   -0.16747615687027     -1.81105301604525      1.10139915122504
  H   -1.48034336557499     -1.08784944603420      1.78050179877882
  N   -1.67441582326641      0.67969185083634     -0.39079369162315
  H   -2.22180556955170     -0.06451498520888     -0.80927688830698
  H   -2.27663119611880      1.21155163572527      0.22374067735854
