16
Coordinates from ORCA-job run
  C   0.61937389688442     -0.02083741494604     -0.69567670311983
  C   -0.67776619904729     -0.40853143825581      0.05504567765270
  Br  0.53946579754792     -0.69437742071003     -2.51178647692563
  H   -0.90250149244598     -1.45677567859781     -0.16423175932726
  N   1.75494423643128     -0.77142291362842      0.01058164228974
  O   1.56689134251671     -1.97391463051185      0.18026917778741
  O   2.72022030345913     -0.13113947558894      0.40089059765895
  N   0.94102827240032      1.35628326522022     -0.72527548113467
  H   0.25310749707253      1.84482350692887     -1.28418713109245
  H   0.95535593802174      1.71682469207941      0.22304079951488
  N   -1.73828236193771      0.42081668492350     -0.46382933008458
  H   -2.63317290442775     -0.04278658104643     -0.39568067496482
  H   -1.77535815273622      1.29169406171824      0.05211914782381
  N   -0.42748429390203     -0.13728114900572      1.47199145155039
  H   0.11999956169382     -0.88328827009059      1.88778154365761
  H   -1.31482144153089     -0.10908723848857      1.95994751871374
