16
Coordinates from ORCA-job run
  C   0.61217278015627      0.08339453501201     -0.51519127815224
  C   -0.67144577794075     -0.46256633800613      0.11777283871067
  Br  0.52187687879625     -0.26966257391511     -2.52129135055795
  H   -0.78368480653498     -1.50442050369013     -0.19395680899836
  N   1.79963440528338     -0.76121054941665     -0.08410703200964
  O   1.63020461536299     -1.97006931012331     -0.04621397512559
  O   2.83860053579353     -0.16008740860301      0.16122610635346
  N   0.81033340474227      1.40446694833436     -0.16439999279169
  H   1.67850141745007      1.79980318671268     -0.49460955002878
  H   -0.00790240281172      1.95565572664252     -0.38938517817968
  N   -1.76326164197171      0.41563138720827     -0.31268458268110
  H   -2.01013661428725      0.22078215295430     -1.27725532684472
  H   -2.57535399049248      0.22449899177787      0.26153033326542
  N   -0.45693526147511     -0.44355302379665      1.54086583342123
  H   -1.11661364595083     -1.03702394690491      2.02466052404883
  H   -0.50498989611993      0.50336072581389      1.89403943957012
