16
Coordinates from ORCA-job run
  C   0.45324960444741      0.35670258703046     -0.52442974066163
  C   -0.55452821224920     -0.23716682968516      0.47264024738256
  Br  -0.38347523700611      0.86825182173217     -2.18152518468377
  H   0.05622934514334     -0.48470974595997      1.35496047212045
  N   1.46081865213853     -0.79760454157576     -0.80292437588035
  O   2.17604104598936     -1.03656214469454      0.17026583220187
  O   1.48489839395719     -1.37526433434798     -1.87360455687957
  N   1.10185242832904      1.48825657987434      0.04641546610432
  H   1.68565303766383      1.17784607490150      0.81652793204486
  H   1.67288061553213      1.97286798374599     -0.63529460608379
  N   -1.06254428420678     -1.48239317637196     -0.04315644376342
  H   -1.81557879097627     -1.28444166298623     -0.69263068169089
  H   -1.42537323074403     -2.05799302639606      0.70494109554869
  N   -1.58360870366645      0.75546476863603      0.72944571890386
  H   -2.11480425359072      0.48160321196980      1.54755224110377
  H   -1.15171041076127      1.65514243412738      0.91081658423303
