17

C	0.0	0.0	0.0
C	-0.567453	0.111605	-1.412241
F	1.421871	0.0	0.0
H	-1.651014	0.016197	-1.25441
N	-0.488505	1.04273	0.793491
H	-0.450444	1.908819	0.273081
H	-0.03738	1.094289	1.694716
C	-0.322465	-1.313964	0.606463
N	-0.476528	-2.37731	1.079219
C	-0.047305	-0.987984	-2.326512
H	-0.499397	-0.883477	-3.316184
H	1.041127	-0.922679	-2.426344
H	-0.30075	-1.978915	-1.942638
N	-0.292114	1.466595	-1.897179
H	0.543038	1.471024	-2.46933
H	-1.071323	1.782688	-2.457719
Cl	-3.948443	0.0	0.0
