17

C	0.0	0.0	0.0
C	-0.35904	2.7e-05	-1.523703
F	1.390105	0.0	0.0
H	0.466193	-0.586288	-1.945089
N	-0.546959	1.094015	0.71657
H	-0.473695	0.937387	1.715895
H	-1.544788	1.135064	0.497451
C	-0.329793	-1.33537	0.57654
N	-0.531476	-2.399558	1.031671
C	-0.270035	1.418383	-2.07184
H	0.645888	1.914853	-1.743674
H	-0.291802	1.366338	-3.162351
H	-1.123471	2.015025	-1.742488
N	-1.58756	-0.627016	-1.944832
H	-1.575924	-1.611312	-1.70516
H	-2.402109	-0.239173	-1.464588
Cl	-4.015128	0.0	0.0
