17

C	0.0	0.0	0.0
C	-0.419769	0.84033	-1.239625
F	1.409493	0.0	0.0
H	0.525602	0.942186	-1.78272
N	-0.491007	0.505503	1.235836
H	-1.506353	0.590922	1.138382
H	-0.321261	-0.178447	1.965535
C	-0.29857	-1.449602	-0.199085
N	-0.413937	-2.618556	-0.217214
C	-0.916802	2.239091	-0.870532
H	-1.908002	2.177348	-0.419659
H	-0.236306	2.750401	-0.186052
H	-0.999519	2.828126	-1.790339
N	-1.31108	0.072386	-2.098507
H	-2.220069	-0.007771	-1.636961
H	-1.446351	0.578546	-2.965399
Cl	-3.756366	0.0	0.0
