17

C	0.0	0.0	0.0
C	-0.422854	0.440264	-1.429728
F	1.410635	0.0	0.0
H	0.525487	0.396214	-1.976849
N	-0.483801	0.84962	1.033839
H	-0.295086	0.419389	1.932969
H	-1.500961	0.894523	0.928744
C	-0.304241	-1.441581	0.238147
N	-0.436003	-2.559811	0.573707
C	-0.937049	1.879112	-1.481821
H	-1.92247	1.945915	-1.018946
H	-0.253845	2.575157	-0.989014
H	-1.037008	2.168678	-2.533693
N	-1.296945	-0.557406	-2.035273
H	-2.20498	-0.521002	-1.565215
H	-1.444732	-0.300317	-3.004994
Cl	-3.73317	0.0	0.0
