13

C	0.0	0.0	0.0
C	-0.398833	-0.09537	-1.507213
F	1.376179	0.0	0.0
H	0.356724	-0.781145	-1.911608
H	-0.379628	0.898517	0.48895
C	-0.434959	-1.210841	0.711331
N	-0.662532	-2.226522	1.253622
C	-0.119761	1.221703	-2.109142
N	0.12967	2.272255	-2.569458
N	-1.695708	-0.575299	-1.889144
H	-1.763675	-1.562157	-1.669692
H	-2.463057	-0.131256	-1.368252
Cl	-4.117315	0.0	0.0
