13

C	0.0	0.0	0.0
C	-0.395332	-0.26305	-1.488827
F	1.37616	0.0	0.0
H	0.345457	-1.008178	-1.805628
H	-0.377255	0.949844	0.382231
C	-0.440602	-1.122566	0.839849
N	-0.656852	-2.078557	1.485869
C	-0.082713	0.967703	-2.238436
N	0.20107	1.951233	-2.813024
N	-1.702615	-0.754123	-1.817636
H	-1.79359	-1.70805	-1.488621
H	-2.45992	-0.239599	-1.350359
Cl	-4.127098	0.0	0.0
