16

C	0.0	0.0	0.0
C	-0.624025	0.237616	-1.352733
Cl	1.761161	0.0	0.0
H	-0.505627	-0.646379	-1.977437
H	-1.699331	0.429858	-1.201023
N	-0.419161	1.120522	0.980931
O	-1.239981	1.93852	0.593937
O	0.076104	1.053845	2.101027
C	-0.532787	-1.293209	0.586923
H	-0.234487	-2.130917	-0.045895
H	-0.12152	-1.428823	1.586299
H	-1.62657	-1.226344	0.62935
N	-0.044431	1.3619	-2.142426
O	0.498879	2.290989	-1.554744
O	-0.180273	1.276606	-3.363107
Br	-3.946956	0.0	0.0
