16

C	0.0	0.0	0.0
C	-0.629255	0.228781	-1.350332
Cl	1.76098	0.0	0.0
H	-1.707475	0.402499	-1.195303
H	-0.498798	-0.654302	-1.974374
N	-0.417709	1.124876	0.975732
O	0.05785	1.050145	2.104334
O	-1.215583	1.960803	0.576778
C	-0.531757	-1.29114	0.592569
H	-1.625056	-1.22475	0.633317
H	-0.232942	-2.131224	-0.036727
H	-0.120433	-1.422794	1.592739
N	-0.076924	1.361756	-2.145857
O	0.511063	2.273168	-1.572683
O	-0.280565	1.301213	-3.35782
Br	-3.945975	0.0	0.0
