16

C	-0.5349	-0.001965	-1.444615
C	0.0	0.0	0.0
Cl	0.309145	-1.303527	-2.355068
H	1.094119	0.0	0.0
C	-2.031775	-0.27177	-1.518393
H	-2.367148	-0.327462	-2.555739
H	-2.574185	0.528907	-1.007344
H	-2.221568	-1.222193	-1.019149
C	-0.222392	1.266217	-2.107348
N	-0.028416	2.297765	-2.635616
N	-0.365965	-1.253027	0.670836
H	0.500638	-1.620424	1.045313
H	-1.016386	-1.099172	1.430545
C	-0.518825	1.164325	0.701027
N	-0.955908	2.065724	1.320644
F	2.528136	0.0	0.0
