16

C	-0.527587	0.002252	-1.447913
C	0.0	0.0	0.0
Cl	0.293492	-1.323473	-2.345305
H	1.094138	0.0	0.0
C	-2.030001	-0.232284	-1.530761
H	-2.556006	0.585798	-1.029995
H	-2.24561	-1.174061	-1.025651
H	-2.358261	-0.288275	-2.570076
C	-0.182887	1.259379	-2.117001
N	0.013888	2.274841	-2.674529
N	-0.380523	-1.249132	0.670765
H	-1.020278	-1.085072	1.43446
H	0.479778	-1.625466	1.048072
C	-0.51689	1.169286	0.692901
N	-0.965482	2.08543	1.281492
F	2.527905	0.0	0.0
