16

C	-0.322087	-0.062467	-1.508358
C	0.0	0.0	0.0
Cl	-0.032867	1.558492	-2.240208
H	1.095008	0.0	0.0
C	0.63851	-1.061365	-2.143595
H	0.579289	-1.021837	-3.232685
H	1.634912	-0.799279	-1.769629
H	0.379286	-2.060323	-1.791429
C	-1.726787	-0.399762	-1.748371
N	-2.853202	-0.695067	-1.908257
N	-0.388488	-1.274126	0.602994
H	0.349849	-1.545164	1.240559
H	-1.2636	-1.208731	1.107044
C	-0.588342	1.15098	0.669871
N	-1.084214	2.026216	1.280319
F	2.587348	0.0	0.0
