16

C	-0.322125	-0.081795	-1.507825
C	0.0	0.0	0.0
Cl	-0.028276	1.530148	-2.261382
H	1.095322	0.0	0.0
C	0.639557	-1.089005	-2.127808
H	1.635342	-0.819125	-1.756067
H	0.582565	-1.065363	-3.217364
H	0.381146	-2.084262	-1.762082
C	-1.727406	-0.419021	-1.74581
N	-2.85746	-0.692455	-1.925061
N	-0.391778	-1.266093	0.619234
H	0.353938	-1.539351	1.249076
H	-1.258979	-1.187088	1.135278
C	-0.587328	1.159979	0.654255
N	-1.074026	2.046449	1.255703
F	2.587036	0.0	0.0
