16

C	-0.345956	-0.054896	-1.500387
C	0.0	0.0	0.0
Cl	0.006272	1.550858	-2.23945
H	1.094945	0.0	0.0
C	0.559621	-1.098062	-2.145516
H	1.573254	-0.873461	-1.792875
H	0.262957	-2.083238	-1.783685
H	0.485251	-1.062916	-3.234341
C	-1.768641	-0.328718	-1.719384
N	-2.910304	-0.571694	-1.860344
N	-0.38764	-1.272381	0.610431
H	0.382569	-1.566435	1.198226
H	-1.225771	-1.190266	1.17029
C	-0.574099	1.152492	0.67949
N	-1.048328	2.033788	1.298478
F	2.579964	0.0	0.0
