19

C	-0.439288	0.024333	-1.477118
C	0.0	0.0	0.0
Br	0.261321	-1.63894	-2.290349
H	1.090099	0.0	0.0
N	-1.872875	0.013351	-1.756074
H	-2.285411	0.759345	-1.200519
H	-2.263731	-0.852861	-1.397912
C	0.256785	1.179226	-2.174964
H	-0.194062	2.124666	-1.852048
H	1.306878	1.159728	-1.869679
H	0.140943	1.092933	-3.255963
C	-0.558492	-1.127502	0.841938
H	-1.65259	-1.180547	0.834728
H	-0.135355	-2.07158	0.494604
H	-0.227842	-0.985989	1.875836
N	-0.463716	1.294731	0.590296
O	-1.65533	1.384867	0.936581
O	0.338438	2.22297	0.693677
F	2.605082	0.0	0.0
