19

C	-0.210826	-0.102118	-1.533142
C	0.0	0.0	0.0
Br	-0.102992	1.767751	-2.285933
H	1.089996	0.0	0.0
N	0.905309	-0.821582	-2.084704
H	1.742341	-0.601834	-1.502986
H	0.711196	-1.815145	-2.02959
C	-1.538071	-0.655726	-2.008014
H	-1.654399	-1.687587	-1.652904
H	-1.562396	-0.654076	-3.098144
H	-2.363299	-0.057726	-1.618264
C	-0.484413	-1.244612	0.726327
H	-0.008715	-2.121133	0.281921
H	-1.570446	-1.359292	0.704919
H	-0.152666	-1.194034	1.766675
N	-0.644668	1.174026	0.625246
O	-1.882975	1.21445	0.596831
O	0.056971	2.029842	1.159498
F	2.65931	0.0	0.0
