19

C	-0.201052	-0.139698	-1.520797
C	0.0	0.0	0.0
Br	-0.068594	1.835525	-2.336819
H	1.089867	0.0	0.0
N	0.880577	-0.905951	-1.934234
H	0.97747	-0.973688	-2.936903
H	1.756207	-0.630948	-1.434631
C	-1.54495	-0.602782	-2.039612
H	-2.336795	0.055455	-1.686716
H	-1.551014	-0.613654	-3.131784
H	-1.726953	-1.619382	-1.677612
C	-0.514171	-1.210041	0.762414
H	-0.191445	-1.13145	1.804658
H	-1.602779	-1.29764	0.733086
H	-0.052439	-2.101137	0.335559
N	-0.623545	1.20917	0.578284
O	0.095264	2.041142	1.125126
O	-1.857499	1.287279	0.522064
F	2.667074	0.0	0.0
