19

C	-0.038503	-0.009814	-1.543136
C	0.0	0.0	0.0
Br	-1.880802	0.377966	-2.220616
H	1.095505	0.0	0.0
N	0.889797	0.926483	-2.142027
H	0.631682	1.856346	-1.831401
H	1.766388	0.720944	-1.636028
C	0.36189	-1.392247	-2.030068
H	1.339308	-1.593336	-1.576058
H	0.46648	-1.349406	-3.115466
H	-0.356125	-2.166724	-1.758315
C	-0.60798	-1.183478	0.71264
H	-0.51414	-1.052994	1.790986
H	-1.669671	-1.312276	0.475511
H	-0.059573	-2.084776	0.437926
N	-0.5076	1.270205	0.564232
O	-1.300716	1.219967	1.510811
O	-0.115704	2.335956	0.082523
F	2.623293	0.0	0.0
