19

C	-0.351597	0.064187	-1.499964
C	0.0	0.0	0.0
Br	0.154736	-1.750666	-2.25832
H	1.08986	0.0	0.0
N	-1.748249	0.250549	-1.748199
H	-1.910324	0.733426	-2.622237
H	-2.198375	0.731185	-0.978502
C	0.609733	1.026622	-2.190113
H	0.567938	0.911443	-3.27581
H	1.611526	0.820504	-1.795358
H	0.329908	2.051931	-1.928339
C	-0.628752	-1.121799	0.796331
H	-0.116416	-2.047306	0.539211
H	-0.480287	-0.939974	1.863536
H	-1.698335	-1.235801	0.606858
N	-0.450882	1.312435	0.566757
O	-1.602596	1.383848	1.031475
O	0.321441	2.269875	0.535389
F	2.622764	0.0	0.0
