14
Coordinates from ORCA-job run
  C   -0.74405003614044     -0.06344378293278     -0.46303576609047
  C   0.77836166552123     -0.16411091524256     -0.54433764364989
  Cl  -1.39602606377265     -0.46695385596827     -2.14779512967195
  H   1.01665918536770     -1.20231737764655     -0.80065473843748
  H   1.11385360772239      0.45225026814129     -1.38113766931241
  N   -1.26358347290060     -0.91249823459085      0.54721120245671
  H   -2.27193864949957     -0.85361465425443      0.61385725120691
  H   -0.99130472800882     -1.87396418961741      0.38121933969140
  C   -1.16756461678391      1.31691504339301     -0.20241666437732
  N   -1.47928407408891      2.42648252859796      0.02303360847861
  C   1.46570573159372      0.25398729997857      0.75056928118068
  H   1.14424813973678     -0.36605516656941      1.58705133698342
  H   2.54814798356577      0.15766688927957      0.64109897575233
  H   1.24577532768731      1.29565614743188      0.99433661578947
