14
Coordinates from ORCA-job run
  C   -0.70464690374211     -0.02280479860286     -0.40457648256055
  C   0.62674463775216      0.61856104515771     -0.00775211360205
  Cl  -0.53004159792391     -0.89890325329801     -1.96558234202064
  H   0.42948219408935      1.22672072121803      0.88390007775357
  H   0.91348238481653      1.31027201535593     -0.80394500492562
  N   -1.12080775782708     -0.98347158916812      0.58844962858656
  H   -1.21509393549654     -0.52053864523659      1.48665244407898
  H   -2.01493643593869     -1.39009711902241      0.33830769499152
  C   -1.70143632044746      1.04116171438638     -0.64177067726839
  N   -2.48943096105060      1.90592254646020     -0.75638209370951
  C   1.73708147750199     -0.38634353256984      0.26949492635746
  H   2.64459968845449      0.14454394940321      0.56495531367656
  H   1.45942390807102     -1.07308066491573      1.06802790453124
  H   1.96357962174085     -0.97494238916789     -0.61977927588913
