14
Coordinates from ORCA-job run
  C   -0.75001300805922     -0.13160538315943     -0.54265249795320
  C   0.77326015434707     -0.13161841707730     -0.63877884244583
  Cl  -1.42837252940055     -0.52910142261780     -2.15716418611512
  H   1.05653742776612     -1.13036495048589     -0.98043163224051
  H   1.06092131131442      0.58274739156384     -1.41445002578642
  N   -1.20418180927071     -1.15023176185908      0.37657989833352
  H   -2.21753390485080     -1.18346351955524      0.38922383448147
  H   -0.88406695800920     -0.92967855402398      1.31314107457969
  C   -1.23769226862822      1.22063006723863     -0.20187903540873
  N   -1.59230733721251      2.28739294019967      0.14224358928879
  C   1.46130001911300      0.20923215808551      0.67950208854526
  H   1.29447572242485     -0.56061562357302      1.43589868931835
  H   2.54001380603924      0.27391009474000      0.52473475749971
  H   1.12665937442655      1.17176698052409      1.07403228790301
