14
Coordinates from ORCA-job run
  C   -0.72621463509082     -0.04959694369021     -0.33396407435144
  C   0.71466050570809     -0.47995628407483     -0.07270457017051
  Cl  -0.81190995910825      0.90994915759936     -1.85161929189556
  H   1.01013095105117     -1.08133747476104     -0.93620068915221
  H   0.69129311605037     -1.14583357459958      0.79886822462563
  N   -1.55315731820965     -1.21822362083371     -0.52296255278923
  H   -1.51671079278861     -1.79552973400860      0.31050193047047
  H   -2.51688896394491     -0.94975479410872     -0.68816415264839
  C   -1.20274043051081      0.83416509892979      0.74883228139365
  N   -1.60503595870602      1.46574737459783      1.65518309650393
  C   1.68793843768927      0.66353767223821      0.17552032847708
  H   1.74306703654831      1.32981336759603     -0.68599683384865
  H   2.68789457857722      0.26478823344246      0.35696739843471
  H   1.39867343273464      1.25223152167300      1.04873890495051
