14
Coordinates from ORCA-job run
  C   -0.72351229346535      0.07320605130856     -0.39873056433770
  C   0.61676979156562      0.66674224482064      0.03964932549335
  Cl  -0.45946017277757     -0.77447724539088     -2.02859932218247
  H   0.99804152061982      1.27372190934479     -0.78403613988084
  H   0.39534352717080      1.33754288127238      0.87550866276147
  N   -1.26949966099939     -0.78577476575420      0.58809651802754
  H   -0.65761908712752     -1.57212919729770      0.76398793638544
  H   -2.18424924170327     -1.12900975172044      0.32280331584796
  C   -1.67945942649122      1.14887006130924     -0.68295694877038
  N   -2.43910927178853      2.02141632471325     -0.88454194602497
  C   1.64536103006228     -0.37459042260987      0.46275821847779
  H   2.60226800193158      0.11339434383436      0.65654968546073
  H   1.35073006886421     -0.87801572017733      1.38584849831588
  H   1.80439521413853     -1.12089671365279     -0.31733723957382
