14
Coordinates from ORCA-job run
  C   -0.75953747436436     -0.08296829638966     -0.19297003810114
  C   0.70484476900210     -0.47427854544538     -0.00089601431817
  Cl  -0.88601398086851      0.89056003220644     -1.76137317601322
  H   0.72425430375002     -1.11919339993017      0.88294609348225
  H   0.98624124809727     -1.08669456717019     -0.86439403620679
  N   -1.58647096858575     -1.23710274783623     -0.19970886763117
  H   -1.28354290826289     -1.88771633339254     -0.91448435266264
  H   -2.56011681567237     -1.00318859334212     -0.35056262143001
  C   -1.20848948984322      0.82593997701079      0.86739328841587
  N   -1.56011057638175      1.53311817383148      1.73651297821065
  C   1.66783414518042      0.69224196086313      0.16463690284455
  H   1.68166505125527      1.32897199712804     -0.71993455889417
  H   2.67910693920529      0.31390495653072      0.32630852889809
  H   1.39933575748850      1.30540538593568      1.02752587340589
