17

C	-0.526538	0.019145	-1.439598
C	0.0	0.0	0.0
Br	0.263619	-1.67605	-2.265013
H	1.090356	0.0	0.0
N	-1.941078	-0.015985	-1.467546
H	-2.286216	-0.028029	-2.419278
H	-2.308698	-0.814683	-0.962916
C	0.02007	1.168676	-2.263149
H	-0.428046	2.099317	-1.909044
H	-0.244848	1.024418	-3.313903
H	1.103739	1.220311	-2.157989
C	-0.535738	-1.123421	0.750815
N	-0.968581	-2.033016	1.359297
N	-0.435908	1.274773	0.672754
O	-1.5378	1.308234	1.20931
O	0.256063	2.269501	0.445147
Br	3.239403	0.0	0.0
