17

C	-0.500271	0.025532	-1.456015
C	0.0	0.0	0.0
Br	0.22272	-1.63684	-2.27601
H	1.090135	0.0	0.0
N	-1.930742	-0.052602	-1.50177
H	-2.355256	0.478787	-0.75122
H	-2.281757	0.257157	-2.398518
C	0.135288	1.186587	-2.209217
H	-0.275961	2.130446	-1.839096
H	-0.097597	1.099022	-3.273122
H	1.218648	1.186255	-2.068362
C	-0.544537	-1.110345	0.769349
N	-0.959431	-1.99913	1.415239
N	-0.43953	1.291279	0.656564
O	-1.585803	1.337299	1.115898
O	0.354193	2.223688	0.642757
Br	3.394836	0.0	0.0
