17

C	-0.318584	0.030101	-1.501303
C	0.0	0.0	0.0
Br	-2.290867	0.070939	-1.796716
H	1.094869	0.0	0.0
N	0.230867	1.238788	-2.042397
H	1.189217	1.342494	-1.707968
H	0.233921	1.181707	-3.054295
C	0.209119	-1.255166	-2.128907
H	1.28539	-1.300314	-1.930677
H	0.038918	-1.223512	-3.207854
H	-0.275623	-2.145625	-1.726156
C	-0.519647	-1.179661	0.66985
N	-0.89494	-2.155401	1.204791
N	-0.467737	1.235679	0.709405
O	-1.524548	1.169382	1.335817
O	0.244462	2.227365	0.600779
Br	3.37345	0.0	0.0
