17

C	-0.351236	-0.002329	-1.512434
C	0.0	0.0	0.0
Br	-2.304853	0.321327	-1.690184
H	1.09523	0.0	0.0
N	0.339381	0.992438	-2.282039
H	0.24536	1.894608	-1.827844
H	1.336893	0.754448	-2.247545
C	-0.033678	-1.373217	-2.081832
H	-0.637473	-2.155629	-1.623037
H	1.027265	-1.581141	-1.898649
H	-0.222047	-1.347068	-3.156557
C	-0.516407	-1.154541	0.716079
N	-0.879241	-2.129318	1.262676
N	-0.443436	1.252326	0.694308
O	-1.201482	1.151625	1.657452
O	-0.004859	2.309808	0.244925
Br	3.337607	0.0	0.0
