17

C	-0.535061	0.022579	-1.463218
C	0.0	0.0	0.0
Br	0.209273	-1.598157	-2.285785
H	1.090293	0.0	0.0
N	-1.968104	-0.05904	-1.610871
H	-2.391511	0.732213	-1.135118
H	-2.31285	-0.902851	-1.163814
C	0.01805	1.234227	-2.188442
H	1.097561	1.299621	-2.039788
H	-0.447576	2.14553	-1.79955
H	-0.219948	1.150121	-3.248731
C	-0.542371	-1.125889	0.745292
N	-1.024006	-2.026564	1.326202
N	-0.459763	1.277293	0.655298
O	-1.626203	1.317932	1.061088
O	0.331832	2.212674	0.679518
Br	3.396982	0.0	0.0
