17

C	-0.457058	-0.011044	-1.485694
C	0.0	0.0	0.0
Br	0.123156	1.695275	-2.284064
H	1.091996	0.0	0.0
N	0.219692	-1.077336	-2.185124
H	1.221519	-1.039416	-1.989508
H	-0.141144	-1.970555	-1.857815
C	-1.961885	-0.120808	-1.666331
H	-2.477379	0.727508	-1.21532
H	-2.329261	-1.038323	-1.192875
H	-2.177354	-0.156647	-2.734764
C	-0.494512	-1.211293	0.644242
N	-0.885936	-2.21884	1.105973
N	-0.514284	1.189085	0.763237
O	0.264281	2.111561	0.9668
O	-1.700281	1.159995	1.101139
Br	3.404492	0.0	0.0
