17

C	-0.445174	0.000228	-1.484263
C	0.0	0.0	0.0
Br	-2.420152	0.244658	-1.522478
H	1.095049	0.0	0.0
N	0.112851	1.029782	-2.308439
H	0.0518	1.935663	-1.86036
H	1.091226	0.826402	-2.483312
C	-0.131162	-1.351472	-2.108254
H	-0.425754	-1.330288	-3.15905
H	0.946924	-1.532346	-2.040616
H	-0.655121	-2.161777	-1.603063
C	-0.500792	-1.128549	0.750504
N	-0.853148	-2.096788	1.323463
N	-0.406931	1.273143	0.6688
O	0.223947	2.275044	0.319891
O	-1.26411	1.244533	1.551876
Br	2.745825	0.0	0.0
