17

C	-0.539829	0.013418	-1.462041
C	0.0	0.0	0.0
Br	0.235527	-1.595253	-2.281933
H	1.090293	0.0	0.0
N	-1.972415	-0.095481	-1.608394
H	-2.408139	0.681211	-1.120591
H	-2.299396	-0.951385	-1.171762
C	-0.014549	1.23799	-2.189303
H	-0.506187	2.138229	-1.804259
H	-0.247024	1.145394	-3.250129
H	1.062434	1.332445	-2.038989
C	-0.544488	-1.126216	0.747211
N	-1.010433	-2.043523	1.314941
N	-0.460554	1.273193	0.658053
O	-1.631248	1.320272	1.051483
O	0.340408	2.199313	0.697338
Br	3.405636	0.0	0.0
