16

C	0.0	0.0	0.0
C	-0.474838	-0.039374	-1.504084
Br	1.958679	0.0	0.0
H	0.41885	-0.194389	-2.116811
C	-0.391501	1.228643	0.690639
N	-0.592464	2.211548	1.303699
C	-0.455637	-1.207881	0.813718
H	-0.142815	-2.126089	0.318647
H	-0.018569	-1.150648	1.813432
H	-1.546279	-1.123374	0.844256
C	-0.999639	1.281924	-1.92268
N	-1.371166	2.28542	-2.409875
N	-1.392476	-1.136288	-1.737981
H	-1.636871	-1.124585	-2.723147
H	-2.224678	-0.852427	-1.154853
F	-2.821056	0.0	0.0
