15
Coordinates from ORCA-job run
  C   0.75491458568876      0.22499059257073      0.14324125918863
  C   -0.25918405318958     -0.78280862458858     -0.41853331308111
  Br  2.57025746223951     -0.39304284407370     -0.14584118081158
  H   0.00614162113968     -0.98347712252350     -1.46027657520579
  N   0.63240056573169      1.50077264846354     -0.75628251039714
  O   0.88131199434095      2.56628896449860     -0.21006485801359
  O   0.30805102369791      1.34245545024893     -1.92904504442257
  N   0.51669158976617      0.48713826225692      1.49246582770177
  H   1.11177904721861      1.22247051415944      1.85035368750355
  H   -0.46384763772515      0.72232537002556      1.61089968434308
  N   -1.58641056556965     -0.18384887154320     -0.26640823763328
  H   -2.27674167906825     -0.87854522043830     -0.01395469446494
  H   -1.86346823194382      0.24839203111459     -1.13879980647549
  C   -0.16892639819975     -2.03379058078450      0.33522587851592
  N   -0.16196932412710     -3.05832056938652      0.90801988325253
