15
Coordinates from ORCA-job run
  C   0.73544882549715      0.36997354202437      0.11873359667854
  C   -0.17208917568236     -0.77806849091284     -0.38798594218429
  Br  2.59308965934575     -0.15915769137327     -0.01283905282193
  H   0.17473960850744     -1.10610044708985     -1.37183586041600
  N   0.53761826786466      1.52287563799088     -0.90359418508005
  O   0.31663833173611      1.17577524755234     -2.06156285432226
  O   0.63202424614705      2.66688774334596     -0.49587875154714
  N   0.45698706626915      0.86392266613526      1.40585110453742
  H   -0.54664666830120      0.96854928853690      1.51544037696769
  H   0.84722013731733      0.27624899068352      2.12949728390726
  N   -1.53668627595143     -0.25383635834433     -0.38808680735547
  H   -1.76878109760197      0.07550011910948     -1.31676052726730
  H   -2.20665071535529     -0.96101146640354     -0.11672938518185
  C   -0.05833113076307     -1.88995538720090      0.55595265799337
  N   -0.00458107902933     -2.77060339405398      1.33079834609201
