15
Coordinates from ORCA-job run
  C   0.61699481913147      0.46298555746711     -0.12164952105786
  C   -0.57569748611722     -0.50814460115907      0.07559422344535
  Br  1.47007899395293      0.08026259186562     -1.81280655535326
  H   -1.01748037831238     -0.21815109209096      1.03469088146086
  N   0.01521380126806      1.87407530745307     -0.12560580286381
  O   -0.46074463671204      2.18790994545788      0.96509317877232
  O   0.01334696200270      2.54804756232237     -1.14072456164930
  N   1.58553297610912      0.43811490160310      0.92043583090809
  H   1.88964095880273     -0.52146725087499      1.04501241966974
  H   1.15218826906044      0.76523398038728      1.77829413776991
  N   -0.06004536128058     -1.85809695511722      0.20366297934749
  H   -0.74631229289996     -2.45107082593260      0.65346049529119
  H   0.14402903757342     -2.24516036531257     -0.71028725515845
  C   -1.59884331944187     -0.32628575518024     -0.96737093211287
  N   -2.42690234313681     -0.22925300088878     -1.79579951846940
