15
Coordinates from ORCA-job run
  C   0.65993601533322      0.36739227260326      0.07924235149485
  C   -0.21806025350137     -0.90019544773139      0.04952265156696
  Br  2.29845523870909      0.04212115287486     -0.99591525691721
  H   0.33614993762446     -1.62359130750310      0.65997426789241
  N   -0.03198667153849      1.53652025185203     -0.61726036875780
  O   -0.92679158185643      1.26794280330388     -1.41041722863619
  O   0.37735923037340      2.65406935827417     -0.33655326654432
  N   0.89194731180563      0.77360538673374      1.40116332467803
  H   1.33848841919000      1.68206846665915      1.43606924132118
  H   1.43783692977898      0.09225861729903      1.91234865777239
  N   -0.39113579173310     -1.48500118810264     -1.25751088640721
  H   -1.05605397593402     -0.94850331548496     -1.79752841112360
  H   -0.72180339869650     -2.43662590050971     -1.16821432114605
  C   -1.47677864547766     -0.59890332363796      0.76440392167385
  N   -2.51656276407722     -0.42415782663039      1.28267532313273
