15
Coordinates from ORCA-job run
  C   0.70988138537944      0.16697981164794      0.14098679437002
  C   -0.29016845793669     -0.86060088554339     -0.43808086092742
  Br  2.52272110759453     -0.50106313546910      0.02043220410224
  H   0.05098354697929     -1.10369299027871     -1.44658425178344
  N   0.67134578044349      1.39112852037000     -0.83548091666505
  O   0.59546204370446      1.15232296646218     -2.03521083329935
  O   0.71056466525370      2.50002959518637     -0.31620027210758
  N   0.41425471583297      0.52054585846908      1.46576071738981
  H   -0.50136829460971      0.94976449734971      1.52526279382765
  H   1.09957559194393      1.15822504832086      1.84952966080816
  N   -1.65538547407803     -0.39806839709218     -0.52897130274610
  H   -2.08772469585313     -0.21457780586852      0.36481549442536
  H   -1.76670185609818      0.37247330244301     -1.17224953839954
  C   -0.23893618085468     -2.07739446909117      0.37927053846388
  N   -0.23550387770136     -3.05607191690609      1.02671977254136
