15
Coordinates from ORCA-job run
  C   0.68418359558899      0.46377413359013      0.08234460388930
  C   -0.08644127927939     -0.79988860083580     -0.37365662419623
  Br  2.58754127190374      0.17913390908047     -0.12199029583412
  H   0.25697357209665     -1.09506153900297     -1.36912655281548
  N   0.29840113549625      1.56736942383506     -0.94178491924171
  O   0.28195968415391      2.72191343957268     -0.55368446383019
  O   0.06203888835966      1.17690644320321     -2.08278412207850
  N   0.39407962797104      0.93530746188114      1.37544838330668
  H   -0.60825083144287      0.89483770921228      1.52981441524925
  H   0.89795109777265      0.42554202669720      2.08747347810513
  N   -1.50660407690560     -0.45824745128423     -0.31658994535550
  H   -1.81798872258437     -0.16753893556139     -1.23478903617017
  H   -2.06649897124212     -1.24530835288747     -0.01727794346647
  C   0.21145593301698     -1.87223577576857      0.57597424217393
  N   0.41019907509449     -2.72350389173174      1.35962878026409
