15
Coordinates from ORCA-job run
  C   0.58530905894388      0.43298512779140      0.09322981380734
  C   -0.07954779798629     -0.85360286936328     -0.40867445926702
  Br  2.56129822076566      0.16052397603263      0.13734126398037
  H   0.39884672712655     -1.13784635633423     -1.34736536891400
  N   0.37139134668037      1.50337732412219     -0.97762402334234
  O   0.08568983243734      2.62621733236415     -0.58189775693521
  O   0.53856093361902      1.15436984308855     -2.13435505262882
  N   0.01241825683679      0.86425594865018      1.29494326422526
  H   0.21594530725498      1.83783197911247      1.48258871509441
  H   0.29084946495383      0.27753541927169      2.07194978945205
  N   -1.46954669928566     -0.53796933377141     -0.66152898414917
  H   -1.91613997553289     -1.27366415333452     -1.19331080614921
  H   -1.96433454784439     -0.39607482920054      0.20970769204168
  C   0.14021994037714     -1.91400034692108      0.59344600400520
  N   0.23103993165365     -2.74393906150819      1.42054990877945
