15
Coordinates from ORCA-job run
  C   0.55290844569697      0.36129960438924     -0.05022415946455
  C   -0.68573434240489     -0.54791461141120     -0.13011825169238
  Br  1.63588934817169      0.22435185034617     -1.63859915801368
  H   -1.30726185561247     -0.27872763995110      0.74165198927041
  N   0.10673543429689      1.84747688509014      0.03330019496245
  O   0.98756480013154      2.64361572293975      0.33086642183874
  O   -1.07829444681598      2.10472237763828     -0.15132257413079
  N   1.32414088748849      0.01072680691189      1.08956904817562
  H   2.20250944293981      0.51469010273217      1.09832909689729
  H   0.81210973385491      0.22532583251109      1.94043675847722
  N   -0.22861365295302     -1.92596072038433     -0.15247706346721
  H   -1.02074175122033     -2.55564039796439     -0.14894117649092
  H   0.35958543569863     -2.10168109969318      0.65187137674514
  C   -1.49382309782284     -0.30656874812160     -1.33004095283604
  N   -2.16797438144939     -0.21471596503294     -2.28630155027130
