15
Coordinates from ORCA-job run
  C   0.61385661677480      0.47279910030719     -0.10313574748123
  C   -0.56772208428688     -0.51844059663885      0.06026524890891
  Br  1.56551038867536      0.05674660395613     -1.73334140555580
  H   -1.06881437557273     -0.20788522913591      0.98322236691530
  N   -0.01698320506138      1.86857832831892     -0.18586768785262
  O   0.00514900359332      2.50041456454868     -1.22780636968814
  O   -0.54518074841479      2.21331274506784      0.87084190900886
  N   1.52387418855145      0.50044896942236      0.99010675607262
  H   1.82763488362231     -0.45030212377053      1.17069642120273
  H   1.04152332979707      0.85807535835143      1.80855912799272
  N   -0.03164165048977     -1.85115873857397      0.26189947294920
  H   -0.72783892921626     -2.44433780365097      0.69429401792452
  H   0.23048387421774     -2.26363069669711     -0.62541737772846
  C   -1.53412759935353     -0.39366940498542     -1.04362393895963
  N   -2.31472369283671     -0.34195107651979     -1.92069279370897
