15
Coordinates from ORCA-job run
  C   0.74868444247579      0.21384413845013      0.17987229339305
  C   -0.26175254482543     -0.81441110380387     -0.35105177032381
  Br  2.55297526035916     -0.49210253144928      0.10444030711077
  H   0.07328506601759     -1.13844544491042     -1.34047909951314
  N   0.74880585896909      1.38747909162629     -0.85656151640053
  O   1.00524940428238      2.49621654046664     -0.40843861291302
  O   0.50382152335429      1.11513084858694     -2.02776065437246
  N   0.41946652284875      0.62927870501019      1.47025432033782
  H   -0.55720347960838      0.90621987807037      1.48479154882463
  H   1.01541464951838      1.37942534575733      1.79439507106123
  N   -1.57033189575734     -0.15774416116423     -0.36959653561508
  H   -1.75415763850553      0.20005146022481     -1.29861898067416
  H   -2.30765449519171     -0.80306784863381     -0.11861879428916
  C   -0.28170662210258     -1.97777496761593      0.53632608934874
  N   -0.33489605183444     -2.94309995061514      1.20204633402513
