15
Coordinates from ORCA-job run
  C   0.58998811723695      0.40007276535347      0.16952968495759
  C   -0.07150278617376     -0.89582813332434     -0.31424808828394
  Br  2.47569386779727      0.00626590740555      0.68586286274341
  H   0.56733533816790     -1.33656201016972     -1.08126955200821
  N   0.71029118698894      1.32755098682850     -1.04060076191758
  O   0.45214115088504      2.50961870859674     -0.85375097283648
  O   1.08823421320800      0.81476648107682     -2.08074888467834
  N   -0.18338665126412      1.02630105039263      1.15353009096687
  H   0.06491856820458      2.00107110102457      1.26589377432508
  H   -0.13295492212852      0.53337824084745      2.03667303238509
  N   -1.33864799498186     -0.52451383764195     -0.90791562234263
  H   -1.99300832200119     -0.23475117140933     -0.19248470286006
  H   -1.72875388352435     -1.29269439404501     -1.43813510093516
  C   -0.17307204529707     -1.82025604858895      0.83098913397772
  N   -0.32727583711780     -2.51441964634643      1.76667510650664
