14

C	-0.449613	0.023912	-1.462979
C	0.0	0.0	0.0
Br	0.246349	-1.615062	-2.315379
H	1.092781	0.0	0.0
H	-0.355572	-0.927535	0.460663
C	-1.961511	0.042542	-1.66654
H	-2.401349	-0.826075	-1.171964
H	-2.369768	0.952412	-1.218063
H	-2.218239	0.017165	-2.727454
C	0.151945	1.154784	-2.172459
N	0.53309	2.092263	-2.770125
C	-0.551741	1.138122	0.708129
N	-1.004472	2.065079	1.274621
F	2.523286	0.0	0.0
