14

C	-0.248011	0.060388	-1.501673
C	0.0	0.0	0.0
Br	-2.135595	0.575464	-1.937759
H	1.095876	0.0	0.0
H	-0.32065	0.945913	0.446705
C	0.715403	1.078498	-2.103102
H	0.457443	2.074623	-1.735106
H	1.705465	0.803983	-1.708811
H	0.67696	1.074059	-3.193619
C	-0.059255	-1.247522	-2.1256
N	0.100856	-2.285908	-2.65243
C	-0.629113	-1.111043	0.677368
N	-1.135749	-2.005879	1.247387
F	2.586266	0.0	0.0
