14

C	-0.454153	0.012182	-1.463056
C	0.0	0.0	0.0
Br	0.275524	-1.611454	-2.318682
H	1.092797	0.0	0.0
H	-0.361069	-0.928162	0.459233
C	-1.967349	-0.000746	-1.662144
H	-2.224413	-0.033175	-2.722971
H	-2.387544	-0.875596	-1.161454
H	-2.39193	0.903642	-1.216261
C	0.114224	1.157673	-2.174844
N	0.467704	2.116492	-2.754286
C	-0.562273	1.134801	0.705826
N	-1.021895	2.05772	1.273596
F	2.52393	0.0	0.0
