14

C	-0.457525	0.011196	-1.457965
C	0.0	0.0	0.0
Br	0.272504	-1.577773	-2.377213
H	1.092727	0.0	0.0
H	-0.315987	0.948524	0.454087
C	-1.970706	0.000117	-1.655262
H	-2.389027	-0.895485	-1.192499
H	-2.396546	0.884274	-1.169399
H	-2.231624	0.014433	-2.715203
C	0.111306	1.181611	-2.12866
N	0.457843	2.162049	-2.676961
C	-0.589983	-1.097814	0.735317
N	-1.073279	-1.985855	1.337329
F	2.521152	0.0	0.0
