14

C	-0.256873	-0.058629	-1.518653
C	0.0	0.0	0.0
Br	0.175167	1.728732	-2.241628
H	1.093709	0.0	0.0
H	-0.421532	0.900508	0.448875
C	0.709762	-1.067675	-2.133517
H	0.422398	-2.071146	-1.802069
H	1.696013	-0.822974	-1.716942
H	0.691795	-1.028486	-3.2238
C	-1.649609	-0.306718	-1.885147
N	-2.770599	-0.536305	-2.158221
C	-0.517762	-1.189777	0.649786
N	-0.933104	-2.159065	1.170806
F	2.596333	0.0	0.0
