14

C	-0.231571	0.075586	-1.503022
C	0.0	0.0	0.0
Br	-2.122524	0.549113	-1.959572
H	1.095875	0.0	0.0
H	-0.329707	0.939281	0.454517
C	0.715902	1.122746	-2.078859
H	0.426866	2.109539	-1.709417
H	1.702866	0.864394	-1.671149
H	0.699742	1.12458	-3.169514
C	0.0023	-1.221407	-2.136892
N	0.202303	-2.264168	-2.641648
C	-0.624982	-1.123772	0.659311
N	-1.12618	-2.029011	1.216213
F	2.585955	0.0	0.0
