14

C	-0.285366	-0.03762	-1.510873
C	0.0	0.0	0.0
Br	0.254937	1.713181	-2.243852
H	1.093689	0.0	0.0
H	-0.411779	0.899216	0.460105
C	0.599307	-1.105755	-2.140243
H	0.5768	-1.061829	-3.228983
H	1.60288	-0.919178	-1.739447
H	0.254682	-2.090379	-1.809097
C	-1.701531	-0.184749	-1.838175
N	-2.841196	-0.320404	-2.092976
C	-0.527066	-1.187882	0.644561
N	-0.951632	-2.150516	1.17071
F	2.587183	0.0	0.0
