15

C	0.0	0.0	0.0
C	-0.525139	-0.139842	-1.421142
Br	2.039126	0.0	0.0
H	-0.171398	0.731216	-1.985609
H	-1.616154	-0.064094	-1.300156
N	-0.510638	1.136241	0.614528
H	-0.210246	1.310916	1.559285
H	-0.551823	1.956736	0.032729
C	-0.279934	-1.191924	0.812515
N	-0.448446	-2.149713	1.471904
C	-0.151353	-1.433584	-2.125343
H	0.928989	-1.540681	-2.244355
H	-0.531511	-2.294302	-1.571356
H	-0.612981	-1.452088	-3.115331
Br	-4.005481	0.0	0.0
