15

C	0.0	0.0	0.0
C	-0.460612	0.294292	-1.436562
Br	1.97577	0.0	0.0
H	-1.529193	0.052332	-1.440922
H	0.059685	-0.386557	-2.116672
N	-0.499685	0.855332	1.036262
H	-0.32724	1.819883	0.773813
H	-1.518519	0.710425	1.045949
C	-0.333465	-1.395868	0.333632
N	-0.541802	-2.520018	0.602908
C	-0.27115	1.744328	-1.857407
H	-0.516682	1.853329	-2.916517
H	0.757405	2.086223	-1.711315
H	-0.951594	2.395123	-1.305833
Br	-3.724287	0.0	0.0
