15

C	0.0	0.0	0.0
C	-0.455847	0.178674	-1.44974
Br	2.04079	0.0	0.0
H	-1.54262	0.311429	-1.380544
H	-0.002141	1.106439	-1.813192
N	-0.527997	0.979292	0.823193
H	-0.346296	0.893596	1.809784
H	-0.442757	1.92183	0.476881
C	-0.305	-1.338468	0.517852
N	-0.526154	-2.413105	0.936616
C	-0.125468	-0.990643	-2.368509
H	0.92866	-1.26546	-2.326769
H	-0.369932	-0.725971	-3.399055
H	-0.727719	-1.85848	-2.098363
Br	-3.939181	0.0	0.0
