15

C	0.0	0.0	0.0
C	-0.334984	0.502353	-1.413627
Br	2.040283	0.0	0.0
H	-0.070268	1.567024	-1.424014
H	0.336297	0.005227	-2.116888
N	-0.582417	0.763282	1.027721
H	-1.161799	1.504196	0.657453
H	-1.122896	0.213275	1.679663
C	-0.286335	-1.431318	0.138257
N	-0.511963	-2.57996	0.244171
C	-1.784515	0.272906	-1.814622
H	-2.523812	0.685618	-1.128416
H	-1.954826	0.713374	-2.801307
H	-2.009359	-0.792926	-1.878978
Br	-4.790962	0.0	0.0
