14

C	0.0	0.0	0.0
C	-0.228492	0.218896	-1.547604
F	1.363851	0.0	0.0
H	0.224899	-0.691028	-1.961907
H	0.471541	1.036342	-1.748811
N	-0.405175	1.167578	0.86908
O	-0.56379	2.243207	0.302563
O	-0.422959	0.972674	2.077768
C	-0.467005	-1.25908	0.572525
N	-0.65475	-2.359458	0.940577
N	-1.456147	0.494048	-2.221193
H	-2.148981	-0.21005	-1.993202
H	-1.854204	1.338436	-1.834921
Cl	-3.419841	0.0	0.0
