11
Coordinates from ORCA-job run
  C   0.43636622269187      0.64623020358991      0.05069117320850
  C   -1.02054432391340      0.21885490721265      0.02959072196551
  Br  0.69863682326351      2.23806407655444     -1.00470542923992
  H   -1.63755372966296      1.03921586840401      0.40388288302644
  H   0.81551780676814      0.84158666994448      1.05163754045143
  H   -1.32007825741039     -0.00144614546159     -0.99617569736422
  N   1.31111090293286     -0.44585837737735     -0.51573837038952
  O   2.40909181007547     -0.58169449361972      0.01206908901251
  O   0.86030688885221     -1.08753690582948     -1.45753226164474
  C   -1.21275395144014     -0.96356754666213      0.86858272569230
  N   -1.34010019215718     -1.90484825675523      1.55769762528172
