11
Coordinates from ORCA-job run
  C   0.42337598011917      0.72166547886670     -0.12488322827367
  C   -0.67283776032427      0.15388220863339      0.77073893777036
  Br  -0.27747279803275      1.67447843331803     -1.62863716860958
  H   -1.30209242561047      0.97348100681696      1.12552441396591
  H   1.06539046984402      1.39496747836189      0.44123451470106
  H   -0.19896566292227     -0.31644653647081      1.63679544640468
  N   1.32663884278481     -0.42986690776918     -0.53814745898215
  O   1.97726373488612     -0.87921834335957      0.40195875002589
  O   1.31957611253184     -0.83424289492470     -1.68888639412225
  C   -1.49983159653708     -0.82911521070381      0.07512793212914
  N   -2.16104489673913     -1.62858471276889     -0.47282574500939
