11
Coordinates from ORCA-job run
  C   0.35053354556368      0.51829685606365     -0.04884479790481
  C   -0.68220608029068     -0.57047465183947      0.19503859018754
  Br  -0.19284318454083      1.73300862889713     -1.44127883212195
  H   -0.26745757685372     -1.30031770045597      0.89854527237277
  H   0.57112860918763      1.10923907455730      0.83790777859750
  H   -0.89025428625097     -1.09379373370634     -0.73960755486231
  N   1.65567823507516     -0.11781542317084     -0.45592022349904
  O   2.67272392073869      0.42433378363192     -0.03795429968578
  O   1.59289302354442     -1.11473904273119     -1.16653091319506
  C   -1.91133381567848     -0.01354291640562      0.75036403307242
  N   -2.89786239049493      0.42580512515941      1.20928094703872
