11
Coordinates from ORCA-job run
  C   0.34189258758549      0.68464001919753     -0.17115515250050
  C   -1.02790256814852      0.10729976904154      0.14000599906611
  Br  0.23156923331312      1.98034525487330     -1.59389839707981
  H   -1.70553929781322      0.92099703423602      0.40895659227857
  H   0.81392261426093      1.16389244659808      0.68393926449009
  H   -1.42030187659977     -0.39327288093427     -0.74658851967456
  N   1.28328396363432     -0.41422487465006     -0.59997324897434
  O   0.82220992495148     -1.28948488186462     -1.32297105855783
  O   2.43559350712351     -0.32450709910346     -0.19155518604855
  C   -0.93654546133183     -0.84301053035559      1.24791955960908
  N   -0.83818262697551     -1.59267425703846      2.14532014739172
