11
Coordinates from ORCA-job run
  C   0.35666479080856      0.51662856404659      0.01759341773626
  C   -0.69016320356802     -0.58233654837790      0.11752199175942
  Br  -0.15988617257301      1.89777401969319     -1.22071929842277
  H   -0.29132560873519     -1.39497774179244      0.73455866156230
  H   0.57425525946484      0.99075370988405      0.97246063168230
  H   -0.89101510085542     -0.98701787186448     -0.87582775095250
  N   1.65639666662008     -0.08492640822222     -0.45142706663025
  O   2.67271742292878      0.33133685508459      0.09412908214334
  O   1.59052499189641     -0.93319447525090     -1.33423841598849
  C   -1.91876891430599     -0.07872769862576      0.72288551954183
  N   -2.90040013168105      0.32568759542529      1.22206322756857
