11
Coordinates from ORCA-job run
  C   0.46691681216396      0.62658166150875      0.04976565588928
  C   -1.00068199916630      0.25132835012393      0.15566841879405
  Br  0.68232527528234      2.28369663916128     -0.91116218254776
  H   -1.41531358828059      0.12071918261192     -0.84511380689091
  H   0.95745027307460      0.73246746733659      1.01512811030939
  H   -1.54039442653831      1.06063863460772      0.65315242447751
  N   1.22952067223814     -0.44947695292481     -0.68445038071105
  O   2.36415966474831     -0.67453628546796     -0.27914439909632
  O   0.65968649114183     -0.99256920584592     -1.62345968261674
  C   -1.15341525979695     -0.98529224503064      0.92139688191741
  N   -1.25025391486704     -1.97255724608085      1.54821896047512
