11
Coordinates from ORCA-job run
  C   0.45135970914871      0.65792258962287     -0.01101555690018
  C   -0.72215371990049      0.05850775408288      0.74390619142838
  Br  -0.11038387826689      1.71066136248788     -1.52138950717760
  H   -0.34172968910780     -0.57793671181855      1.54758830976950
  H   1.04184998693728      1.31195787120490      0.63093026305007
  H   -1.27867539256457      0.88208547898875      1.20042308823738
  N   1.42120436423464     -0.40676599186649     -0.48222070123368
  O   1.07034472664728     -1.57712376189545     -0.37017403434302
  O   2.49282068274193      0.00003363162090     -0.91018264610479
  C   -1.63308175644844     -0.71759970244984     -0.09360862965883
  N   -2.39255503342164     -1.34074251997785     -0.73425677706722
