11
Coordinates from ORCA-job run
  C   0.37346216626364      0.49444442060205     -0.10314669709041
  C   -0.71398996557847     -0.51408774832143      0.23455196314718
  Br  -0.04203385204818      1.50322213372694     -1.68972917616498
  H   -0.36971537774824     -1.13942930855311      1.06557845938086
  H   0.56659801641220      1.20269385016793      0.69997916213794
  H   -0.88641067528667     -1.16616766504540     -0.62330341091269
  N   1.67016952069937     -0.23944638514090     -0.32861371595751
  O   1.61251848912197     -1.29197691350927     -0.95482629407526
  O   2.67626330777499      0.28557361197782      0.13600699434654
  C   -1.94914703306268      0.16026849470751      0.62085600618556
  N   -2.93671459654791      0.70490550938786      0.94364670900278
