11
Coordinates from ORCA-job run
  C   0.42708186085863      0.71714762543983     -0.13588849077849
  C   -0.65893343445287      0.16421746416739      0.78085822651978
  Br  -0.29065068246794      1.66691705086403     -1.63372792496930
  H   -1.27447917585656      0.99115371746294      1.14244086379173
  H   1.08418651233408      1.38862909576448      0.41473561761030
  H   -0.17525456350439     -0.30688751966154      1.64119603117734
  N   1.31432797501360     -0.44399606908579     -0.55693517813119
  O   1.28686009646864     -0.85392412837288     -1.70533343479298
  O   1.97595079748392     -0.89340809370425      0.37542904999718
  C   -1.50570763527255     -0.81533790299690      0.10418319477221
  N   -2.18238175060457     -1.61251123987733     -0.42795795519660
