11
Coordinates from ORCA-job run
  C   0.46836872360024      0.64458571783176     -0.00779056219135
  C   -0.75040566322766      0.09068205310837      0.70899087028088
  Br  0.00067004540273      1.66150223963803     -1.57434349696990
  H   -0.41762237113535     -0.53502081823268      1.54210097557928
  H   1.04222372488982      1.30574899427674      0.64149412892196
  H   -1.30455893699810      0.93749846939002      1.12408131677620
  N   1.43518686234824     -0.45118098244248     -0.40464686909642
  O   1.03332019322055     -1.60852091989745     -0.33958588270487
  O   2.55285477424292     -0.07946958314254     -0.73715465760378
  C   -1.64834520552146     -0.68161889466430     -0.14571841029781
  N   -2.40969214682192     -1.28220627586548     -0.80542741269419
