11
Coordinates from ORCA-job run
  C   0.45452078679360      0.65393241250264     -0.02571134564619
  C   -0.75202000319726      0.09591124171607      0.70838079710710
  Br  -0.03687128232937      1.62415070746529     -1.61419516741595
  H   -0.40682002351789     -0.49865508358099      1.55885321742491
  H   1.01769476272915      1.34154002802175      0.60547120681723
  H   -1.32465668420022      0.94228741468903      1.09827330280250
  N   1.44103786009196     -0.43428082150823     -0.39724966835376
  O   2.53739967968677     -0.05069693402545     -0.78191124472951
  O   1.07555433807337     -1.59716668688411     -0.25776198315348
  C   -1.63081188579542     -0.72083364816625     -0.12479216947869
  N   -2.37502754833471     -1.35718863022975     -0.77035694537417
