19

C	0.0	0.0	0.0
C	-0.418755	-0.030678	-1.527827
Br	1.97929	0.0	0.0
H	0.511582	-0.11082	-2.097543
C	-0.535317	1.151882	0.833616
H	-0.170966	1.067482	1.860577
H	-1.631182	1.006739	0.776533
H	-0.21971	2.110956	0.42098
C	-0.341098	-1.255751	0.675927
N	-0.541716	-2.271855	1.231932
C	-1.128672	1.254723	-1.94411
H	-1.341097	1.203638	-3.017642
H	-2.066149	1.29611	-1.384065
H	-0.515028	2.145852	-1.776243
C	-1.289701	-1.239328	-1.876142
H	-0.765471	-2.183311	-1.69991
H	-1.547408	-1.19058	-2.940924
H	-2.193914	-1.162782	-1.261334
F	-2.937541	0.0	0.0
