12

C	-0.45834	-0.036409	-1.446843
C	0.0	0.0	0.0
Cl	-2.246395	-0.661174	-1.476775
H	1.093659	0.0	0.0
H	0.073389	-0.825303	-1.974931
H	-0.325231	-0.906534	0.513704
N	-0.295749	1.189852	-2.100167
H	-0.77431	1.949283	-1.634501
H	-0.546933	1.151956	-3.07662
C	-0.535243	1.162337	0.695722
N	-0.96034	2.122242	1.221346
Br	3.517879	0.0	0.0
