12

C	-0.540261	0.029857	-1.436175
C	0.0	0.0	0.0
Cl	-0.135484	-1.538381	-2.198175
H	1.092922	0.0	0.0
H	0.000789	0.790733	-2.000936
H	-0.345217	-0.904484	0.510751
N	-1.959174	0.26176	-1.594068
H	-2.471382	-0.389952	-1.009063
H	-2.169339	1.199699	-1.269776
C	-0.494423	1.171819	0.716462
N	-0.930975	2.13419	1.229212
Br	3.523624	0.0	0.0
