12

C	-0.351139	0.026614	-1.474106
C	0.0	0.0	0.0
Cl	-2.147168	-0.033448	-1.733222
H	1.095963	0.0	0.0
H	0.002677	-0.909306	-1.919466
H	-0.349081	-0.92568	0.461689
N	0.173728	1.221796	-2.067013
H	1.156255	1.295133	-1.806227
H	0.108262	1.169413	-3.077179
C	-0.521661	1.145269	0.733756
N	-0.928699	2.053281	1.355687
Br	3.512265	0.0	0.0
