13

C	0.0	0.0	0.0
C	-0.23692	-0.353396	-1.482602
F	1.36543	0.0	0.0
H	-0.140022	-1.435815	-1.549845
H	-0.424335	-0.678535	0.72942
H	0.596876	0.115131	-2.007379
N	-0.323129	1.398601	0.43707
O	-0.154176	2.287189	-0.39284
O	-0.545629	1.548332	1.634202
N	-1.399275	-0.010186	-2.36427
O	-1.869629	-0.955667	-2.994784
O	-1.639995	1.168282	-2.565751
Br	-3.217195	0.0	0.0
