13

C	0.0	0.0	0.0
C	-0.597649	0.009591	-1.377127
F	1.35044	0.0	0.0
H	-1.672237	0.231318	-1.287302
H	-0.384682	-0.844374	0.572325
H	-0.490836	-0.973698	-1.835785
N	-0.381392	1.2304	0.810119
O	-0.012889	1.187751	1.982141
O	-0.968983	2.1527	0.262346
N	0.029704	0.968681	-2.327852
O	-0.283544	0.8159	-3.507164
O	0.790849	1.834603	-1.908134
Br	-3.696623	0.0	0.0
