13

C	0.0	0.0	0.0
C	-0.574998	0.181068	-1.383445
F	1.353558	0.0	0.0
H	-1.66469	0.332584	-1.311614
H	-0.3871	-0.930954	0.420604
H	-0.350043	-0.722859	-1.953236
N	-0.38321	1.045255	1.031283
O	0.167726	2.13872	0.947887
O	-1.148752	0.671193	1.91088
N	0.058879	1.277942	-2.167811
O	-0.066573	2.431259	-1.770998
O	0.654546	0.941039	-3.196313
Br	-3.735276	0.0	0.0
