13

C	0.0	0.0	0.0
C	-0.540934	0.820883	-1.132475
F	1.360788	0.0	0.0
H	-1.641999	0.788717	-1.074776
H	-0.379136	-1.01698	0.014144
H	-0.168987	1.840826	-1.106699
N	-0.376906	0.620522	1.320953
O	-0.529582	-0.15457	2.258324
O	-0.381462	1.847561	1.383821
N	-0.131609	0.227234	-2.42893
O	0.009761	-0.992596	-2.490801
O	-0.009585	1.000092	-3.377493
Br	-3.610979	0.0	0.0
