13

C	0.0	0.0	0.0
C	-0.568575	-0.176688	-1.382049
F	1.350327	0.0	0.0
H	-1.612616	0.1691	-1.384366
H	-0.390063	-0.759574	0.675413
H	-0.565709	-1.232232	-1.649884
N	-0.386763	1.321983	0.642508
O	-0.913071	2.19486	-0.032818
O	-0.077374	1.400495	1.830148
N	0.203953	0.516345	-2.447915
O	0.818468	1.543458	-2.173699
O	0.139982	0.011085	-3.569131
Br	-3.608464	0.0	0.0
