13

C	0.0	0.0	0.0
C	-0.544364	0.104205	-1.406136
F	1.35203	0.0	0.0
H	-1.633598	0.187478	-1.359835
H	-0.399215	-0.878529	0.501791
H	-0.228661	-0.793701	-1.941035
N	-0.376385	1.173963	0.864394
O	-0.669443	0.932849	2.029495
O	-0.245158	2.285411	0.359846
N	0.01449	1.249781	-2.184514
O	-0.760244	2.135561	-2.531076
O	1.212481	1.202162	-2.468284
Br	-3.645717	0.0	0.0
