13
Coordinates from ORCA-job run
  C   -0.59778199450177     -0.16121423908334      0.06126564984915
  C   0.62431854776387     -0.60430064766077     -0.21783513681106
  H   0.69380046076618     -1.66362853217635     -0.45146308930979
  N   -0.90576490285000      1.21179445022771      0.45201069842697
  O   -1.39547378605969      1.34856890055055      1.56945513454562
  O   -0.62785023877947      2.10170653770753     -0.34783377008660
  N   -1.79119970190177     -1.01714211178946      0.00310187818753
  O   -1.61688555635551     -2.22723010562830      0.05708730770964
  O   -2.86206474254822     -0.43353986124361     -0.13194483074339
  C   1.87020772701185      0.21459938369023     -0.23447252167720
  H   1.71457009558561      1.23327662583168      0.11543533033559
  H   2.25877531524322      0.26276460020243     -1.25579498520704
  H   2.63534877662571     -0.26565500062829      0.37998833478058
