13
Coordinates from ORCA-job run
  C   -0.60001826199367     -0.15795089225163      0.03917075549857
  C   0.64620316688653     -0.62026134159967      0.00846040713547
  H   0.74368750549758     -1.70140287604496      0.06481592714307
  N   -0.95393711388111      1.25872524015315      0.02956194270005
  O   -1.56265823393057      1.66009187858362      1.01730985947927
  O   -0.59555550734774      1.92327081712928     -0.93941510766182
  N   -1.77746707521928     -1.03750742006168      0.07840000703423
  O   -2.82926523923972     -0.54137754724660     -0.31291048009566
  O   -1.60586903978847     -2.18770900210730      0.45950285570201
  C   1.88431808452924      0.20527471247505     -0.08603078351517
  H   1.68731610031835      1.27426636869291     -0.03280284467534
  H   2.38611495818182     -0.00041201228128     -1.03588697645025
  H   2.57613065598702     -0.07500792544090      0.71182443770557
