13
Coordinates from ORCA-job run
  C   -0.53388316252806      0.31642108205387      0.03557502666682
  C   0.68323642430416      0.29391985398068     -0.49923054917694
  H   0.92411781829470      1.13387943319688     -1.14573650007417
  N   -1.07956478702956     -0.73689593242862      0.88704361913318
  O   -0.48562428469806     -0.97994933809067      1.93449716625906
  O   -2.07935000168429     -1.30350423927217      0.45498556870715
  N   -1.47682042954995      1.42549141065643     -0.17139339313409
  O   -1.28296444611695      2.15398746089025     -1.13539542589666
  O   -2.36077381418481      1.54061666728205      0.67175710288889
  C   1.71076614037430     -0.76674882292181     -0.29303635825217
  H   2.56818179756582     -0.34382132999523      0.23826725069292
  H   2.07340567405413     -1.12209396342973     -1.26047751309714
  H   1.33927307119858     -1.61130228192193      0.28414400528315
