13
Coordinates from ORCA-job run
  C   -0.57969367188469     -0.18855571028867      0.12175504526619
  C   0.60650249060861     -0.55730982304773     -0.35244197068671
  H   0.67793910195675     -1.59244816608899     -0.67634190288516
  N   -1.70755637953965     -1.12098394080118      0.26495482299048
  O   -2.57304827957355     -0.79400651687171      1.07089503328635
  O   -1.67219254615461     -2.14982391344446     -0.39672619874056
  N   -0.90784511773998      1.16552118736130      0.55882853015178
  O   -0.25027986975442      1.63449178444204      1.48439494648044
  O   -1.80539885290974      1.72206136813501     -0.06723026656399
  C   1.80913779873489      0.31523126632528     -0.47771413849589
  H   2.19991601825804      0.26073747047013     -1.49655772076978
  H   1.60793507612352      1.35443118058039     -0.22473971566078
  H   2.59458423187484     -0.05034618677142      0.18992353562764
