13
Coordinates from ORCA-job run
  C   -0.56212441610226      0.26141878260922     -0.04744735700519
  C   0.66188822878946      0.21889971171022     -0.56508074669025
  H   0.83555916045799      0.88165777355331     -1.40883595386174
  N   -1.60385706634469      1.17901069859533     -0.53167704434556
  O   -1.45602290537368      1.65522911199763     -1.64920123931994
  O   -2.51860857062121      1.41234892357880      0.25212096559764
  N   -1.01882783277563     -0.58187222613924      1.05364766215127
  O   -0.43084533112348     -0.47372784067556      2.12685599136706
  O   -1.94233430762834     -1.34649361283562      0.78976546254755
  C   1.78057011775299     -0.64539731854633     -0.09023504564391
  H   1.47247859184301     -1.35701707159744      0.67350769271130
  H   2.21300664987230     -1.18732280632388     -0.93449491068241
  H   2.57111768125353     -0.01773412592645      0.33107452317418
