13
Coordinates from ORCA-job run
  C   -0.59992383448211     -0.16011394864699      0.03470183048560
  C   0.59002518505822     -0.50835881800878     -0.44560722834626
  H   0.61231301826248     -1.43660878248651     -1.01057664809142
  N   -0.85924872723198      1.07126479472110      0.77536834269394
  O   -0.25195564451385      1.23166051587975      1.83114210671188
  O   -1.65082159381809      1.84982235803244      0.25153122598972
  N   -1.80184373134884     -0.99147420658893     -0.12617409389010
  O   -1.78538237313288     -1.83504217891874     -1.01252835367970
  O   -2.70791712813002     -0.78374564136455      0.67472429171130
  C   1.85831441940320      0.25713178666804     -0.27414833016002
  H   1.70851001147094      1.22683287848962      0.19687300483354
  H   2.54895400717958     -0.31866883082240      0.34866597005101
  H   2.33897639128335      0.39830007304595     -1.24497211830948
