13
Coordinates from ORCA-job run
  C   -0.60195977067542     -0.13854716805194      0.07223242854946
  C   0.60440641292939     -0.63600503213510     -0.18215648132699
  H   0.64221464370824     -1.71057939257568     -0.34117561443915
  N   -0.86684068454583      1.26600420256435      0.36908827925052
  O   -1.34365117780095      1.49380508838931      1.47734648869919
  O   -0.57138059875221      2.09008989582848     -0.49278664501708
  N   -1.82103477070421     -0.96140917057201      0.07700217886292
  O   -1.68023743634348     -2.17011772125098      0.20580783867313
  O   -2.87601027118401     -0.35617660656655     -0.08428125731687
  C   1.87429748040741      0.14243930103837     -0.25201801020442
  H   2.26533583187619      0.10988757064158     -1.27296037147944
  H   2.62451459830846     -0.31695205283860      0.39592208430589
  H   1.74834574277642      1.18656108552877      0.02797908144283
