13
Coordinates from ORCA-job run
  C   -0.55769539778701      0.27020228013558     -0.04922615929781
  C   0.71274785402620      0.32124548240261     -0.43805693470948
  H   0.96272010627151      1.13782230127711     -1.11049205235780
  N   -1.55354877336488      1.27933858738055     -0.43863670072752
  O   -1.30359109941194      1.96310846123204     -1.42229133183616
  O   -2.53836473413972      1.36787587098988      0.28782804173779
  N   -1.11573260120816     -0.77243211109820      0.80743453017646
  O   -0.63500693083123     -0.89703662340354      1.93093220298328
  O   -2.00760303139898     -1.45027875972995      0.30500929028160
  C   1.78815910677939     -0.63242919365966     -0.04110565786235
  H   2.53818640585605     -0.10582148453123      0.55597991697033
  H   2.29328865811789     -1.01085003332108     -0.93293390676255
  H   1.41744043709088     -1.47074477767411      0.54555876140421
