13
Coordinates from ORCA-job run
  C   -0.54093632426644      0.30516829830677     -0.03113728624700
  C   0.74311149879551      0.32980909994585     -0.37503627788641
  H   1.05650967085859      1.19983368326717     -0.94637540514375
  N   -1.49855070913899      1.34105672668200     -0.44530817523225
  O   -1.04096963801540      2.42127417565217     -0.79362320955857
  O   -2.68034093847424      1.01090398939651     -0.43699955211068
  N   -1.15660240748616     -0.74074763964765      0.78084767394840
  O   -1.11934439694104     -1.88860651555880      0.34495815766443
  O   -1.63590835572690     -0.36997842978644      1.84858162415189
  C   1.76065223306442     -0.70674849696033     -0.03824855411395
  H   2.11263767706052     -1.18257396024310     -0.95804721131204
  H   1.37445260905283     -1.48456162203071      0.61769404650030
  H   2.62628908121728     -0.23382930902346      0.43169416933962
