13
Coordinates from ORCA-job run
  C   -0.58731706343723     -0.19424339423796      0.06283548825940
  C   0.65739793766411     -0.56703358754999     -0.21881729921510
  H   0.78853906170233     -1.62204592227481     -0.44538611440390
  N   -0.97497458264343      1.16030992057117      0.44653681028021
  O   -1.47035778133826      1.27354952320741      1.56413590476320
  O   -0.75143651279838      2.06052450684134     -0.35881778908311
  N   -1.72925974136229     -1.11874362403899      0.00931121410588
  O   -1.48490651594854     -2.31639569139780      0.06837345156508
  O   -2.83235346565594     -0.59879395776064     -0.12687445905982
  C   1.85533074882418      0.32060900276965     -0.23650102921986
  H   2.64108547577356     -0.10899441329852      0.38948155516826
  H   2.24964771856104      0.37834604350751     -1.25508538950395
  H   1.63960472065886      1.33291159366164      0.09980765634370
