13
Coordinates from ORCA-job run
  C   -0.59428359197149     -0.17774561402862      0.03703295335809
  C   0.66640870910223     -0.59893460263795      0.00646938013755
  H   0.79964219793915     -1.67638671490899      0.05965869822578
  N   -0.99451579845966      1.22650266569081      0.03196466816421
  O   -0.65732244158559      1.90582481885546     -0.93440484050961
  O   -1.61717615881847      1.60408456143403      1.02042203644268
  N   -1.74239392905415     -1.09563922663610      0.07291417373557
  O   -1.53330637824057     -2.24076808855350      0.45053922602890
  O   -2.80975008602509     -0.63297191927446     -0.31732605158357
  C   1.87651699194976      0.26775443337867     -0.08323632417889
  H   2.38563942629716      0.08375049109431     -1.03364259666463
  H   1.64380095465294      1.32931873146935     -0.02533159867664
  H   2.57674010421378      0.00721046411699      0.71394027552056
