13
Coordinates from ORCA-job run
  C   -0.54935143136463      0.28744891350336     -0.04211391577972
  C   0.76643536070756      0.43458920880091     -0.16350750341033
  H   1.09986821189746      1.42731952029310     -0.45469796198802
  N   -1.50448968034628      1.36437326036551     -0.34198068979890
  O   -2.64998757490010      1.00743512897101     -0.59891928917489
  O   -1.07480202761013      2.51023015392191     -0.34534595529194
  N   -1.20464064689543     -0.94362143883140      0.39053340633752
  O   -1.85885536947609     -0.86050034340269      1.42610677304000
  O   -1.02742695758920     -1.94789240585722     -0.29435718459906
  C   1.79050378272502     -0.62362951756755      0.07104117497161
  H   2.54916773422159     -0.25526685698233      0.76560954997130
  H   2.29812328639706     -0.85308649845656     -0.87023844231405
  H   1.36545531223317     -1.54739912475805      0.45887003803648
