13
Coordinates from ORCA-job run
  C   -0.55326985231151      0.28280704272222     -0.01367237230720
  C   0.70861604820747      0.34231037972460     -0.42817254797846
  H   0.95492406437519      1.19676243707122     -1.05322453182427
  N   -1.57350273416118      1.26159614188474     -0.41779283521780
  O   -2.73859000798988      0.88631217592135     -0.33269332057028
  O   -1.17945684971822      2.34253103462078     -0.83491941140375
  N   -1.08135497264486     -0.74822521030019      0.87526492290426
  O   -1.52035397813374     -0.34794507649159      1.94969633037290
  O   -1.01929271501645     -1.91258452637878      0.48871636353016
  C   1.78270371520576     -0.64058395676776     -0.10589891424476
  H   2.65610899324981     -0.11638639662939      0.28918503526860
  H   1.46484228709245     -1.39893249780489      0.60697792915805
  H   2.09762600184514     -1.14766154757230     -1.02246664768744
