13
Coordinates from ORCA-job run
  C   -0.60054795617673     -0.14458554790269      0.06853681550046
  C   0.59879832863471     -0.61166515156417     -0.26479154002367
  H   0.62856452891585     -1.65974863983929     -0.55129015128676
  N   -0.85537086854305      1.21566985896615      0.53424353966556
  O   -0.56733878682310      2.13599097830300     -0.22670756964512
  O   -1.31677408639097      1.31023879265536      1.66804569289565
  N   -1.82284475165649     -0.95885223172947     -0.00335797682822
  O   -2.87682084295622     -0.33597059606999     -0.08496884842995
  O   -1.68670605642569     -2.17501885621949     -0.01275412744146
  C   1.87059889981917      0.16686168060495     -0.26963058295223
  H   1.75489239222662      1.17234820120757      0.13028430063480
  H   2.63146731096248     -0.36578704722461      0.30576173772871
  H   2.24108188841342      0.25051855881268     -1.29537128981778
