19

C	0.0	0.0	0.0
C	-0.308656	0.285707	-1.519284
F	1.422065	0.0	0.0
H	0.390457	-0.400716	-2.026681
C	-0.612012	1.000045	0.93452
H	-0.319284	0.788791	1.967318
H	-0.320321	2.019395	0.680521
H	-1.703768	0.862482	0.805695
N	-0.43054	-1.347933	0.287253
H	-1.088929	-1.385004	1.052369
H	0.358174	-1.966076	0.408332
C	0.053003	1.714335	-1.917019
H	1.019735	2.028551	-1.512552
H	0.077641	1.77725	-3.005811
H	-0.725252	2.398595	-1.572641
N	-1.652267	0.011675	-1.98263
H	-2.334758	0.227623	-1.218336
H	-1.744086	-1.001543	-2.06579
F	-3.285755	0.0	0.0
