19

C	0.0	0.0	0.0
C	-0.259472	-0.024171	-1.522315
F	1.440562	0.0	0.0
H	0.12751	0.947234	-1.876953
C	-0.621759	1.168537	0.701538
H	-1.708999	0.992521	0.61905
H	-0.330397	2.112819	0.23322
H	-0.324338	1.190017	1.755623
N	-0.419026	-1.22516	0.57639
H	-0.097254	-1.296632	1.533041
H	-0.039073	-1.977992	0.015158
C	-1.698034	-0.197298	-1.972471
H	-2.474603	0.193973	-1.271189
H	-1.798509	0.203084	-2.991656
H	-1.923913	-1.267449	-1.994636
N	0.540694	-1.138159	-2.077364
H	1.521992	-0.890562	-2.071979
H	0.246231	-1.280549	-3.035959
F	-3.521632	0.0	0.0
