13

C	-0.513196	0.159982	-1.394493
C	0.0	0.0	0.0
F	-1.894825	0.213322	-1.43687
H	1.090812	0.0	0.0
H	-0.113326	1.04127	-1.890228
H	-0.363426	-0.951723	0.403921
N	-0.138767	-1.017752	-2.252796
O	0.56523	-0.803684	-3.237312
O	-0.585643	-2.112321	-1.915651
N	-0.417326	1.181342	0.761112
H	0.359794	1.437057	1.359761
H	-1.218029	0.974099	1.34116
H	2.915347	0.0	0.0
