13

C	-0.517211	0.082021	-1.399458
C	0.0	0.0	0.0
F	-1.900198	0.091892	-1.442657
H	1.090813	0.0	0.0
H	-0.144411	0.952229	-1.934313
H	-0.359975	-0.92927	0.455241
N	-0.107115	-1.120132	-2.20613
O	-0.507225	-2.214251	-1.812737
O	0.576915	-0.926282	-3.209482
N	-0.419684	1.219381	0.698112
H	-1.197629	1.035226	1.315992
H	0.370343	1.527052	1.253186
H	2.914895	0.0	0.0
