13

C	-0.470247	0.045807	-1.430209
C	0.0	0.0	0.0
F	-1.82706	0.284538	-1.523313
H	1.091408	0.0	0.0
H	0.060743	0.793281	-2.016159
H	-0.3272	0.953971	0.43347
N	-0.240516	-1.259049	-2.140884
O	0.787078	-1.356987	-2.803572
O	-1.081474	-2.142256	-1.981211
N	-0.485213	-1.120443	0.791875
H	-1.357676	-1.482566	0.432416
H	0.208251	-1.856967	0.751732
H	2.931527	0.0	0.0
