15

C	-0.558041	-0.066925	-1.414886
C	0.0	0.0	0.0
Cl	0.172423	1.190378	-2.454974
H	1.090663	0.0	0.0
H	-1.628711	0.139527	-1.394027
C	-0.33788	-1.380934	-2.010835
N	-0.192202	-2.442463	-2.491723
C	-0.496578	-1.143618	0.874599
H	-1.590682	-1.195789	0.894889
H	-0.12251	-0.99624	1.888429
H	-0.092748	-2.086988	0.50427
N	-0.480894	1.271656	0.636879
O	-1.544276	1.75757	0.240071
O	0.182803	1.703469	1.571682
Br	3.46423	0.0	0.0
