15

C	-0.549804	-0.058179	-1.418624
C	0.0	0.0	0.0
Cl	0.255262	1.127508	-2.484247
H	1.090645	0.0	0.0
H	-1.607671	0.211843	-1.408031
C	-0.410759	-1.395663	-1.989038
N	-0.329695	-2.472717	-2.451033
C	-0.49237	-1.142834	0.875791
H	-1.586051	-1.193613	0.904536
H	-0.094283	-2.085823	0.500632
H	-0.107177	-0.993535	1.884619
N	-0.459682	1.277129	0.642121
O	-1.403931	1.892771	0.137851
O	0.109067	1.595772	1.680494
Br	3.447321	0.0	0.0
