15

C	-0.429302	0.003815	-1.456629
C	0.0	0.0	0.0
Cl	-2.225475	-0.019851	-1.610942
H	1.093587	0.0	0.0
H	-0.079129	-0.939796	-1.880301
C	0.093095	1.077379	-2.301345
N	0.457232	1.861283	-3.097229
C	-0.456741	-1.234097	0.749747
H	-0.085878	-2.114983	0.217193
H	-0.011538	-1.233581	1.743925
H	-1.541799	-1.29103	0.845211
N	-0.459217	1.247925	0.681308
O	-0.321036	2.300973	0.067222
O	-0.928515	1.156683	1.815013
Br	3.371035	0.0	0.0
