13

C	-0.336192	0.036316	-1.491327
C	0.0	0.0	0.0
F	-0.169721	-1.267996	-2.00004
H	1.094649	0.0	0.0
H	-0.325147	0.933418	0.465507
C	-1.75441	0.367263	-1.760843
N	-2.882703	0.625361	-1.956774
N	0.511301	0.979078	-2.103895
H	0.434533	0.947712	-3.111959
H	1.476521	0.825037	-1.809868
C	-0.578092	-1.138141	0.692417
N	-1.072166	-2.033212	1.268853
Br	3.463056	0.0	0.0
