13

C	-0.530717	-0.020958	-1.427632
C	0.0	0.0	0.0
F	0.050549	1.074983	-2.078873
H	1.092192	0.0	0.0
H	-0.310302	0.952834	0.444483
C	-0.118383	-1.226916	-2.176994
N	0.140791	-2.176305	-2.815964
N	-1.951525	0.051915	-1.456501
H	-2.263586	0.863519	-0.937188
H	-2.287308	0.109542	-2.410094
C	-0.533222	-1.10143	0.790361
N	-0.96707	-1.975924	1.442083
Br	3.476456	0.0	0.0
