13

C	-0.533838	-0.07905	-1.423435
C	0.0	0.0	0.0
F	-1.869332	-0.564009	-1.343684
H	1.092023	0.0	0.0
H	-0.30118	-0.940901	0.474244
C	-0.675031	1.242347	-2.076959
N	-0.810332	2.274866	-2.616104
N	0.286864	-0.909096	-2.203003
H	-0.186515	-1.286849	-3.008225
H	0.790964	-1.603684	-1.672494
C	-0.565335	1.100043	0.764555
N	-1.033513	1.985723	1.376459
Br	3.465396	0.0	0.0
