13

C	-0.342997	-0.132958	-1.483399
C	0.0	0.0	0.0
F	-1.680859	-0.485727	-1.663064
H	1.094228	0.0	0.0
H	-0.372705	0.937159	0.415911
C	-0.219061	1.195986	-2.148053
N	-0.105601	2.229467	-2.69589
N	0.477689	-1.145463	-2.049358
H	0.472868	-1.110945	-3.060372
H	1.433792	-1.062642	-1.704292
C	-0.518239	-1.130345	0.757109
N	-0.931605	-2.028535	1.389035
Br	3.441535	0.0	0.0
