14

C	-0.495196	0.041526	-1.432901
C	0.0	0.0	0.0
Br	-0.03825	-1.578622	-2.454379
H	1.095476	0.0	0.0
H	-1.587047	0.110734	-1.506567
H	-0.029246	0.859905	-1.980834
N	-0.485066	-1.136373	0.779215
H	-1.465456	-1.320302	0.564507
H	0.04719	-1.95353	0.492696
C	-0.437105	1.296436	0.673197
H	-1.531602	1.396141	0.734782
H	-0.030648	1.299247	1.685808
H	-0.03372	2.164564	0.143523
F	2.710017	0.0	0.0
