14

C	-0.205587	0.065395	-1.48213
C	0.0	0.0	0.0
Br	-2.125399	-0.030318	-2.085938
H	1.099503	0.0	0.0
H	0.270962	-0.780103	-1.975828
H	0.168482	0.997518	-1.90503
N	-0.427824	-1.257135	0.61572
H	-1.274865	-1.601596	0.173125
H	0.312154	-1.932908	0.459961
C	-0.560704	1.191032	0.747314
H	-0.227995	1.137877	1.785437
H	-0.193725	2.128411	0.316941
H	-1.657635	1.206214	0.735256
F	2.652749	0.0	0.0
