17

C	-0.140018	-0.074977	-1.527421
C	0.0	0.0	0.0
F	-0.041677	1.252369	-2.025059
H	1.092363	0.0	0.0
N	0.922383	-0.894209	-1.950837
H	1.033981	-0.875208	-2.955117
H	1.785476	-0.622825	-1.426303
C	-1.436633	-0.570865	-2.046539
N	-2.439432	-1.001143	-2.480844
C	-0.568052	-1.198984	0.72684
H	-1.651504	-1.279225	0.600702
H	-0.331954	-1.122791	1.79105
H	-0.086918	-2.095184	0.335513
N	-0.629469	1.230355	0.522374
O	0.01248	1.927494	1.304666
O	-1.796293	1.451797	0.183708
F	2.657511	0.0	0.0
