17

C	-0.44731	0.019661	-1.455531
C	0.0	0.0	0.0
F	-0.057122	-1.23214	-1.994147
H	1.090937	0.0	0.0
N	-1.851632	0.202771	-1.603493
H	-2.116102	0.129092	-2.578729
H	-2.335881	-0.506659	-1.06855
C	0.252337	1.009498	-2.301808
N	0.721821	1.717985	-3.111229
C	-0.467522	-1.221604	0.758734
H	-1.550211	-1.258587	0.927834
H	0.021908	-1.224918	1.731398
H	-0.143744	-2.107434	0.213414
N	-0.430872	1.242747	0.656037
O	-0.825552	1.186604	1.826109
O	-0.319897	2.294822	0.024128
F	2.510226	0.0	0.0
