17

C	-0.441117	-0.01179	-1.456558
C	0.0	0.0	0.0
F	-0.147179	-1.274656	-1.962356
H	1.090514	0.0	0.0
N	-1.866113	0.153821	-1.632272
H	-2.073856	0.112805	-2.624689
H	-2.109373	1.081565	-1.302043
C	0.350027	0.925177	-2.302042
N	0.861425	1.647406	-3.074169
C	-0.460565	-1.215262	0.776003
H	-1.550442	-1.279658	0.855448
H	-0.017973	-1.175381	1.770407
H	-0.079811	-2.102204	0.271471
N	-0.423458	1.238623	0.651207
O	-0.696887	2.221171	-0.059054
O	-0.431713	1.280345	1.881597
F	2.498169	0.0	0.0
