17

C	-0.202751	0.200874	-1.52725
C	0.0	0.0	0.0
F	-1.266728	1.108209	-1.77572
H	1.092522	0.0	0.0
N	1.003214	0.662398	-2.076377
H	1.158542	0.375663	-3.030361
H	1.814264	0.489467	-1.441303
C	-0.686778	-1.049121	-2.175714
N	-1.024589	-2.029303	-2.729259
C	-0.612338	-1.237298	0.602752
H	-0.139702	-2.114665	0.157967
H	-0.412585	-1.255197	1.674457
H	-1.693103	-1.291705	0.452119
N	-0.454254	1.235695	0.686658
O	0.108529	2.28483	0.389155
O	-1.356701	1.145012	1.525918
F	2.647665	0.0	0.0
