17

C	-0.40933	0.024359	-1.468804
C	0.0	0.0	0.0
F	-0.248431	-1.267791	-1.961502
H	1.107493	0.0	0.0
N	-1.799799	0.351645	-1.681912
H	-1.98089	0.33873	-2.680206
H	-1.942727	1.299947	-1.354203
C	0.502528	0.857243	-2.301275
N	1.09265	1.503429	-3.084737
C	-0.504733	-1.210646	0.748689
H	-0.123747	-1.172777	1.767783
H	-1.597516	-1.269199	0.767955
H	-0.102484	-2.101593	0.268985
N	-0.395752	1.246164	0.649654
O	-0.535353	1.261464	1.873795
O	-0.504293	2.265923	-0.053983
F	2.493579	0.0	0.0
