17

C	-0.447307	-0.040949	-1.454754
C	0.0	0.0	0.0
F	-0.201519	-1.328362	-1.923252
H	1.101791	0.0	0.0
N	-1.864211	0.174718	-1.634019
H	-2.074803	0.121371	-2.625635
H	-2.06984	1.116732	-1.322185
C	0.37656	0.839288	-2.328666
N	0.908024	1.511492	-3.131939
C	-0.464723	-1.19276	0.805528
H	-1.554906	-1.260463	0.872691
H	-0.037553	-1.120562	1.804236
H	-0.073221	-2.093237	0.334769
N	-0.40848	1.257598	0.621497
O	-0.435659	1.325095	1.851083
O	-0.648347	2.232107	-0.112747
F	2.494781	0.0	0.0
