17

C	-0.450598	-0.024629	-1.454124
C	0.0	0.0	0.0
F	-0.065966	-1.293865	-1.955486
H	1.099012	0.0	0.0
N	-1.855347	0.157701	-1.601761
H	-2.339257	-0.528217	-1.036127
H	-2.126347	0.044227	-2.571164
C	0.249602	0.936164	-2.332462
N	0.741642	1.609968	-3.158036
C	-0.466996	-1.196944	0.797999
H	0.027779	-1.172356	1.767918
H	-0.147993	-2.0997	0.278391
H	-1.548536	-1.226482	0.97484
N	-0.430066	1.262637	0.615415
O	-0.297307	2.296201	-0.043526
O	-0.849407	1.243274	1.778159
F	2.507292	0.0	0.0
