17

C	-0.462954	-0.004598	-1.447111
C	0.0	0.0	0.0
F	-0.098349	-1.233617	-1.988066
H	1.107987	0.0	0.0
N	-1.896672	0.083884	-1.600226
H	-2.187776	0.951707	-1.164429
H	-2.113723	0.151503	-2.590304
C	0.260291	0.99494	-2.278538
N	0.732494	1.7469	-3.048334
C	-0.419651	-1.232657	0.773548
H	-1.503151	-1.311557	0.901562
H	0.069767	-1.204499	1.744929
H	-0.053135	-2.106945	0.237404
N	-0.425494	1.219371	0.679915
O	-0.344618	1.256308	1.908866
O	-0.806758	2.189328	-0.002213
F	2.488608	0.0	0.0
