17

C	-0.49785	-0.087317	-1.433776
C	0.0	0.0	0.0
F	-0.092048	-1.362145	-1.906643
H	1.109509	0.0	0.0
N	-1.912394	0.046302	-1.533685
H	-2.217938	-0.110684	-2.486538
H	-2.354132	-0.628706	-0.92212
C	0.136609	0.861597	-2.373238
N	0.574668	1.521502	-3.239063
C	-0.437858	-1.166374	0.860204
H	-0.171411	-2.090484	0.348596
H	-1.506228	-1.166508	1.106772
H	0.120364	-1.125202	1.794293
N	-0.411082	1.280885	0.586777
O	-0.381366	2.283539	-0.130852
O	-0.699428	1.311096	1.78842
F	2.503298	0.0	0.0
