17

C	-0.208322	0.331463	-1.500972
C	0.0	0.0	0.0
F	-1.319064	1.198021	-1.676177
H	1.108887	0.0	0.0
N	0.972382	0.905116	-2.003303
H	1.138231	0.705742	-2.977745
H	1.786494	0.682074	-1.395197
C	-0.622495	-0.879914	-2.260861
N	-0.908472	-1.819964	-2.905522
C	-0.610118	-1.286345	0.493515
H	-0.144313	-2.121419	-0.03246
H	-1.692755	-1.324872	0.347621
H	-0.403057	-1.402133	1.557149
N	-0.446585	1.168192	0.797934
O	0.061425	2.256266	0.542205
O	-1.281441	0.985465	1.691662
F	2.635806	0.0	0.0
