10
Coordinates from ORCA-job run
  C   -0.76415658128891     -0.79627233788197     -0.19364051629955
  C   0.30780112468821      0.16035301772702      0.35254146425158
  Br  -2.44754109766787     -0.51259544615234      0.71094294667648
  H   0.38169794423135      0.02628424856568      1.43784140208057
  H   -0.45860990239405     -1.82667270547939     -0.01722398840966
  H   -0.91900947519606     -0.62904565228833     -1.25849294146323
  C   -0.02811748788073      1.56312497691169      0.08473884778389
  N   -0.30554992215695      2.68150737867944     -0.13810878026822
  C   1.60616492406425     -0.17634342493369     -0.24638580515201
  N   2.62732047360076     -0.49034005514811     -0.73321262919985
