10
Coordinates from ORCA-job run
  C   -0.87267313972291     -0.75593117635021     -0.06116921404974
  C   0.36142512928870      0.10131466293850     -0.37533498197602
  Br  -1.56784595026980     -0.39298488806400      1.70232309710119
  H   0.69070832534404     -0.16328852112316     -1.38973561539882
  H   -0.60399658782318     -1.81106968670547     -0.10490788947418
  H   -1.66016664021677     -0.54038339991901     -0.78286423885601
  C   1.47198198495013     -0.18823832831291      0.53863889267719
  N   2.36542485447966     -0.45656539310941      1.25092086982055
  C   0.04459437082956      1.53381326392248     -0.37314955491188
  N   -0.23045234685944      2.67433346672319     -0.40472136493228
