10
Coordinates from ORCA-job run
  C   -0.86797212476406     -0.76387757134333      0.01945904009153
  C   0.33259549228964      0.09416904225587     -0.40377755497811
  Br  -1.43359904164547     -0.36667627027162      1.82147138030322
  H   0.58929971687149     -0.19189522999827     -1.43314719869972
  H   -1.70825024206255     -0.56866845199699     -0.64619437503142
  H   -0.59511117815501     -1.81798546154646     -0.02142136382396
  C   1.50909929453305     -0.16512895094577      0.43372301318744
  N   2.45243240802308     -0.40772755749276      1.08847849229627
  C   0.00397547649506      1.52412047481034     -0.41106638991433
  N   -0.28246980158522      2.66166997652900     -0.44652504343090
