10
Coordinates from ORCA-job run
  C   -0.94528070860845     -0.57663016819443      0.17616364416845
  C   0.33242451665055      0.09468009316804     -0.35208487639031
  Br  -0.68756101713770     -2.48463061326882      0.33868748169947
  H   0.61341378400168     -0.37776065804181     -1.30035317379691
  H   -1.76257307928407     -0.40787046666079     -0.52360746567780
  H   -1.20632618862398     -0.18446489078050      1.15794332527167
  C   1.45283126863062     -0.05244560948121      0.58321660407118
  N   2.34250219649992     -0.16826506557915      1.33990334577208
  C   0.06285072986863      1.51615946713075     -0.60543983867509
  N   -0.20028150199719      2.64122791170792     -0.81342904644275
