10
Coordinates from ORCA-job run
  C   -0.96004007622882     -0.57363749523498      0.07997219796690
  C   0.35539270727535      0.11061429874088     -0.32442843976538
  Br  -0.73048422593139     -2.49041551814948      0.15380603514952
  H   0.69344736054814     -0.31014085181222     -1.27845305693583
  H   -1.28301005723622     -0.23221535037833      1.06229448440088
  H   -1.72702879595132     -0.35700003441173     -0.66232786268871
  C   1.41143810777842     -0.10456275091354      0.67090147709080
  N   2.24909669208593     -0.27809052916236      1.47444506468151
  C   0.11540084454759      1.54786947815929     -0.51021691515897
  N   -0.12421255688767      2.68657875316247     -0.66599298474071
