10
Coordinates from ORCA-job run
  C   -0.96066192867202     -0.53310773172261      0.22397515935000
  C   0.30547304599267      0.09808388727608     -0.37646661269565
  Br  -0.80659323101211     -2.45878073635387      0.25452292942104
  H   0.47538267823340     -0.32946328117098     -1.37130264368081
  H   -1.11263021404955     -0.18863332981890      1.24581865411796
  H   -1.82306470616221     -0.27627099306966     -0.38964921942975
  C   1.49097869385249     -0.16892086305535      0.44525747183193
  N   2.43369042567775     -0.38475868628437      1.11015005580965
  C   0.10215051818413      1.54577448356856     -0.52019778659381
  N   -0.10372528204456      2.69707725063111     -0.62110800813054
