10
Coordinates from ORCA-job run
  C   -0.82579576104827     -0.74286139530027     -0.14798149189419
  C   0.08552012766993      0.44899132323346      0.18519540568636
  Br  -1.37048572740225     -1.64944648650457      1.46894064570699
  H   -0.43830215078068      1.10935470193824      0.88586442302450
  H   -0.30318007519119     -1.45989530454019     -0.77938778219455
  H   -1.72393642097628     -0.38641116732702     -0.65054001861169
  C   0.36275670911604      1.20445525085998     -1.04365970688135
  N   0.53314919707866      1.79621071064035     -2.04327204481251
  C   1.33952800409752      0.01783574992192      0.81273066548015
  N   2.34074609743649     -0.33623338292190      1.31210990449632
