10
Coordinates from ORCA-job run
  C   -0.92061698542037     -0.63159951143184      0.09688364863021
  C   0.18546439759422      0.43437771849522      0.14682180673771
  Br  -1.11445419536873     -1.48573039423586      1.81906371774390
  H   -0.04482498828206      1.14513767403170      0.94877396890896
  H   -0.67992994377413     -1.39898154420803     -0.63737973154120
  H   -1.87070460492283     -0.16062501722204     -0.15172654205159
  C   0.21122922842239      1.16398237138977     -1.12787748163924
  N   0.18684501702819      1.72989401894873     -2.15628041753521
  C   1.49999278283949     -0.15631271212247      0.42119851524293
  N   2.54699929188383     -0.64014260364519      0.63852251550352
