10
Coordinates from ORCA-job run
  C   -0.79795432364395     -0.76952546162296      0.16573066338927
  C   0.35618055131610      0.24307940333187      0.24091134855372
  Br  -2.33754483951859     -0.11361874909233      1.13092360076890
  H   0.57373870600192      0.45327833858326      1.29442575492827
  H   -0.49023140513564     -1.70827224399544      0.62433591248974
  H   -1.09220416215263     -0.93740055081030     -0.86926226687118
  C   0.01461030798767      1.50937929046218     -0.41604418312474
  N   -0.27068910735913      2.52298119605834     -0.93435679315039
  C   1.55396680319768     -0.34464247163731     -0.37339086380067
  N   2.48912746930659     -0.85725875127734     -0.86427317318293
