10
Coordinates from ORCA-job run
  C   -0.83726967863363     -0.78851372817179     -0.08495088420626
  C   0.35658622031782      0.13412416136435     -0.36680018963038
  Br  -1.54032683622081     -0.52545402307565      1.69341086414927
  H   0.69663523279185     -0.07494008519566     -1.39055999567378
  H   -1.63658998651411     -0.57892506317246     -0.79516716037024
  H   -0.52339793533497     -1.82844519815904     -0.17024362564789
  C   1.48115720078943     -0.14245807193242      0.53429016823073
  N   2.39270302860455     -0.41966956246708      1.21959612615270
  C   -0.02627620844473      1.54958510322327     -0.31195917534875
  N   -0.36322103735541      2.67369646758648     -0.32761612765544
