10
Coordinates from ORCA-job run
  C   -0.96131433685010     -0.53933580409075      0.19780202654559
  C   0.33540265703325      0.07308969479172     -0.35576894296509
  Br  -0.76327707394463     -2.44718636796513      0.42842847135142
  H   0.59916176735630     -0.44113272543613     -1.28711332883201
  H   -1.20742115431553     -0.10396250889955      1.16518102682218
  H   -1.77435367313306     -0.36997275483393     -0.50685653779858
  C   1.45300238897613     -0.07654593047599      0.58252325534331
  N   2.33996964105458     -0.20116479640630      1.34100266328798
  C   0.10767304558119      1.49243367316375     -0.65774581650764
  N   -0.12984326175813      2.61477752015225     -0.90745281724720
