13

C	-0.276204	-0.0757	-1.503226
C	0.0	0.0	0.0
Cl	-0.102151	1.587603	-2.212257
H	1.091399	0.0	0.0
H	-0.464561	0.873631	0.457697
H	-0.372687	-0.914611	0.474209
C	0.790396	-0.968682	-2.136252
H	1.751619	-0.640014	-1.709711
H	0.615064	-2.000352	-1.813329
H	0.764226	-0.922086	-3.226784
C	-1.635841	-0.507508	-1.840867
N	-2.717885	-0.901901	-2.078163
F	2.736212	0.0	0.0
