14

C	0.014742	0.074774	0.033914
C	-0.607456	0.355826	-1.319413
F	1.375758	-0.278271	-0.213009
H	-0.68503	-0.61403	-1.826712
H	-1.628517	0.707	-1.165245
C	0.122899	1.313303	0.846165
N	0.180746	2.244684	1.558813
N	-0.641764	-0.973522	0.696278
H	-0.659315	-0.87369	1.699375
H	-1.580781	-1.161083	0.329491
N	0.180247	1.364162	-2.0222
H	-0.305382	1.624564	-2.871001
H	1.067966	0.956315	-2.286271
Br	-3.780308	-1.299965	-0.604361
