14

C	0.105965	0.062249	0.089531
C	-0.291696	0.355692	-1.359924
F	1.481539	-0.174947	0.117583
H	-1.283248	0.822315	-1.342572
H	0.435514	1.066736	-1.765942
C	-0.126167	1.265808	0.925654
N	-0.283388	2.249479	1.545854
N	-0.53251	-1.076115	0.677995
H	-1.543957	-0.942687	0.621438
H	-0.341595	-1.837997	0.030197
N	-0.284855	-0.896293	-2.106394
H	0.010362	-0.723128	-3.057491
H	-1.250195	-1.225133	-2.131871
Br	-3.588215	-1.079344	-1.146193
