14

C	0.054426	0.042792	0.023766
C	-0.497316	0.24803	-1.389927
F	1.412992	-0.259656	-0.085035
H	0.205434	0.89059	-1.930839
H	-1.459802	0.763986	-1.296216
C	-0.02799	1.313618	0.785525
N	-0.053198	2.336921	1.359248
N	-0.557643	-1.015911	0.768176
H	-0.47767	-1.831288	0.163763
H	-1.56181	-0.834929	0.819188
N	-0.629726	-1.05401	-2.031009
H	-1.604337	-1.33501	-1.922496
H	-0.437339	-0.968323	-3.019526
Br	-3.804973	-0.997606	-0.700293
