15
Coordinates from ORCA-job run
  C   0.63262194997700      0.56261696633618     -0.26948730350814
  C   -0.80160916308012      0.08909659768925     -0.06478705883855
  H   0.58437877987889      1.63925659035232     -0.46425451771803
  H   -1.24786856511898      0.54725731183408      0.81909745678177
  H   1.01377654876613      0.08461172076096     -1.17819649508072
  C   1.55144964501189      0.26974129290735      0.91246872816704
  H   2.53342949085376      0.72038231936141      0.75613430061575
  H   1.69783460053947     -0.80396204344805      1.04447874070665
  H   1.14037193517551      0.66809404719601      1.84335950811890
  N   -0.73131909769530     -1.38086061384332      0.26549521797265
  O   -0.95901134763993     -1.72449333487027      1.42261941785116
  O   -0.40264333631413     -2.12232359900376     -0.65648957003167
  N   -1.69438780909881      0.23273119871454     -1.18165354052936
  H   -2.10506323813453      1.15535065533351     -1.19378172451996
  H   -1.21296039312082      0.06350089067981     -2.05500315998748
