15
Coordinates from ORCA-job run
  C   0.69758822330778     -0.27836073854698      0.49649830411520
  C   -0.67879271187695      0.11058361972571     -0.02483262059008
  H   1.02860823413151     -1.16893982665000     -0.05135832943852
  H   -1.08417960013049      0.95486623208131      0.53689668568868
  H   0.59818808586346     -0.56296558661507      1.54737647097500
  C   1.70285152238906      0.85587732565345      0.33790426985652
  H   1.81456796049728      1.13380720977798     -0.70953891843968
  H   1.37619441616109      1.74174154763917      0.88857725300715
  H   2.67904490830836      0.56015942065581      0.72815425005078
  N   -1.61549275210822     -1.04873321143458      0.35056796303657
  O   -1.81648133308067     -1.91036037801318     -0.50231827881390
  O   -2.05728926379551     -1.05287755396826      1.49599809182827
  N   -0.66855992046833      0.39422381820219     -1.41451880273990
  H   -1.57606672387155      0.70076728216421     -1.73940200763908
  H   -0.40018104532682     -0.42778916067174     -1.94100433089701
