15
Coordinates from ORCA-job run
  C   0.66990531835882     -0.28776143021653      0.47451928186196
  C   -0.75742613405157      0.01459609663248      0.02707872329683
  H   0.65700410049152     -0.54970149612681      1.53781741090495
  H   -1.17430184445662      0.85029903993356      0.59142950146000
  H   1.01247643371181     -1.17212854729537     -0.07366198760577
  C   1.59885822126287      0.89569197006969      0.23193528042704
  H   1.65489248015936      1.14574474030714     -0.82937007938485
  H   1.25628908024682      1.78149787894454      0.77368196086091
  H   2.61131578848913      0.66960246536941      0.57160277065442
  N   -1.59411954909443     -1.17418521911728      0.43624674851421
  O   -1.49073338895464     -2.17649278017783     -0.26402458500381
  O   -2.27043003226630     -1.07013213901459      1.45665090676952
  N   -0.96855336633836      0.23271975629883     -1.37423270423581
  H   -0.82908681837808      1.20105229253504     -1.62076113759368
  H   -0.37609028918031     -0.35980262814226     -1.93991209092593
