15
Coordinates from ORCA-job run
  C   0.73346389358626     -0.33969581637428      0.47428607060841
  C   -0.67890125202041     -0.01130234048236      0.04290337329403
  H   1.04745750290002     -1.24612245440786     -0.04809363127280
  H   -1.06340856505878      0.85245348752328      0.60741980549170
  H   0.72147062757604     -0.57117799665597      1.54109990148362
  C   1.69732205559581      0.81347884886400      0.19942668862309
  H   1.86679732895530      0.96433363767006     -0.86914888365011
  H   1.32989163546070      1.75185844344068      0.62430928395439
  H   2.67092237041207      0.60745740385661      0.64775275702661
  N   -1.64477682754926     -1.11667716604596      0.42563337888019
  O   -2.81294251134767     -0.91611484318853      0.10067261148512
  O   -1.22815217454990     -2.10693280834731      1.01696401450735
  N   -0.80128278233611      0.10856351020526     -1.39027434418700
  H   -1.72377605362963      0.44848727330644     -1.63121235190466
  H   -0.11408524799443      0.76039082063594     -1.74273867433993
