15

C	-0.57411	-0.026656	-1.409739
C	0.0	0.0	0.0
Cl	0.11401	1.29425	-2.368115
H	1.09005	0.0	0.0
H	-0.320016	-0.901539	0.528516
N	-0.188347	-1.349253	-2.085031
O	0.257477	-2.241526	-1.370953
O	-0.437259	-1.441747	-3.283164
C	-2.089713	0.033362	-1.469437
H	-2.508592	-0.81555	-0.920179
H	-2.4361	0.959473	-1.010852
H	-2.422012	-0.005007	-2.506683
C	-0.505584	1.166071	0.713941
N	-0.944696	2.09426	1.283674
Cl	3.306842	0.0	0.0
