15

C	-0.584927	-0.034197	-1.404345
C	0.0	0.0	0.0
Cl	0.12326	1.256018	-2.393555
H	1.090121	0.0	0.0
H	-0.320559	-0.896709	0.537507
N	-0.211018	-1.367937	-2.061056
O	0.434049	-2.169979	-1.399066
O	-0.641211	-1.549174	-3.195782
C	-2.097337	0.056864	-1.453034
H	-2.441403	-0.001823	-2.484334
H	-2.418687	1.00044	-1.013132
H	-2.527872	-0.768997	-0.878534
C	-0.498985	1.170422	0.71303
N	-0.94323	2.093308	1.287263
Cl	3.306434	0.0	0.0
