15

C	-0.534117	0.059077	-1.429507
C	0.0	0.0	0.0
Cl	0.106783	1.474178	-2.262038
H	1.093429	0.0	0.0
H	-0.330799	-0.939402	0.450187
N	-0.06037	-1.218165	-2.141545
O	-0.355319	-2.256116	-1.553196
O	0.482803	-1.141775	-3.231136
C	-2.049726	0.048667	-1.527935
H	-2.447004	0.949535	-1.059913
H	-2.356021	0.029556	-2.576132
H	-2.442138	-0.831803	-1.015916
C	-0.526518	1.110473	0.780367
N	-0.992949	1.990432	1.402757
Cl	3.298448	0.0	0.0
