15

C	-0.538443	-0.039624	-1.428049
C	0.0	0.0	0.0
Cl	0.091078	1.319969	-2.355405
H	1.090108	0.0	0.0
H	-0.328999	-0.906638	0.514109
N	-0.06104	-1.359478	-2.055682
O	0.464996	-1.354339	-3.156727
O	-0.336692	-2.356223	-1.391951
C	-2.054583	-0.065601	-1.518909
H	-2.365121	-0.154359	-2.56207
H	-2.456115	0.860871	-1.108016
H	-2.438827	-0.913678	-0.949614
C	-0.52662	1.159958	0.704952
N	-0.992003	2.078862	1.269151
Cl	3.298361	0.0	0.0
