15

C	-0.537338	-0.023098	-1.428977
C	0.0	0.0	0.0
Cl	0.092577	1.347416	-2.34026
H	1.090465	0.0	0.0
H	-0.32925	-0.912425	0.503467
N	-0.058569	-1.335225	-2.071524
O	0.464591	-1.316749	-3.174138
O	-0.33116	-2.339932	-1.418404
C	-2.053203	-0.048605	-1.521818
H	-2.362463	-0.124245	-2.566506
H	-2.437605	-0.904174	-0.963599
H	-2.455588	0.872371	-1.099654
C	-0.526987	1.151844	0.717656
N	-0.994313	2.063938	1.291005
Cl	3.298019	0.0	0.0
