15
Coordinates from ORCA-job run
  C   -0.63403065971098      0.44703781764944      0.25782591806765
  C   0.32943867232127     -0.70994974183444      0.53586229097209
  Br  -1.40915942429861      1.02886026946495      1.90276898846447
  H   -0.26141250457428     -1.56629196301742      0.87028730244860
  N   -1.74439970577837     -0.01322641668808     -0.68909575108809
  O   -2.72031696624315      0.70890088788147     -0.78442423044562
  O   -1.52566489492085     -1.06420366204726     -1.28324858315836
  N   0.07228951152890      1.64324319996381     -0.41520436984196
  O   -0.35917749951854      2.00378580519788     -1.49524130363577
  O   1.00145752252644      2.09821555292286      0.22700334477555
  C   1.34842568951006     -0.39530539528673      1.52921180333008
  N   2.18661367106159     -0.23150366705156      2.33622604652315
  N   1.05700051291288     -1.19966514542584     -0.71439441256901
  O   1.30022889891158     -2.39451931702471     -0.73311531686064
  O   1.35870717627206     -0.35437822470435     -1.54346172698215
