17
Coordinates from ORCA-job run
  C   0.84208609078549      0.04280167727122      0.32274181146080
  C   -0.67665845709470      0.31213943638471      0.27254074600375
  Cl  1.51428334084199      1.21200212585985      1.51681255855375
  H   -1.04697296150721      0.27492125006397      1.29800386357892
  C   1.16604141776959     -1.36982906422313      0.79634183561058
  H   0.65570735535301     -1.57034627064900      1.74003725124907
  H   2.24146845702795     -1.47142408693426      0.94257576174532
  H   0.84558508166548     -2.09879347956945      0.04936419881424
  C   1.48149139347603      0.31384755578242     -0.96435435026732
  N   2.01505179864524      0.51905374475230     -1.99103499925486
  N   -1.32093102987917     -0.86117025084184     -0.40717996910814
  O   -1.98586447127261     -1.61967148356485      0.29589766548811
  O   -1.11243746085335     -0.98881781919637     -1.61166130190564
  C   -1.07701854068083      1.58872511313500     -0.43637616868142
  H   -2.16186957193847      1.70700549948964     -0.39949045923441
  H   -0.76101525827334      1.56267137929877     -1.47935296376398
  H   -0.61994718406508      2.44688467294102      0.05713451971126
