17
Coordinates from ORCA-job run
  C   0.83976174829559      0.06639990575083      0.32447925562697
  C   -0.68544933453653      0.29415652464726      0.27027461415446
  Cl  1.47577016137720      1.25592849678197      1.51916595108685
  H   -1.05700561785251      0.25217254619338      1.29514138871403
  C   1.20211912383806     -1.33561369153305      0.80169001447606
  H   0.69287849761500     -1.54916183119908      1.74297725380572
  H   2.27923106437182     -1.40548170686243      0.95336464903938
  H   0.90688828798653     -2.07462514270182      0.05435831677467
  C   1.47580343571154      0.35481623876461     -0.96060432759243
  N   2.00730790635314      0.57840286733232     -1.98435742827799
  N   -1.29769695524384     -0.89934235469334     -0.40433364272207
  O   -1.08018627037274     -1.03043776126067     -1.60690336626812
  O   -1.94956784411938     -1.66770781060585      0.30030411117256
  C   -1.11854704853818      1.55554794989055     -0.44658329609737
  H   -0.80583130515793      1.52810064535983     -1.49033927614941
  H   -2.20568065884367      1.64870929834768     -0.40641553332834
  H   -0.67979519088410      2.42813582578781      0.03778131558503
