17
Coordinates from ORCA-job run
  C   0.82381054037841      0.06854123734329      0.36270079607205
  C   -0.69310711788296      0.31442160292533      0.22216381049807
  Cl  1.42042770795625      1.30157431302667      1.53232053348119
  H   -1.11618295344983      0.31923550365734      1.22770490126378
  C   1.13886043236134     -1.31564402578548      0.91900986644596
  H   0.58219118443781     -1.47878820279930      1.84350373330359
  H   0.86658395965659     -2.08372730630602      0.19234539458854
  H   2.20631718568491     -1.39496878353650      1.12544928033666
  C   1.52520370419650      0.28803168466840     -0.90178661586671
  N   2.10725087992491      0.46083547633760     -1.90785859357996
  N   -1.28749306939474     -0.89798482419440     -0.43435897735133
  O   -1.01797199659629     -1.07589842380615     -1.62024302179799
  O   -1.97435951722346     -1.63561252705875      0.26988260042312
  C   -1.07120623918911      1.55144504405379     -0.56488617049477
  H   -0.65057542349804      2.43787422020191     -0.08937681048683
  H   -0.70186111888497      1.48205062136958     -1.58809835413041
  H   -2.15788815847732      1.65561438990270     -0.58847237270495
