17
Coordinates from ORCA-job run
  C   0.83060870475788      0.04162036887144      0.35039339812376
  C   -0.68220855637757      0.32503409115851      0.24035029333906
  Cl  1.47512180303850      1.23428737063838      1.53642183281976
  H   -1.08926682183139      0.31136442485167      1.25239989629716
  C   1.12262280411749     -1.36168306252496      0.87060758575702
  H   0.82213012992776     -2.10683169022872      0.13121437840040
  H   2.19106043088575     -1.46907216585210      1.05837987268724
  H   0.57606745817570     -1.53361169854352      1.79952011459020
  C   1.51635560241455      0.27118558673076     -0.92097985891424
  N   2.08575444990782      0.44061910627908     -1.93480355830472
  N   -1.31289138181407     -0.85634336469390     -0.43898483691069
  O   -1.08287719348483     -0.99670527414750     -1.63803423218003
  O   -1.98795048489225     -1.60920493045941      0.26084334969560
  C   -1.04450152115156      1.59107555206315     -0.50673184604423
  H   -0.68558490357123      1.54592792174021     -1.53485892826853
  H   -0.60430138142447      2.45528221086176     -0.00888167147504
  H   -2.12913913867809      1.71505555325517     -0.51785578961272
