17
Coordinates from ORCA-job run
  C   0.78633484237961     -0.08662205447958      0.57611838082773
  C   -0.63676515543978      0.47187863713468      0.35612919263923
  Cl  0.91632828904736     -0.62789382688762      2.28478522780352
  H   -0.79954789755475      1.26370041259650      1.08897100825735
  C   1.20972896599836     -1.23287498082017     -0.33638756888744
  H   1.17495517929619     -0.91771157910363     -1.38085100705290
  H   2.23371906450878     -1.51761593940443     -0.09254248234894
  H   0.55365505796887     -2.08931185081583     -0.19715295406013
  C   1.70190409771555      1.04362672125978      0.39996234895772
  N   2.42197022265395      1.95381104147908      0.21456208750569
  N   -1.66176953928962     -0.56819668388832      0.70680053838588
  O   -1.74137606738548     -1.54962396915008     -0.03036053695575
  O   -2.36224849359330     -0.34915235971898      1.69082219272761
  C   -0.89413390133559      0.95549330494107     -1.05944207001717
  H   -1.88769338207352      1.40526137137134     -1.11270135297671
  H   -0.16246129515309      1.71517840588850     -1.34001127788183
  H   -0.85259998774353      0.12905334959767     -1.76770172692386
