17
Coordinates from ORCA-job run
  C   0.55126531443848     -0.60209294991884      0.31276765718112
  C   -0.55820473942118      0.45463929246845      0.12672465365764
  Cl  0.02563234156580     -2.18370654064199     -0.35367317009201
  H   -0.24247033091679      1.33929259524938      0.68700592226276
  C   1.83203405174097     -0.17526336977367     -0.40269744428795
  H   1.67366307037782     -0.15365504253583     -1.48029553337939
  H   2.62581278529006     -0.88938337978230     -0.18270940235309
  H   2.14113349146054      0.81413287951125     -0.05519334725790
  C   0.84838779208070     -0.79528364224205      1.73447674334819
  N   1.17264872199366     -0.93820460322276      2.85490157683517
  N   -1.80167029298158     -0.00450600948834      0.84355155066976
  O   -1.82122827235146      0.17358640140462      2.06000204383368
  O   -2.68811557140125     -0.52647885010431      0.17390923437808
  C   -0.87511077729252      0.79800395429083     -1.31275437549679
  H   -0.03642522277418      1.32821384025375     -1.76502197936393
  H   -1.10184651196914     -0.09457472940804     -1.89321878307148
  H   -1.74550584983992      1.45428015393987     -1.34677534686386
