16

C	-0.395055	-0.007556	-1.474944
C	0.0	0.0	0.0
F	-0.12029	1.248099	-2.00654
H	1.102841	0.0	0.0
N	0.331842	-0.975438	-2.249879
H	0.12369	-1.880124	-1.838487
H	1.319795	-0.799524	-2.05933
C	-1.85439	-0.232925	-1.624461
N	-3.006043	-0.429356	-1.731332
N	-0.439896	-1.261521	0.567695
H	0.222327	-1.563942	1.270043
H	-1.346722	-1.123307	1.000329
N	-0.597979	1.147756	0.681355
H	-0.132804	1.227328	1.580776
H	-0.341472	1.981348	0.161755
Cl	3.416633	0.0	0.0
