16

C	-0.569096	-0.019391	-1.422719
C	0.0	0.0	0.0
F	-0.174593	-1.151419	-2.09275
H	1.098269	0.0	0.0
N	-2.004782	-0.003764	-1.34807
H	-2.251442	0.723368	-0.683606
H	-2.407021	0.210088	-2.252268
C	-0.05522	1.138366	-2.209578
N	0.227073	2.097379	-2.826883
N	-0.439762	-1.181541	0.689326
H	-1.386076	-1.081709	1.031709
H	0.200184	-1.393362	1.441904
N	-0.511987	1.249104	0.625168
H	-0.279844	1.178586	1.610581
H	0.051475	2.022313	0.275735
Cl	3.432769	0.0	0.0
