16

C	-0.571356	-0.018321	-1.421571
C	0.0	0.0	0.0
F	-0.177323	-1.14947	-2.092702
H	1.098303	0.0	0.0
N	-2.008048	-0.00534	-1.344877
H	-2.412958	0.203359	-2.250121
H	-2.25527	0.72211	-0.681288
C	-0.059807	1.140639	-2.208263
N	0.235566	2.100141	-2.817835
N	-0.435232	-1.184531	0.687035
H	-1.369502	-1.078487	1.058249
H	0.225902	-1.413889	1.416754
N	-0.511446	1.247299	0.629501
H	-0.287346	1.166913	1.61603
H	0.060923	2.018125	0.288889
Cl	3.425914	0.0	0.0
