16

C	-0.521724	0.012011	-1.445139
C	0.0	0.0	0.0
F	-0.097543	-1.129762	-2.102184
H	1.099092	0.0	0.0
N	-1.958452	0.003693	-1.412438
H	-2.224205	0.71227	-0.732887
H	-2.343832	0.233776	-2.319819
C	0.009463	1.168423	-2.209327
N	0.316391	2.128007	-2.813898
N	-0.455815	-1.181724	0.704283
H	0.262315	-1.890023	0.623427
H	-1.307573	-1.530655	0.280176
N	-0.558105	1.197736	0.6504
H	-0.585612	0.970445	1.637823
H	0.109758	1.95613	0.540391
Cl	3.436314	0.0	0.0
