16

C	-0.491027	0.080497	-1.441558
C	0.0	0.0	0.0
F	-1.91593	0.08315	-1.352042
H	1.094307	0.0	0.0
N	-0.064614	1.243551	-2.122145
H	0.643459	1.048857	-2.816188
H	0.275091	1.908687	-1.437016
C	-0.158866	-1.130824	-2.211344
N	0.127844	-2.061217	-2.864922
N	-0.471819	-1.235022	0.592702
H	-1.45473	-1.166049	0.827169
H	0.062877	-1.436439	1.427285
N	-0.382693	1.265414	0.63074
H	-1.360841	1.24839	0.892023
H	0.18651	1.404819	1.455113
Cl	3.426936	0.0	0.0
