16

C	-0.525664	-0.000218	-1.443114
C	0.0	0.0	0.0
F	-0.09589	-1.141844	-2.095868
H	1.099126	0.0	0.0
N	-1.962379	-0.020087	-1.405857
H	-2.350284	0.192186	-2.316621
H	-2.232223	0.698553	-0.739085
C	-0.007886	1.157062	-2.214969
N	0.287285	2.116384	-2.825589
N	-0.452396	-1.177989	0.713512
H	0.270156	-1.88274	0.642187
H	-1.300607	-1.535278	0.289505
N	-0.5584	1.202532	0.642432
H	0.117054	1.954565	0.54289
H	-0.602906	0.975477	1.628914
Cl	3.43381	0.0	0.0
