16

C	-0.610564	-0.08581	-1.401542
C	0.0	0.0	0.0
F	-2.030411	-0.123686	-1.225999
H	1.098806	0.0	0.0
N	-0.206255	1.008351	-2.179113
H	-0.748039	1.088248	-3.030038
H	-0.27492	1.836198	-1.594514
C	-0.31623	-1.359588	-2.093543
N	-0.149856	-2.381191	-2.647744
N	-0.507701	-1.098986	0.834491
H	0.253474	-1.361331	1.45525
H	-0.696409	-1.919856	0.265208
N	-0.399274	1.300782	0.536715
H	-1.243596	1.159979	1.079853
H	0.336911	1.625493	1.151984
Cl	3.414014	0.0	0.0
