16

C	-0.518754	0.07943	-1.442081
C	0.0	0.0	0.0
F	0.043183	-0.983034	-2.168969
H	1.098874	0.0	0.0
N	-1.939455	0.006747	-1.432278
H	-2.298187	-0.09911	-2.372703
H	-2.17032	-0.801756	-0.86007
C	-0.099461	1.323268	-2.11993
N	0.215128	2.300305	-2.688849
N	-0.5451	-1.251251	0.552276
H	-0.566337	-1.107986	1.554144
H	0.127476	-1.986404	0.366165
N	-0.462487	1.116149	0.797988
H	0.240808	1.842431	0.794363
H	-1.337433	1.480338	0.441729
Cl	3.43929	0.0	0.0
