14

C	0.0	0.0	0.0
C	-0.417844	0.081627	-1.517979
Cl	1.785842	0.0	0.0
H	0.508331	0.224035	-2.087611
C	-0.505069	1.138044	0.773624
N	-0.532742	2.118856	1.434275
C	-0.443351	-1.241054	0.636767
N	-0.507324	-2.270813	1.20998
C	-1.252348	1.262464	-1.801652
N	-1.795332	2.216795	-2.22819
N	-0.981222	-1.180424	-1.962057
H	-1.161507	-1.122478	-2.959461
H	-1.870478	-1.260429	-1.465813
H	-2.141119	0.0	0.0
