14

C	0.0	0.0	0.0
C	-0.364388	-0.042388	-1.521292
Cl	1.789372	0.0	0.0
H	-1.465638	-0.029443	-1.458423
C	-0.508918	1.234189	0.59798
N	-0.550545	2.355088	0.965825
C	-0.44004	-1.186252	0.716135
N	-0.492019	-2.115342	1.437464
C	0.07604	-1.300507	-2.138336
N	0.41242	-2.250314	-2.74573
N	0.121984	1.13926	-2.199963
H	-0.446074	1.308133	-3.019791
H	1.087664	1.032035	-2.48317
H	-2.302575	0.0	0.0
