17

C	0.0	0.0	0.0
C	-0.523215	0.037338	-1.461814
Cl	1.800142	0.0	0.0
H	-1.620972	0.184648	-1.261472
N	-0.506546	1.00704	0.875465
H	-1.538911	0.829508	0.82489
H	-0.345361	1.905111	0.429712
C	-0.371985	-1.31659	0.564478
N	-0.532282	-2.382548	1.034555
C	-0.270636	-1.211231	-2.272582
H	0.79011	-1.462336	-2.32224
H	-0.639884	-1.075068	-3.290011
H	-0.820819	-2.033487	-1.814901
N	0.001652	1.239799	-2.149541
O	0.662529	1.095463	-3.184685
O	-0.264096	2.343423	-1.659555
H	-2.884739	0.0	0.0
