17

C	0.0	0.0	0.0
C	-0.352521	0.177231	-1.531453
Cl	1.79779	0.0	0.0
H	0.495967	-0.220054	-2.095819
N	-0.471447	0.990093	0.91829
H	-0.230425	1.909258	0.563017
H	-1.510249	0.838226	0.810352
C	-0.390565	-1.322159	0.523521
N	-0.447057	-2.382985	1.028635
C	-0.593507	1.626034	-1.8824
H	-1.527961	1.944247	-1.4215
H	-0.67562	1.741109	-2.963295
H	0.238397	2.240721	-1.530365
N	-1.465435	-0.68814	-2.07466
O	-1.305942	-1.898505	-1.936722
O	-2.300527	-0.166548	-2.809351
H	-2.61035	0.0	0.0
