17

C	0.0	0.0	0.0
C	-0.221153	-0.251059	-1.550915
Cl	1.83294	0.0	0.0
H	0.274379	0.61613	-2.004822
N	-0.698487	1.161099	0.332147
H	-0.600854	1.35967	1.329039
H	-1.811544	0.736363	0.223422
C	-0.3189	-1.150405	0.881414
N	-0.572987	-1.952815	1.703979
C	-1.582017	-0.464639	-2.165142
H	-1.439063	-0.593314	-3.241664
H	-2.092568	-1.334277	-1.731185
H	-2.213159	0.404405	-1.993919
N	0.589981	-1.420257	-2.0258
O	1.342025	-1.235378	-2.985372
O	0.403376	-2.509548	-1.493048
H	-2.855101	0.0	0.0
