10
Coordinates from ORCA-job run
  C   -1.03325089526687     -0.33051141218805      0.33571149005231
  C   0.08111714049399      0.56510885379860     -0.17148927712443
  F   -2.19272513866808      0.42886717189526      0.34184093752110
  H   -0.13970318030342      0.95925015398247     -1.16084304890557
  H   -1.18172446273018     -1.18507956073981     -0.32709977593730
  H   -0.83556569020995     -0.67694994678661      1.34780574082019
  H   0.26030800058721      1.38830042590372      0.52190750986390
  N   1.35791268434209     -0.19646707849634     -0.27795008797167
  O   1.59412046375134     -1.00634005601974      0.61768562758894
  O   2.09051107800388      0.05382144865050     -1.22956911590747
