10
Coordinates from ORCA-job run
  C   -1.05690200802652     -0.22717117200854      0.38861161444936
  C   0.01676174705513      0.50542204804890     -0.37031751923301
  F   -0.76595858523744     -0.17906899609259      1.74103899220349
  H   -0.20922948696008      0.52707321518915     -1.43861964122684
  H   -1.10278905480131     -1.27195551753638      0.08337134237159
  H   -2.02191799095453      0.25832364330733      0.22540165320729
  H   0.16826651032940      1.51398237160467      0.00834096291768
  N   1.33075847413844     -0.20029840352837     -0.23602491253955
  O   1.33082971037366     -1.41011670469975     -0.44418543279049
  O   2.31018068408324      0.48380951571557      0.04238294064048
