10
Coordinates from ORCA-job run
  C   -1.10853939411173     -0.28550915124611      0.09798326111598
  C   0.08426625026251      0.61695623652982     -0.07005829287324
  F   -1.02396484849945     -0.92162950326207      1.32430727750589
  H   0.20109492565242      1.29967335583895      0.76885976324415
  H   -1.13257866181957     -1.04476366303671     -0.68292302678719
  H   -2.02605207001261      0.30730906963811      0.07868268295675
  H   0.02184030501540      1.17112138512561     -1.00912597257283
  N   1.34613099307969     -0.18614854365520     -0.14253408480844
  O   2.28877823842289      0.18456457739692      0.54940357293192
  O   1.34902426201045     -1.14057376332932     -0.91459518071300
