16

C	-0.483717	0.072808	-1.420579
C	0.0	0.0	0.0
F	0.141015	1.120319	-2.073044
H	1.093143	0.0	0.0
H	-0.343679	-0.93807	0.435728
N	-0.090922	-1.164281	-2.233054
O	0.261465	-2.171894	-1.636596
O	-0.234591	-1.056326	-3.449123
N	-1.89337	0.141411	-1.569859
H	-2.253099	0.908761	-1.019234
H	-2.111172	0.297893	-2.547714
C	-0.477596	1.199292	0.81736
H	-1.549686	1.169705	1.039715
H	-0.242929	2.133411	0.302552
H	0.057316	1.212425	1.768145
Br	3.662663	0.0	0.0
