16

C	-0.364527	-0.159331	-1.455913
C	0.0	0.0	0.0
F	-1.709899	-0.453315	-1.629573
H	1.095998	0.0	0.0
H	-0.303715	-0.956111	0.439238
N	-0.283569	1.191678	-2.248918
O	0.403659	1.214802	-3.266651
O	-0.96398	2.1259	-1.839672
N	0.423575	-1.148948	-2.04557
H	1.381289	-1.077421	-1.707832
H	0.413145	-1.08234	-3.054428
C	-0.582995	1.152722	0.799615
H	-0.351646	0.985032	1.854646
H	-1.667058	1.223971	0.686873
H	-0.145035	2.107002	0.513733
Br	3.582048	0.0	0.0
