17

C	0.0	0.0	0.0
C	-0.531303	-0.0286	-1.429417
Br	1.968108	0.0	0.0
H	-1.637249	-0.053604	-1.239658
N	-0.517252	1.203222	0.587041
H	-0.299246	1.199809	1.579091
H	-1.550368	1.073711	0.505482
C	-0.419295	-1.271204	0.726166
H	-1.517227	-1.270571	0.699809
H	-0.024396	-2.164859	0.244284
H	-0.077295	-1.227495	1.764937
N	-0.138162	-1.227655	-2.158123
H	-0.729649	-1.316466	-2.975874
H	0.820482	-1.127578	-2.474151
C	-0.211357	1.21122	-2.154491
N	0.011019	2.127912	-2.856636
H	-3.073214	0.0	0.0
