17

C	0.0	0.0	0.0
C	-0.515318	0.058543	-1.431411
Br	2.045795	0.0	0.0
H	-1.62505	0.041985	-1.219635
N	-0.423761	1.173588	0.662416
H	0.195649	1.96232	0.587842
H	-0.778091	1.023763	1.591767
C	-0.522491	-1.234204	0.680626
H	-0.154379	-1.294402	1.707963
H	-1.623266	-1.096813	0.65867
H	-0.247041	-2.12895	0.127092
N	-0.124938	-1.092297	-2.229066
H	-0.720041	-1.147817	-3.045013
H	0.832847	-0.981735	-2.538417
C	-0.186246	1.348018	-2.058483
N	0.071181	2.34506	-2.627911
H	-3.204839	0.0	0.0
