17

C	0.0	0.0	0.0
C	-0.394314	-0.068459	-1.501176
Br	1.957796	0.0	0.0
H	0.35259	-0.70441	-1.986945
N	-0.587171	1.160954	0.591207
H	-0.390261	1.152012	1.589285
H	-1.622593	0.93289	0.475225
C	-0.379453	-1.307571	0.695518
H	0.003548	-1.30331	1.720768
H	-1.473439	-1.342076	0.707276
H	0.027472	-2.179008	0.173217
N	-0.313624	1.259525	-2.09821
H	-0.871794	1.269021	-2.944069
H	-0.722397	1.910474	-1.434871
C	-1.684088	-0.765964	-1.803944
N	-2.333827	-1.43454	-2.536457
H	-2.885406	0.0	0.0
