17

C	0.0	0.0	0.0
C	-0.601851	0.102085	-1.396342
Br	2.04345	0.0	0.0
H	-1.711895	0.139144	-1.100884
N	-0.407006	1.128719	0.737634
H	-0.171828	1.058718	1.716795
H	-0.069424	1.999687	0.349685
C	-0.472794	-1.258175	0.681077
H	-1.576664	-1.18194	0.648727
H	-0.123725	-1.289611	1.716658
H	-0.118066	-2.153301	0.169452
N	-0.372604	-1.007283	-2.302247
H	-1.0105	-1.752371	-2.050708
H	0.581439	-1.340551	-2.20914
C	-0.238216	1.368158	-2.031472
N	0.045592	2.402888	-2.51266
H	-3.158078	0.0	0.0
