11
Coordinates from ORCA-job run
  C   -0.01024419429957      0.46009762299595      0.45595964049494
  C   0.32531330450873     -0.54771957681157     -0.63759104556067
  H   0.15912944450159      1.48479353709379      0.11975529740404
  H   0.08519086081308     -1.56100310135343     -0.30426856355081
  H   0.54205870372603      0.28307159542351      1.37652385953683
  H   -0.27058776371124     -0.34530754440275     -1.52848029728030
  N   -1.46236824068908      0.37316179793018      0.81061545403087
  O   -1.75587577265592      0.53442374464253      1.99058099945755
  O   -2.25228482335024      0.18135641508403     -0.11048693231082
  C   1.74770835899072     -0.47282485981172     -0.96392096694507
  N   2.89196012216588     -0.39204963079053     -1.20968744527656
