11
Coordinates from ORCA-job run
  C   -0.03358039808696      0.22972613882586      0.60558000414094
  C   0.35282587347743     -0.36519415929861     -0.74395797658793
  H   0.53233359999951      1.12653311692651      0.84881090014480
  H   0.17692953210830      0.36158063177061     -1.54183023857597
  H   0.07547321864278     -0.50131024057194      1.40891805947532
  H   -0.26191384298016     -1.24113564905713     -0.95547742768335
  N   -1.47658734294768      0.62848321386055      0.59853134754359
  O   -1.77151872914845      1.65911239246935      1.19457309109472
  O   -2.26076368831985     -0.12343284293228      0.02490435967257
  C   1.76535729387328     -0.73952068279130     -0.73661151703633
  N   2.90044448338180     -1.03384191920160     -0.70444060218837
