11
Coordinates from ORCA-job run
  C   -0.33240219470657     -0.30105582039813      0.70402226833102
  C   0.35301578985340     -0.80194901176460     -0.55757463840329
  H   -1.14275450511743     -0.97246528226587      0.99543077632470
  H   -0.36589920534332     -0.84895714878262     -1.37654992534401
  H   0.35495851970068     -0.16861220031736      1.53697451502049
  H   0.73192841700126     -1.81235776052992     -0.38009130096092
  N   -0.97231088438444      1.03468988466970      0.47046093080631
  O   -1.50618870410449      1.21274613242297     -0.62080181737552
  O   -0.94974932858525      1.82931308400202      1.40408086176167
  C   1.46656857881586      0.06402952644510     -0.94388165210813
  N   2.36183351687029      0.76561859651871     -1.23107001805232
