15

C	-0.474851	0.084728	-1.452662
C	0.0	0.0	0.0
Cl	0.031794	-1.527161	-2.21729
H	1.092267	0.0	0.0
H	-0.344823	-0.92811	0.465134
N	-1.886529	0.264338	-1.530946
H	-2.371001	-0.48635	-1.053622
H	-2.187664	0.277682	-2.497755
C	0.262707	1.172423	-2.20558
H	-0.005113	2.139749	-1.772951
H	1.338797	1.018278	-2.10823
H	-0.016111	1.16399	-3.26301
C	-0.488199	1.1378	0.775437
N	-0.889092	2.04756	1.400174
Br	3.545164	0.0	0.0
