15

C	-0.509415	0.066336	-1.455936
C	0.0	0.0	0.0
Cl	-0.135739	-1.544282	-2.178638
H	1.093289	0.0	0.0
H	-0.352783	-0.913339	0.487581
N	-1.938195	0.264117	-1.609667
H	-2.170814	1.18473	-1.249388
H	-2.436117	-0.419806	-1.049158
C	0.249622	1.128907	-2.225074
H	1.322569	0.950597	-2.136834
H	0.028502	2.113361	-1.799348
H	-0.059934	1.115365	-3.27096
C	-0.498154	1.158151	0.734265
N	-0.942834	2.108727	1.262458
Br	3.535352	0.0	0.0
