11

C	0.0	0.0	0.0
C	-0.494242	0.178706	-1.429201
Cl	1.782122	0.0	0.0
H	0.252986	0.7438	-1.993773
H	-0.347038	-0.943934	0.409719
H	-0.329487	0.815179	0.64026
H	-1.426152	0.743798	-1.395801
N	-0.660917	-1.137053	-2.056702
H	-1.570204	-1.468743	-1.74724
H	-0.727294	-1.013083	-3.060094
Cl	-3.461785	0.0	0.0
