11

C	0.0	0.0	0.0
C	-0.490195	-0.179402	-1.419473
Cl	1.792511	0.0	0.0
H	-0.216668	-1.189952	-1.75727
H	-0.345823	-0.806151	0.64214
H	-0.328878	0.959773	0.392156
H	-1.577856	-0.118823	-1.355539
N	0.013538	0.881843	-2.288067
H	0.950517	0.665061	-2.602568
H	-0.580417	0.959745	-3.101718
Cl	-3.654969	0.0	0.0
