15

C	0.0	0.0	0.0
C	-0.532016	0.154388	-1.414104
Cl	1.776844	0.0	0.0
H	-1.626719	0.117413	-1.35749
H	-0.167947	1.074549	-1.855806
N	-0.315821	1.367703	0.740809
O	-0.351581	2.396531	0.079168
O	-0.44295	1.28329	1.95429
N	-0.523087	-1.097825	0.666593
H	-0.278693	-1.0614	1.648772
H	-1.54569	-1.070083	0.561151
N	-0.056819	-0.955516	-2.280659
O	0.818788	-0.682182	-3.106428
O	-0.57501	-2.05923	-2.139641
Cl	-3.531491	0.0	0.0
