15

C	0.0	0.0	0.0
C	-0.496092	0.138967	-1.441122
Cl	1.781234	0.0	0.0
H	-1.594728	0.105399	-1.400516
H	-0.134197	1.046517	-1.908604
N	-0.359764	1.341099	0.709856
O	-0.52794	1.301684	1.916355
O	-0.370266	2.346201	0.008063
N	-0.50425	-1.045119	0.794171
H	-1.518998	-0.896746	0.852065
H	-0.343842	-1.915866	0.3011
N	-0.027751	-0.982169	-2.295411
O	0.413177	-0.686913	-3.405993
O	-0.134236	-2.135051	-1.873612
Cl	-3.497102	0.0	0.0
