17
Coordinates from ORCA-job run
  C   -0.46379141517261      0.22127958433404      0.46301163567676
  C   0.81965252337632      0.62157890935574     -0.29471148627431
  Cl  -0.53209718167443      1.27011837488164      1.92683254385157
  H   0.72790389148365      1.68446516910004     -0.54028173515255
  C   -1.68684610351271      0.51709278982819     -0.38767161912782
  H   -1.71845044590110      1.57343533550183     -0.66418058336992
  H   -2.59420518540611      0.28286877365099      0.17218136698943
  H   -1.65310981710764     -0.08339213187671     -1.29692925053080
  C   -0.42288907400618     -1.22785836271688      0.91516342452918
  H   0.45019338728352     -1.42611111828546      1.54018537245844
  H   -0.40417230302295     -1.88751129792261      0.04311987731304
  H   -1.31739444932098     -1.46123798085354      1.49514818861814
  N   0.91953065457860     -0.12880001319228     -1.54331856235170
  H   1.32297905444143     -1.04193257368984     -1.36965378218260
  H   1.53726352997789      0.35451002463088     -2.18408832369535
  C   2.01553666097206      0.46197901909956      0.55656219195306
  N   3.00089627301125      0.26851549815441      1.16663074129542
