17
Coordinates from ORCA-job run
  C   -0.47833167806095      0.20634924142866      0.46873293321493
  C   0.83675863614305      0.60307919006823     -0.23972215212095
  Cl  -0.62011960623748      1.28024791004632      1.90946105232069
  H   0.78013348469076      1.67881962432621     -0.44391065113262
  C   -1.65641797967492      0.48358256429757     -0.44827146537000
  H   -2.59203097355930      0.26671935307209      0.07019086011263
  H   -1.67324894822360      1.53258319023654     -0.75539724676365
  H   -1.58140746166700     -0.14951603185439     -1.33354753054117
  C   -0.44768949158356     -1.23656883524611      0.93482538616029
  H   -0.29781937574960     -1.88716144776288      0.06981963640906
  H   -1.39491520570682     -1.49679770074557      1.41063264221099
  H   0.35521102837086     -1.40346401697554      1.65526398723681
  N   0.97967184043050     -0.15512130452602     -1.48506406475070
  H   1.79839424157443     -0.74739325209733     -1.46943186779438
  H   1.05448401656748      0.47008959239808     -2.27506270701645
  C   1.99462479367829      0.39032030395940      0.64000754810748
  N   2.94370267900786      0.16323161937473      1.29347363971704
