17
Coordinates from ORCA-job run
  C   -0.49157705891510     -0.32286985473741     -0.06716911814707
  C   0.92101410735263      0.30170319495131     -0.11118862771294
  Cl  -0.67670455060746     -1.37482978947321     -1.51055387073958
  H   1.02585554926517      0.86755300762805      0.82656962706814
  C   -0.66263846889412     -1.18120933342103      1.17540365019162
  H   -0.52364074086510     -0.57055410857585      2.07358917133509
  H   0.05534944901344     -2.00291292565902      1.19356396760293
  H   -1.66770013058135     -1.60558288326608      1.20097627054363
  C   -1.53266488737928      0.77967226203633     -0.14518381814347
  H   -1.41129777166264      1.34618334915020     -1.06775251416947
  H   -1.42655395077772      1.45403492051277      0.71190939623510
  H   -2.53592555954734      0.35079855522520     -0.12218128811990
  N   1.09591983041741      1.17461428545023     -1.26772936511022
  H   1.92406786615869      0.94242533619746     -1.79665704247765
  H   1.15569892108281      2.14040583547195     -0.97856234540449
  C   1.95244459323770     -0.74230420553191     -0.07293069965110
  N   2.79735280270227     -1.55712764595897     -0.04210339330061
