17
Coordinates from ORCA-job run
  C   -0.59585846605628     -0.07738203142104     -0.18069282660947
  C   0.81700608983342      0.46118869447349     -0.49624457018411
  Cl  -1.38514504142730     -0.34537096548244     -1.78815989251137
  H   0.67953518877595      1.39553160723720     -1.06339659422787
  C   -0.54898318310525     -1.40171037932096      0.55725789180913
  H   0.02899560066711     -2.13637614392725     -0.00032186597631
  H   -0.07829113944349     -1.25805585105165      1.53409065361701
  H   -1.56249273817216     -1.77701681624752      0.71056859078406
  C   -1.41538492931653      0.96609479302658      0.55942283029605
  H   -0.99463989116466      1.13716872016129      1.55355144088866
  H   -1.43325388937694      1.91299615105917      0.01480733915025
  H   -2.44345657206521      0.61837924513633      0.67372048408372
  N   1.62697319570599     -0.53364134990945     -1.19036741694077
  H   1.23242082173441     -0.68801922904882     -2.11093595619267
  H   2.57082444787725     -0.18511382989650     -1.30871675774230
  C   1.48454784084146      0.81169362676664      0.76448715965606
  N   2.01720266469222      1.10063375844493      1.76992949009993
