17
Coordinates from ORCA-job run
  C   -0.45737887717324      0.22075235344318      0.47010551648111
  C   0.81803503282512      0.62051754758987     -0.30135701532650
  Cl  -0.50357440834470      1.26191878210163      1.94021785597598
  H   0.72794388055762      1.68525595457082     -0.53942872012035
  C   -1.68983806837116      0.52526030271925     -0.36373366231894
  H   -2.59084039226559      0.28938653311901      0.20555123129027
  H   -1.72223002894550      1.58345093546402     -0.63289282846792
  H   -1.66831823992525     -0.06922796044358     -1.27725142347406
  C   -0.41600226570725     -1.23092561260949      0.91399481345562
  H   -1.30388525657924     -1.46404610885266      1.50416769204697
  H   0.46425263082377     -1.43565260392825      1.52672317496857
  H   -0.41081046696875     -1.88601682514623      0.03834014949981
  N   0.89919785561803     -0.12293392543581     -1.55561170013903
  H   1.30173264130346     -1.03834875494020     -1.39230848398534
  H   1.51063642077378      0.36197182351217     -2.20116473841717
  C   2.02391209607604      0.45064965826911      0.53379307625850
  N   3.01616744630285      0.24898790056715      1.12985506227250
