17
Coordinates from ORCA-job run
  C   -0.47343065293439      0.20632891196821      0.46010100451951
  C   0.81406027264328      0.63871217425047     -0.27277612564530
  Cl  -0.57821033504938      1.22918222594969      1.94008359197042
  H   0.70879762005767      1.70387258913202     -0.50262550562856
  C   -1.68898385208477      0.49821971598452     -0.40261368527977
  H   -2.60044558956310      0.24106485137825      0.14028650893541
  H   -1.63387534536308     -0.08594430909821     -1.32145221849406
  H   -1.73275302448769      1.55868220575137     -0.66123184626666
  C   -0.41661371902520     -1.24942074488604      0.88850655736289
  H   -0.37413631471092     -1.89351276450664      0.00577844372834
  H   -1.31612739450275     -1.50688715163889      1.45022740260187
  H   0.44977810980289     -1.44491139358119      1.52357663520683
  N   0.94297399500919     -0.08935423013364     -1.53194892612031
  H   1.35945376434388     -0.99842118533672     -1.36795231443705
  H   1.56079743113055      0.41467897101202     -2.15646582896652
  C   2.00018271619142      0.48343483901889      0.59259708214832
  N   2.97953231854239      0.29527529473589      1.21390922436467
