17
Coordinates from ORCA-job run
  C   -0.59769215163716     -0.07013719877956     -0.17840936161961
  C   0.81656090680392      0.46680532163116     -0.49115272549700
  Cl  -1.39745136018676     -0.30252815868461     -1.78621519657842
  H   0.68199241395486      1.41593351609167     -1.03387949111293
  C   -0.55345466136562     -1.40882036202711      0.53340719171431
  H   0.02272429333290     -2.13330449432777     -0.03919701263213
  H   -0.08224797917206     -1.28527062677441      1.51275972102300
  H   -1.56765618718239     -1.78493121203355      0.67995127509181
  C   -1.40750139167283      0.96314487324030      0.58618463327955
  H   -1.42802140574938      1.91863339411872      0.05693625605073
  H   -0.97727497828335      1.11720513961346      1.57904777543415
  H   -2.43540036121002      0.61616419261471      0.70432654412847
  N   1.61484949079992     -0.51624632882752     -1.21507061938586
  H   1.21605314168409     -0.64220461148795     -2.13817899686281
  H   2.56186371739633     -0.17394640487291     -1.32679029867009
  C   1.49515823979023      0.78063592273403      0.77318697363752
  N   2.03749827269731      1.03886703777133      1.78209333199931
