17
Coordinates from ORCA-job run
  C   -0.66879464118164     -0.04305896019533     -0.19362713837792
  C   0.76532829516621      0.24010044540717     -0.69688052853964
  Cl  -1.77983904884415      0.53166055402342     -1.49149371319919
  H   0.85060741900939     -0.21091546123437     -1.69438163317947
  C   -0.86292053767382     -1.54069793983743     -0.03089495719669
  H   -1.89794319250623     -1.75618374439318      0.23991976153240
  H   -0.20749687790730     -1.90693465303123      0.76149278867419
  H   -0.63886737643188     -2.06913270067059     -0.96155914260824
  C   -0.97672411220249      0.71117932384881      1.08525846409710
  H   -0.92300115198522      1.79022379500923      0.93036099586550
  H   -1.98152065856250      0.46397326215014      1.43294081518769
  H   -0.25238030853436      0.42176436276096      1.84978096377831
  N   1.73789623898742     -0.31610640178126      0.24847527127888
  H   2.48632581720636      0.33628007848787      0.43817382743218
  H   2.14341773462801     -1.16341227004716     -0.12532550743671
  C   0.99018123803049      1.68097228421049     -0.85517072243579
  N   1.21573116280170      2.83028802529245     -0.93806954487262
