17
Coordinates from ORCA-job run
  C   -0.42177591891311     -0.28150551040951     -0.03669489251489
  C   1.00425969850180      0.32353253083718     -0.12394578503462
  Cl  -0.67253949939064     -1.30787551088817     -1.49686560873985
  H   1.11937572547075      0.94215476027578      0.77634797302845
  C   -0.56678680719180     -1.16136549726587      1.19383092080682
  H   -1.57945401066762     -1.56490797806457      1.24985994177836
  H   0.13524896678028     -1.99553352751573      1.17134616835120
  H   -0.38032128913339     -0.56904477266825      2.09562112854760
  C   -1.46622998390275      0.82275463765793     -0.05386672712761
  H   -1.41491963871581      1.40916743179017     -0.97179032632026
  H   -1.31972068537676      1.48694137131376      0.80409006351941
  H   -2.46673663564063      0.39227868579079      0.01094817154915
  N   1.31583070524008      1.16211087116762     -1.26478378590361
  H   1.11535031560117      0.66998065608330     -2.12723000286191
  H   0.77395745860522      2.01529943362769     -1.23875032411205
  C   2.01385500359992     -0.74292925281612     -0.03262146390911
  N   2.81060659513328     -1.60105832891600      0.04650454894292
