17
Coordinates from ORCA-job run
  C   -0.64904071063163     -0.06231474753248     -0.20262373148858
  C   0.73595919307246      0.49091582668266     -0.60848054376214
  Cl  -1.57160015905237     -0.28294517803143     -1.73090450083403
  H   0.55533111542986      1.36793626569564     -1.23811516240415
  C   -0.52883642813297     -1.41176653073634      0.48266151120056
  H   -0.07017523795416     -2.14239607592819     -0.18413248429764
  H   0.07046050427277     -1.31814455743238      1.39412263900981
  H   -1.51879857489957     -1.77862416661389      0.75916130925020
  C   -1.40449651099973      0.94426399756969      0.65136420893012
  H   -1.46004674818271      1.91577537936588      0.15416176854432
  H   -0.91380741398514      1.07112884424933      1.61930801507638
  H   -2.42322404768097      0.59240863587099      0.82185567606251
  N   1.50471151150573     -0.47089179138915     -1.38266435158133
  H   2.19737178986551      0.00678803655586     -1.94463360758734
  H   1.99308449187581     -1.11329706101006     -0.77119980135354
  C   1.44989358488437      0.94462854726137      0.60320029026811
  N   2.03321364061276      1.24653457542249      1.57791876496676
