17
Coordinates from ORCA-job run
  C   -0.56634942610247     -0.04829577078467     -0.20123160914585
  C   0.82297839861921      0.56376590411590     -0.53701120439822
  Cl  -1.36940642746378     -0.33519596168070     -1.79432454549208
  H   0.63019214901176      1.48887688086423     -1.09303872758706
  C   -0.45130466028157     -1.37929893216776      0.51820745094654
  H   0.09937567623618     -2.10872471141900     -0.07734059955411
  H   -1.44487361067650     -1.78816264619662      0.70950446192842
  H   0.05772007984942     -1.24186159805064      1.47661589085125
  C   -1.41867763376698      0.94378330941916      0.57238164956753
  H   -0.98918761266951      1.11801384070537      1.56207739818594
  H   -2.43037981020301      0.55352536016067      0.69688652953351
  H   -1.48384116448935      1.89782454839242      0.04388082019215
  N   1.74765130735692     -0.22937862788166     -1.32442696236636
  H   2.01900076978319     -1.07003294069209     -0.83032378443780
  H   1.31349604713313     -0.48989810807948     -2.20120633427277
  C   1.48112471067434      0.93385480970920      0.72446709770460
  N   1.98148120698903      1.19120464358567      1.75488246834431
