14

C	0.0	0.0	0.0
C	-0.650806	-0.043541	-1.371312
Cl	1.793345	0.0	0.0
H	-1.767535	-0.088909	-1.074164
H	-0.466163	0.89619	-1.90052
C	-0.494348	1.239887	0.730794
H	-0.169403	2.130523	0.186795
H	-1.593105	1.160816	0.734504
H	-0.099035	1.271844	1.747734
C	-0.363981	-1.208302	0.757974
N	-0.549441	-2.196338	1.366045
C	-0.258207	-1.169184	-2.196962
N	0.035414	-2.074299	-2.888201
H	-3.060408	0.0	0.0
