14

C	0.0	0.0	0.0
C	-0.32192	-0.026409	-1.510399
Cl	1.796427	0.0	0.0
H	0.005633	-0.997183	-1.911292
H	0.296005	0.742897	-1.986373
C	-0.26925	1.375602	0.649015
H	0.166495	1.378482	1.652213
H	-1.331799	1.575533	0.712957
H	0.228068	2.152305	0.059956
C	-0.740716	-1.086609	0.676712
N	-0.727472	-2.136657	1.232778
C	-1.728937	0.176422	-1.90893
N	-2.679939	0.109842	-2.610388
H	-2.12788	0.0	0.0
