14

C	0.0	0.0	0.0
C	-0.629902	0.06331	-1.382666
Cl	1.799374	0.0	0.0
H	-1.750774	0.042213	-1.102732
H	-0.380824	-0.818925	-1.978321
C	-0.477779	1.168181	0.84915
H	-0.090105	1.086854	1.86639
H	-1.576869	1.109193	0.840417
H	-0.132664	2.10322	0.402137
C	-0.376943	-1.278178	0.62505
N	-0.543035	-2.321956	1.138574
C	-0.275314	1.271456	-2.100891
N	-0.012417	2.25403	-2.691663
H	-3.035352	0.0	0.0
