14

C	0.0	0.0	0.0
C	-0.615269	0.190951	-1.381938
Cl	1.784202	0.0	0.0
H	-0.328545	-0.620532	-2.05666
H	-1.732166	0.127657	-1.13794
C	-0.492702	1.082973	0.946734
H	-0.121606	0.90766	1.958321
H	-1.591846	1.026843	0.915307
H	-0.139177	2.054339	0.593549
C	-0.381379	-1.338635	0.480205
N	-0.54194	-2.441429	0.852952
C	-0.274174	1.472554	-1.971983
N	-0.016742	2.51029	-2.461224
H	-3.065595	0.0	0.0
