15

C	-0.328311	-0.028676	-1.448645
C	0.056646	0.077608	0.031331
Br	0.083511	1.67536	-2.338434
H	1.151315	0.110928	0.04068
H	-1.4133	-0.124376	-1.569954
C	0.453686	-1.144499	-2.122954
H	0.329514	-1.113772	-3.207603
H	0.087165	-2.109746	-1.756063
H	1.500965	-1.02185	-1.805778
C	-0.316432	-1.194638	0.673027
N	-0.671986	-2.168624	1.229469
N	-0.564541	1.211625	0.713985
H	-1.495756	0.971152	1.035342
H	-0.006821	1.437492	1.527909
F	2.619831	-0.413736	-0.373051
