15

C	-0.235426	-0.057183	-1.53704
C	-0.064382	-0.168671	-0.020671
Br	-2.13928	0.123419	-2.048238
H	0.99932	-0.410312	0.101399
H	0.059729	-1.00483	-1.995574
C	0.571463	1.106749	-2.074306
H	0.682431	1.039736	-3.159618
H	0.069723	2.03983	-1.817076
H	1.534423	1.110152	-1.542549
C	-0.882574	-1.240748	0.545517
N	-1.511197	-2.10564	1.033565
N	-0.271623	1.126628	0.630734
H	0.720358	1.443743	0.677463
H	-0.593924	0.969603	1.57902
F	2.335598	1.067048	0.261198
