15

C	-0.242839	-0.060402	-1.532379
C	-0.067072	-0.165233	-0.01633
Br	-2.148139	0.120608	-2.038117
H	0.996781	-0.406915	0.103997
H	0.049444	-1.010609	-1.987429
C	0.563955	1.099767	-2.077921
H	1.529104	1.1034	-1.55014
H	0.66995	1.028055	-3.163412
H	0.065013	2.034792	-1.8222
C	-0.884628	-1.233826	0.557705
N	-1.509586	-2.097627	1.052349
N	-0.270523	1.133414	0.630031
H	-0.589227	0.981016	1.580291
H	0.721945	1.44918	0.671923
F	2.335824	1.064971	0.250639
