15

C	-0.277071	-0.054558	-1.457915
C	0.013875	0.013424	0.045409
Br	0.137054	1.699949	-2.272443
H	1.112831	0.046702	0.121553
H	-1.350119	-0.16445	-1.638367
C	0.590788	-1.106696	-2.123013
H	0.266865	-2.097374	-1.784451
H	1.617375	-0.919456	-1.768412
H	0.502076	-1.064449	-3.211027
C	-0.458413	-1.247016	0.624197
N	-0.836178	-2.249639	1.108234
N	-0.7319	1.111453	0.701421
H	-0.497191	1.07379	1.689125
H	-0.31558	1.969979	0.354075
F	2.65517	-0.160017	-0.369244
