15

C	-0.289276	-0.052487	-1.45486
C	0.009679	0.015223	0.04691
Br	0.14546	1.693822	-2.276025
H	1.1094	0.033296	0.11777
H	-1.364611	-0.147832	-1.629918
C	0.560636	-1.118493	-2.121123
H	0.224332	-2.103619	-1.7785
H	0.467614	-1.077736	-3.208839
H	1.591383	-0.944635	-1.771805
C	-0.477535	-1.236869	0.631352
N	-0.865745	-2.23343	1.119625
N	-0.717281	1.125493	0.703524
H	-0.290367	1.977053	0.351902
H	-0.478317	1.08706	1.690182
F	2.646379	-0.195245	-0.379975
