15

C	-0.181527	-0.052975	-1.53581
C	-0.000263	-0.140702	-0.014311
Br	-2.09747	0.237277	-1.994537
H	1.071167	-0.361284	0.104755
H	0.030582	-1.028955	-1.980611
C	0.671423	1.041539	-2.142845
H	0.771863	0.901444	-3.222146
H	1.633547	1.039902	-1.603118
H	0.218583	2.017917	-1.961406
C	-0.806558	-1.238143	0.544477
N	-1.424529	-2.135277	0.984774
N	-0.155144	1.093328	0.729774
H	-0.869678	1.67367	0.305302
H	0.790341	1.502037	0.627164
F	2.421353	1.104531	0.099321
