14

C	0.0	0.0	0.0
C	-0.438072	0.208404	-1.440908
F	1.40632	0.0	0.0
H	-0.085503	1.204747	-1.727371
H	-0.287383	-1.012187	0.319364
H	-1.534189	0.201519	-1.395949
N	-0.560206	1.028117	0.813172
H	-0.40601	0.770821	1.782096
H	-1.584501	0.854237	0.619363
C	0.103608	-0.854089	-2.38865
H	-0.161046	-0.630218	-3.427239
H	1.191395	-0.932134	-2.327151
H	-0.32282	-1.831732	-2.153132
F	-2.894069	0.0	0.0
