14

C	0.0	0.0	0.0
C	-0.188067	-0.144934	-1.538178
F	1.404436	0.0	0.0
H	0.457203	-0.981811	-1.835717
H	-0.331294	-0.899075	0.524011
H	0.298076	0.75604	-1.943201
N	-0.611064	1.115874	0.620428
H	-1.629249	0.80933	0.570836
H	-0.528496	1.907276	-0.013634
C	-1.555248	-0.314331	-2.18331
H	-1.423783	-0.358062	-3.275586
H	-2.24165	0.473925	-1.893194
H	-2.045198	-1.221315	-1.837335
F	-2.932922	0.0	0.0
