16

C	0.0	0.0	0.0
C	-0.333122	0.034428	-1.502124
Br	1.94387	0.0	0.0
H	0.243765	-0.719867	-2.027513
H	-1.410105	-0.120018	-1.592095
C	-0.303621	1.21249	0.881373
H	0.122682	1.013748	1.864653
H	-1.37898	1.349045	0.961861
H	0.156226	2.105121	0.461797
N	-0.66738	-1.222584	0.539006
O	-0.680105	-1.335717	1.785403
O	-0.666322	-2.209766	-0.242511
N	-0.034146	1.331924	-2.153293
O	0.807934	1.342723	-3.055842
O	-0.685478	2.318987	-1.803225
H	-2.244743	0.0	0.0
