14
Coordinates from ORCA-job run
  C   -0.17471588121559     -0.40419815821251     -0.09629771968934
  C   1.22154846058314      0.17356420235730      0.13636494835831
  Br  -0.14189209428446     -1.58362915748926     -1.64287778278090
  H   1.22171316400861      0.71331552715391      1.08947418273740
  H   1.95447116561782     -0.62952930252300      0.21600602765477
  C   -1.24975917166792      0.64538137867898     -0.25521144497864
  H   -2.22169448599962      0.17883551670696     -0.39754306291803
  H   -1.28467672466067      1.26722255817242      0.64463424751047
  H   -1.02089383849696      1.27507067551613     -1.11539768534621
  N   -0.51391632925301     -1.29976743876434      1.09780564797014
  O   -1.69911215019339     -1.54056546280599      1.28650680453614
  O   0.42511690389850     -1.72583818538912      1.76312641712882
  C   1.59483371201750      1.09046004341841     -0.93565564169247
  N   1.88797726964605      1.83967780318013     -1.78993493849046
