14
Coordinates from ORCA-job run
  C   -0.28803640673011     -0.37472673261278     -0.32849119108015
  C   1.05268092680133      0.24116324392684     -0.72387773441085
  Br  -0.91156554044052     -1.46571152183605     -1.81577737107374
  H   0.89491192476540      0.87644093124479     -1.59910128136268
  H   1.76205738405935     -0.54246324969143     -0.98991048888698
  C   -1.33826965571727      0.63895985877901      0.05852104629654
  H   -1.00582800067627      1.19436796418674      0.93901737290725
  H   -1.48767511382476      1.33390741654638     -0.76975876599196
  H   -2.28079851681299      0.14800888752736      0.28911621998097
  N   -0.05312456955319     -1.35056937038954      0.82763281307766
  O   -0.99036527432614     -1.53603843666740      1.59339195626909
  O   1.04647878755451     -1.88976464259288      0.88164871192850
  C   1.59524969110703      1.04158855826078      0.37253304865816
  N   2.00428436379360      1.68483709331818      1.26505566368821
