14
Coordinates from ORCA-job run
  C   -0.26161387160573     -0.25132333030401     -0.22034574671016
  C   0.93922863398318      0.68124609824159     -0.36650679286209
  Br  -0.30052946255677     -1.49775225705596     -1.69784127294588
  H   0.92081785056322      1.41427381907913      0.44255140549240
  H   0.84195993131926      1.21216124984643     -1.31695340191018
  C   -1.57194340220265      0.51087150157612     -0.13606705136850
  H   -2.40422648281847     -0.18502330859678     -0.02339292684352
  H   -1.72136813179781      1.09275297281713     -1.04650145050380
  H   -1.54307182976696      1.18384803192656      0.72521527696699
  N   -0.13024058799394     -1.02295777671144      1.09780816689150
  O   0.38129974214003     -0.38250937304208      2.01314717766242
  O   -0.61219700075979     -2.14159962743282      1.17524767739546
  C   2.21597238452817     -0.02636663511874     -0.33693642636374
  N   3.24591222696828     -0.58762136522513     -0.31042463490090
