14

C	-0.589852	0.061624	-1.392466
C	0.0	0.0	0.0
Br	-0.028807	1.690509	-2.27537
H	1.088412	0.0	0.0
H	-1.67754	0.033526	-1.423894
N	-0.155008	-1.085147	-2.276484
O	-0.974348	-1.413098	-3.132863
O	0.952627	-1.565655	-2.104156
N	-0.456576	-1.234464	0.686812
O	-1.009721	-2.102244	0.002489
O	-0.221406	-1.329376	1.886685
C	-0.440122	1.135042	0.787118
N	-0.784354	2.072996	1.407559
F	2.419051	0.0	0.0
