14

C	-0.298963	0.268424	-1.451808
C	0.0	0.0	0.0
Br	0.386625	-0.997557	-2.737952
H	1.091708	0.0	0.0
H	0.187882	1.210297	-1.701053
N	-1.764964	0.486134	-1.754056
O	-2.58313	-0.111823	-1.06303
O	-2.022762	1.257409	-2.674909
N	-0.486895	-1.258558	0.593578
O	-0.704529	-1.246487	1.804472
O	-0.562954	-2.250312	-0.125168
C	-0.458209	1.134023	0.775731
N	-0.79086	2.117193	1.328499
F	2.425376	0.0	0.0
