14

C	-0.451881	-0.00503	-1.433317
C	0.0	0.0	0.0
Br	-2.340411	0.379387	-1.776828
H	1.092597	0.0	0.0
H	-0.239888	-0.963281	-1.90401
N	0.319646	1.019346	-2.223215
O	0.486707	0.758822	-3.410306
O	0.687017	2.026262	-1.636387
N	-0.421808	-1.307029	0.635945
O	-1.629074	-1.552828	0.699521
O	0.466466	-2.041954	1.052588
C	-0.569437	1.062006	0.799176
N	-1.039824	1.908768	1.466057
F	2.442027	0.0	0.0
