14

C	-0.358353	0.056295	-1.458485
C	0.0	0.0	0.0
Br	0.416164	-1.300342	-2.592137
H	1.093374	0.0	0.0
H	0.027684	0.997376	-1.848226
N	-1.850845	0.104265	-1.728509
O	-2.601984	-0.332996	-0.862906
O	-2.195128	0.597622	-2.799004
N	-0.44156	-1.188521	0.756658
O	-0.580874	-1.047106	1.970301
O	-0.556844	-2.250156	0.152595
C	-0.468062	1.209665	0.643569
N	-0.817956	2.244017	1.080432
F	2.424728	0.0	0.0
