15
Coordinates from ORCA-job run
  C   0.81792298599291      0.16345838855350     -0.40894034384775
  C   -0.70414101133380     -0.00888249660581     -0.38978321642354
  H   1.01197392442808      1.11591484653292     -0.92490559079139
  H   -1.12179366762032     -0.30261864282282     -1.35232191196503
  C   1.41348272596302     -0.89954933532919     -1.22561146500678
  N   1.93177472857069     -1.71302704189938     -1.89445499345328
  N   1.33685412159530      0.09853091639382      0.94677963231554
  H   1.15594350753166      0.97567917833470      1.41828102602438
  H   2.33283817810868     -0.07769156713818      0.94065540343671
  N   -1.40042869739082      1.25099225948483      0.02289863079167
  O   -2.59702650732805      1.29583567048060     -0.23756882028915
  O   -0.73875530853175      2.11548509354688      0.59231180913367
  N   -1.07327885814873     -1.07718873801158      0.60572820994345
  O   -0.81308541379711     -2.21269466388567      0.23473155406080
  O   -1.55228070803978     -0.72424386763459      1.67220007607071
