15
Coordinates from ORCA-job run
  C   0.84022581825306      0.37907395348263     -0.06718346833912
  C   -0.63136107746744      0.37036825129691      0.32824724001438
  H   1.06945617677490      1.43121102409939     -0.26504163056759
  H   -0.81195758324499      1.07190586842261      1.14078470788595
  C   1.07669193945828     -0.35915501037748     -1.32280221882328
  N   1.32294208535396     -0.92071853974406     -2.32474743733156
  N   1.62028236582487     -0.05434198618228      1.07639421256690
  H   2.56942046431214      0.28785460879720      1.00251581322838
  H   1.64461486618017     -1.06573789831014      1.11744428615140
  N   -1.11315332060456     -0.96677591987449      0.78773476315387
  O   -2.15333357788265     -0.95132457309117      1.43548668633586
  O   -0.45103627985162     -1.95250655518073      0.47487320018180
  N   -1.47623267808626      0.79724984552381     -0.84181888133833
  O   -2.19346750575051     -0.03514399591524     -1.37895578851879
  O   -1.31609169326936      1.96904092705303     -1.16393148459988
