15
Coordinates from ORCA-job run
  C   0.85532417338441      0.19867212612711     -0.33854378816405
  C   -0.64979084741024      0.00287985560052     -0.49871485784054
  H   1.10363091642184      1.00667614093290     -1.03462452553035
  H   -0.95197790057550     -0.12187983098579     -1.53847740277396
  C   1.54813119971703     -1.01928051087212     -0.80404882997747
  N   2.12694541905593     -1.97702786732706     -1.16175607844841
  N   1.17561739190971      0.65231604539286      0.99581669720927
  H   2.09543258877771      1.07155160084431      1.01741328088208
  H   1.13636969537108     -0.11291233612393      1.65552037820198
  N   -1.32903557924490      1.24601674035783      0.01741028123261
  O   -1.09762679145686      2.24494439519424     -0.64997740494168
  O   -2.00683956561629      1.15963754580471      1.02861484165271
  N   -1.19327136081775     -1.16847669961096      0.25388013262066
  O   -2.28774678047030     -1.57014352837170     -0.12523977474339
  O   -0.52616255904588     -1.61397367696294      1.18372705062054
