15
Coordinates from ORCA-job run
  C   0.92880479433301      0.14494624068753     -0.37605599251860
  C   -0.60331819939279      0.00105727787247     -0.49059500102128
  H   1.18941447682464      0.92699557531445     -1.09701992436044
  H   -0.94383000202024     -0.08039313684757     -1.52316546027396
  C   1.52472397145676     -1.11127002260512     -0.85292699086100
  N   1.97216367290779     -2.11768517980928     -1.25915491489332
  N   1.46871339604262      0.52759212742574      0.90227828478544
  H   1.28550119193889      1.49994637047916      1.10799380683712
  H   1.12951169165852     -0.06831647236176      1.64406055958181
  N   -1.22237608403028      1.24312444805447      0.08605285194250
  O   -1.90625741711434      1.14309994940992      1.09535592847012
  O   -0.92899311963445      2.26978666883229     -0.51612924502165
  N   -1.15503461100172     -1.17564359568057      0.24530394093801
  O   -2.20128276900798     -1.63625047133778     -0.19904412947017
  O   -0.53874099296043     -1.56598977943394      1.23304628586545
