15
Coordinates from ORCA-job run
  C   0.82371853108907      0.34197840312297      0.03142489315767
  C   -0.68217307905991      0.22034717065605      0.27264238515812
  H   1.00877821729888      1.39603063763288     -0.22000719769800
  H   -0.93450021904063      0.61499732510086      1.25581175118630
  C   1.28661960325874     -0.43452719770302     -1.12362521096650
  N   1.74172122896269     -1.01018603976092     -2.03997941676793
  N   1.50178271464365     -0.05140238600319      1.26404227268012
  H   1.91597397357079      0.75659141950606      1.70916741158803
  H   2.22365721974083     -0.73630443169037      1.09062112330299
  N   -1.18528357974173     -1.20098528172376      0.23874836783382
  O   -0.35523418989791     -2.09624438861075      0.31825561957287
  O   -2.40333226654102     -1.31861037493611      0.18158689788352
  N   -1.46616293690419      0.98257439580738     -0.74206079293155
  O   -2.16965094511087      1.89858589992644     -0.32727074032042
  O   -1.30591427226839      0.63715484867547     -1.90935736367905
