17

C	-0.265241	0.04245	-1.490846
C	0.0	0.0	0.0
Cl	-0.012149	-1.59011	-2.192283
H	1.093966	0.0	0.0
H	-0.422984	-0.913237	0.423032
N	-1.737291	0.362227	-1.754684
O	-2.008245	1.396411	-2.366774
O	-2.572097	-0.394669	-1.266123
C	0.672333	1.008033	-2.178781
H	0.427246	2.031501	-1.890836
H	1.663087	0.7504	-1.782277
H	0.621222	0.926248	-3.264238
C	-0.516589	1.234376	0.72971
H	-0.254356	1.148517	1.786979
H	-1.604382	1.356436	0.663287
H	-0.037498	2.143582	0.358766
F	2.703376	0.0	0.0
