17

C	-0.257926	-0.070064	-1.497022
C	0.0	0.0	0.0
Cl	-1.915051	-0.675838	-1.91108
H	1.093574	0.0	0.0
H	-0.32803	-0.964778	0.40348
N	-0.177619	1.349232	-2.058545
O	0.928739	1.715746	-2.444298
O	-1.178861	2.060599	-2.019093
C	0.805112	-0.926255	-2.153235
H	0.785371	-0.837581	-3.240865
H	0.617928	-1.96441	-1.871017
H	1.765091	-0.617444	-1.71426
C	-0.638287	1.153778	0.748462
H	-0.459746	1.025091	1.819274
H	-0.181639	2.103092	0.459999
H	-1.717347	1.227578	0.581805
F	2.715234	0.0	0.0
