17

C	-0.519319	0.035171	-1.420985
C	0.0	0.0	0.0
Cl	0.201866	1.38846	-2.325652
H	1.091253	0.0	0.0
H	-0.359017	-0.938648	0.436331
N	-0.099914	-1.277552	-2.099763
O	0.656425	-1.276454	-3.05895
O	-0.61908	-2.280726	-1.608945
C	-2.030329	0.114584	-1.577174
H	-2.496031	-0.692304	-1.009888
H	-2.315986	0.0336	-2.629417
H	-2.379799	1.074517	-1.197975
C	-0.466297	1.18245	0.839616
H	-1.546084	1.21051	1.032181
H	-0.169698	2.124579	0.372777
H	0.051592	1.13236	1.800481
F	2.655939	0.0	0.0
