17

C	-0.238596	0.096278	-1.500965
C	0.0	0.0	0.0
Cl	-0.010558	-1.487194	-2.298267
H	1.093751	0.0	0.0
H	-0.329267	0.963996	0.41039
N	-1.686146	0.520444	-1.761614
O	-1.899664	1.73399	-1.762678
O	-2.563965	-0.335354	-1.842467
C	0.752208	1.074794	-2.095343
H	1.73149	0.7441	-1.719661
H	0.699383	1.093096	-3.186103
H	0.555349	2.072297	-1.701539
C	-0.646643	-1.159625	0.731894
H	-0.472067	-1.04444	1.805429
H	-0.194103	-2.104175	0.427378
H	-1.727807	-1.226557	0.565982
F	2.711886	0.0	0.0
