17

C	-0.257361	0.036967	-1.491997
C	0.0	0.0	0.0
Cl	-0.011594	-1.599486	-2.185008
H	1.093892	0.0	0.0
H	-0.425776	-0.910977	0.423291
N	-1.725839	0.364402	-1.758578
O	-2.56473	-0.401412	-1.290251
O	-1.990068	1.413763	-2.347695
C	0.690524	0.992745	-2.179159
H	0.45378	2.019146	-1.89868
H	1.676235	0.729883	-1.774907
H	0.646365	0.903129	-3.264349
C	-0.51561	1.238059	0.723032
H	-0.049881	2.145715	0.33383
H	-0.235289	1.167477	1.776955
H	-1.604784	1.351161	0.671051
F	2.706124	0.0	0.0
