16

C	-0.290619	0.048941	-1.516809
C	0.0	0.0	0.0
Br	-0.001265	-1.848857	-2.291365
H	1.097383	0.0	0.0
C	-1.697783	0.297833	-1.838155
N	-2.833592	0.50453	-2.065854
N	0.560569	0.998378	-2.088781
H	1.522166	0.868485	-1.766356
H	0.502807	1.04258	-3.096739
C	-0.580839	-1.16914	0.783273
H	-0.401971	-1.00203	1.846843
H	-0.087896	-2.094974	0.494828
H	-1.658324	-1.263179	0.620867
C	-0.460455	1.269145	0.565038
N	-0.850324	2.257038	1.068282
Cl	3.283717	0.0	0.0
