16

C	-0.41354	0.005654	-1.470742
C	0.0	0.0	0.0
Br	-2.536799	0.119723	-1.532969
H	1.097562	0.0	0.0
C	-0.04266	1.239218	-2.159487
N	0.247462	2.23265	-2.716715
N	0.049688	-1.106068	-2.16208
H	-0.17023	-1.099466	-3.147096
H	-0.188634	-1.983868	-1.726044
C	-0.416565	-1.266588	0.751081
H	-0.132047	-1.155547	1.798373
H	0.141906	-2.124434	0.369609
H	-1.491567	-1.44862	0.688531
C	-0.482521	1.194351	0.681471
N	-0.854312	2.140252	1.270794
Cl	3.246388	0.0	0.0
