16

C	-0.413263	0.005192	-1.470647
C	0.0	0.0	0.0
Br	-2.5323	0.162198	-1.533619
H	1.097574	0.0	0.0
C	-0.016309	1.224866	-2.168178
N	0.300964	2.206339	-2.73184
N	0.02545	-1.122668	-2.153391
H	-0.251104	-1.992317	-1.7213
H	-0.177689	-1.108175	-3.14272
C	-0.424429	-1.264199	0.750263
H	-0.151475	-1.151874	1.800446
H	0.136465	-2.122399	0.374467
H	-1.499295	-1.443824	0.677825
C	-0.475725	1.198064	0.680151
N	-0.836913	2.148336	1.268905
Cl	3.252169	0.0	0.0
