16

C	-0.533811	-0.028	-1.438582
C	0.0	0.0	0.0
Br	0.334825	1.478946	-2.458667
H	1.093953	0.0	0.0
C	-0.114423	-1.249421	-2.125866
N	0.153573	-2.246677	-2.685852
N	-1.959383	0.053147	-1.468454
H	-2.297031	0.058571	-2.424084
H	-2.261263	0.906756	-1.009147
C	-0.449923	-1.240295	0.785004
H	-1.536746	-1.326334	0.823681
H	-0.02776	-2.13334	0.321056
H	-0.047539	-1.173738	1.797424
C	-0.512116	1.206768	0.650678
N	-1.003364	2.137607	1.172512
Cl	3.277664	0.0	0.0
