16

C	-0.247258	-0.070946	-1.525295
C	0.0	0.0	0.0
Br	-2.136853	-0.556033	-1.915164
H	1.099333	0.0	0.0
C	-0.04768	1.246964	-2.137672
N	0.107239	2.303343	-2.627083
N	0.601301	-1.021342	-2.204197
H	0.402503	-1.949314	-1.848319
H	1.564167	-0.795768	-1.937622
C	-0.43425	-1.243962	0.772562
H	-1.520074	-1.322629	0.847668
H	-0.004215	-1.193252	1.774623
H	-0.038367	-2.142932	0.295883
C	-0.551778	1.202426	0.603583
N	-1.002547	2.153311	1.127129
Cl	3.257846	0.0	0.0
