16

C	-0.289618	0.0544	-1.516883
C	0.0	0.0	0.0
Br	-0.013046	-1.844264	-2.296335
H	1.097374	0.0	0.0
C	-1.694268	0.313865	-1.838845
N	-2.825362	0.534948	-2.072347
N	0.567242	0.999468	-2.086963
H	1.528579	0.864944	-1.765355
H	0.508122	1.049171	-3.094786
C	-0.581113	-1.171875	0.779103
H	-1.657898	-1.268148	0.612501
H	-0.084762	-2.096031	0.490587
H	-0.406459	-1.006178	1.843787
C	-0.460081	1.267316	0.569507
N	-0.850854	2.253354	1.075725
Cl	3.285058	0.0	0.0
