16

C	-0.502079	0.003671	-1.447468
C	0.0	0.0	0.0
Br	0.170189	1.589758	-2.386792
H	1.095658	0.0	0.0
C	0.034729	-1.160874	-2.174083
N	0.345594	-2.153249	-2.724765
N	-1.950043	0.060265	-1.500249
H	-2.325214	-0.773723	-1.060411
H	-2.258245	0.078791	-2.465449
C	-0.428481	-1.267318	0.755255
H	0.066351	-1.263811	1.727076
H	-1.508225	-1.320215	0.92029
H	-0.088147	-2.155024	0.218105
C	-0.489587	1.185703	0.697824
N	-0.870472	2.107341	1.31864
Cl	3.269986	0.0	0.0
