16

C	-0.322977	0.029679	-1.517506
C	0.0	0.0	0.0
Br	0.118037	-1.732103	-2.295069
H	1.096918	0.0	0.0
C	-1.756575	0.23063	-1.755942
N	-2.909516	0.409153	-1.899732
N	0.448779	1.013397	-2.237478
H	1.425515	0.891842	-1.961529
H	0.153069	1.938336	-1.936628
C	-0.581653	-1.147137	0.81543
H	-1.667896	-1.210609	0.699545
H	-0.127623	-2.087332	0.506306
H	-0.350784	-0.98973	1.870938
C	-0.440286	1.290908	0.530795
N	-0.815098	2.329281	0.93557
Cl	3.280038	0.0	0.0
