14
Coordinates from ORCA-job run
  C   -0.46320813491473      0.21322991155699      0.15296923135264
  C   0.83299847882952     -0.54405233727389     -0.09366913086668
  F   -0.72186572423545      0.14999617934913      1.51626045054025
  H   1.18816872293113     -0.39789924913144     -1.11548048210842
  H   0.68900738379880     -1.60218091519806      0.11752417375021
  C   -1.61586621991715     -0.44920751667917     -0.58280962620310
  H   -2.54049599563451      0.08097902837249     -0.35292237429097
  H   -1.45494707570025     -0.42410236359803     -1.66206782306609
  H   -1.70947493749090     -1.48459642620464     -0.25058976515878
  C   -0.37920451518611      1.63112156397405     -0.23834750616234
  N   -0.40887552663097      2.74157074676911     -0.61778186365762
  N   1.92167252449543     -0.08361372327797      0.82149228873527
  O   2.13034587752823      1.12364376260415      0.87223835538200
  O   2.53274514212697     -0.95488866126270      1.43218407175364
