15

C	0.0	0.0	0.0
C	-0.531107	0.292802	-1.422432
Br	1.957895	0.0	0.0
H	-1.636828	0.310211	-1.320301
N	-0.48759	0.987859	0.901422
H	-1.513627	0.988389	0.816201
H	-0.247174	0.720764	1.849993
C	-0.341412	-1.400613	0.335797
N	-0.518846	-2.511987	0.677655
C	-0.109394	-0.707211	-2.39037
N	0.194717	-1.52865	-3.172836
N	-0.095538	1.659769	-1.876883
O	-0.765548	2.604654	-1.474292
O	0.890981	1.72717	-2.608153
Br	-3.584964	0.0	0.0
