12

C	-0.457692	-0.007976	-1.444822
C	0.0	0.0	0.0
Cl	0.002753	1.550549	-2.204324
H	1.091322	0.0	0.0
H	0.073291	-0.792785	-1.987925
H	-0.378764	0.849411	0.562473
C	-1.903387	-0.187567	-1.595384
N	-3.0634	-0.333756	-1.695058
N	-0.411329	-1.219484	0.659285
O	-0.488923	-2.247592	-0.036658
O	-0.532087	-1.200839	1.891664
H	2.559833	0.0	0.0
