12

C	-0.45811	-0.017078	-1.443389
C	0.0	0.0	0.0
Cl	-0.001113	1.539566	-2.210992
H	1.091235	0.0	0.0
H	0.073503	-0.803836	-1.979205
H	-0.373155	0.856412	0.557826
C	-1.901238	-0.197403	-1.590975
N	-3.062059	-0.344585	-1.700022
N	-0.409544	-1.210219	0.676667
O	-0.506481	-1.178234	1.909408
O	-0.504339	-2.244155	-0.008211
H	2.557062	0.0	0.0
