12

C	-0.427988	0.188852	-1.424577
C	0.0	0.0	0.0
Cl	-2.208348	0.479163	-1.598903
H	1.09123	0.0	0.0
H	0.053347	1.112837	-1.759775
H	-0.32211	0.837655	0.61697
C	-0.03532	-0.858005	-2.367267
N	0.267824	-1.59716	-3.22649
N	-0.488599	-1.213307	0.623342
O	-0.563239	-1.213424	1.858578
O	-0.694487	-2.20437	-0.088629
H	2.574901	0.0	0.0
