12

C	-0.587277	-0.04889	-1.392016
C	0.0	0.0	0.0
Cl	0.454187	-0.906436	-2.591384
H	1.091303	0.0	0.0
H	-1.521609	-0.61303	-1.391044
H	-0.274683	0.906264	0.5381
C	-0.846856	1.299456	-1.892631
N	-1.089336	2.380447	-2.282952
N	-0.433956	-1.124904	0.790158
O	-0.758126	-2.176136	0.207348
O	-0.329356	-1.016977	2.021351
H	2.491931	0.0	0.0
