12

C	-0.404399	0.022613	-1.461169
C	0.0	0.0	0.0
Cl	-0.067611	1.65901	-2.116406
H	1.091526	0.0	0.0
H	0.232518	-0.672683	-2.011063
H	-0.396148	0.830928	0.578848
C	-1.813014	-0.288773	-1.699107
N	-2.951369	-0.515236	-1.881308
N	-0.396307	-1.243022	0.61915
O	-0.436422	-2.251771	-0.107265
O	-0.530958	-1.262616	1.849144
H	2.545478	0.0	0.0
