12

C	-0.413877	0.029817	-1.440629
C	0.0	0.0	0.0
Cl	-2.192488	0.296942	-1.665131
H	1.093107	0.0	0.0
H	0.070973	0.911394	-1.870379
H	-0.325484	0.9001	0.518404
C	-0.011401	-1.115648	-2.25633
N	0.300575	-1.948557	-3.023082
N	-0.493703	-1.13784	0.748129
O	-0.610554	-0.993532	1.971624
O	-0.668562	-2.208075	0.151323
H	2.572711	0.0	0.0
