12

C	-0.399007	-0.031633	-1.462492
C	0.0	0.0	0.0
Cl	-0.065233	1.581012	-2.174898
H	1.091509	0.0	0.0
H	0.243533	-0.743587	-1.984025
H	-0.396951	0.851602	0.547076
C	-1.804418	-0.357743	-1.697646
N	-2.939138	-0.589954	-1.895195
N	-0.397967	-1.219038	0.662774
O	-0.436551	-2.253382	-0.02679
O	-0.535643	-1.193763	1.89245
H	2.544453	0.0	0.0
