12

C	-0.408647	0.043994	-1.442425
C	0.0	0.0	0.0
Cl	-2.187022	0.294499	-1.668029
H	1.093091	0.0	0.0
H	0.067452	0.934216	-1.859006
H	-0.32451	0.894646	0.528
C	0.009225	-1.085455	-2.270249
N	0.343765	-1.89518	-3.05262
N	-0.490877	-1.145436	0.735223
O	-0.674179	-2.207827	0.123469
O	-0.594845	-1.018094	1.963368
H	2.572232	0.0	0.0
