12

C	-0.518265	0.21098	-1.412127
C	0.0	0.0	0.0
Cl	-0.58524	-1.373433	-2.262343
H	1.090519	0.0	0.0
H	-1.541443	0.589284	-1.401091
H	-0.337697	-0.939921	0.43051
C	0.272696	1.139102	-2.225927
N	0.798167	1.88891	-2.961873
N	-0.433289	1.073471	0.854173
O	-0.656555	2.180984	0.324608
O	-0.43066	0.873488	2.077916
H	2.517835	0.0	0.0
