12

C	-0.505592	0.047732	-1.421374
C	0.0	0.0	0.0
Cl	0.209626	1.350461	-2.422888
H	1.092535	0.0	0.0
H	-0.163769	-0.881838	-1.88514
H	-0.290319	-0.942726	0.467178
C	-1.963508	0.097775	-1.526373
N	-3.1349	0.071456	-1.612611
N	-0.500773	1.06488	0.852422
O	-0.928278	2.103637	0.329662
O	-0.376309	0.893855	2.070433
H	2.583923	0.0	0.0
