12

C	-0.4169	0.04164	-1.43977
C	0.0	0.0	0.0
Cl	-2.193182	0.328979	-1.657839
H	1.092969	0.0	0.0
H	0.076047	0.920629	-1.865061
H	-0.32261	0.897795	0.52436
C	-0.029625	-1.103339	-2.263106
N	0.268865	-1.939022	-3.032397
N	-0.496548	-1.14028	0.742401
O	-0.680846	-2.205844	0.139521
O	-0.606926	-1.003042	1.967361
H	2.572669	0.0	0.0
