15
Coordinates from ORCA-job run
  C   -0.21929225258337      0.10628841392439      0.49509133786204
  C   1.30009499641459     -0.05383681482762      0.35298404665575
  F   -0.41884556318080      0.36385160824832      1.86036087327850
  H   1.78778059972698      0.86237572243186      0.69797486337900
  H   1.63354102358018     -0.86894149067095      1.00162690967954
  C   -0.95763035116636     -1.17289130388504      0.16132318691470
  H   -2.02307778324408     -1.04319911368685      0.36080149350510
  H   -0.58925455098961     -1.99378349080521      0.78063280253809
  H   -0.82732414769360     -1.43777156815974     -0.88987710594579
  C   -0.73734516492102      1.30357388738683     -0.27366345897524
  H   -1.80265872311178      1.43376029329132     -0.07375237677948
  H   -0.59580042591295      1.17064717105553     -1.34812975986383
  H   -0.21501109149978      2.20949425420812      0.04191485641983
  C   1.69255359040840     -0.33054481642300     -1.02469393910330
  N   1.97326984417319     -0.55102275208796     -2.14259372956491
