15
Coordinates from ORCA-job run
  C   -0.19211832629907      0.02475126075058      0.33887290613012
  C   1.18182715186140     -0.46569478485271     -0.13155893867930
  F   -0.00079166617695      0.55683196941989      1.62072901808569
  H   1.55325464343339     -1.20792139360296      0.58083327558867
  H   1.08962643387840     -0.95486323526386     -1.10580761375882
  C   -1.14907219849539     -1.14307988183336      0.47621581524308
  H   -0.73755299654140     -1.89299269435382      1.15516712414316
  H   -2.09709402457420     -0.79235246862792      0.88805852901969
  H   -1.34170824719603     -1.60972818840526     -0.49246192558981
  C   -0.74148932667853      1.13310655059986     -0.53478561992647
  H   -0.06076795008826      1.98567521107308     -0.54151238799591
  H   -0.88294789728451      0.78610274947089     -1.56103591909372
  H   -1.70474885298687      1.46398911656449     -0.14254848609821
  C   2.15618226421816      0.61885395053854     -0.23101703043651
  N   2.92840099292987      1.49732183852257     -0.31814874663166
