15
Coordinates from ORCA-job run
  C   -0.20971325174991      0.11305951259768      0.49821568759581
  C   1.30192549479417     -0.09514665704721      0.33683526020751
  F   -0.38390920140712      0.37676012712903      1.86566066459865
  H   1.82250077352068      0.80525168698364      0.67542824714416
  H   1.61802020008805     -0.92085198799953      0.98067706679852
  C   -0.99219997879969     -1.14213894083283      0.17409221772649
  H   -2.05060666050556     -0.97862977429021      0.38568698827345
  H   -0.64298682052873     -1.97402172920154      0.78988986535972
  H   -0.88245991228537     -1.41157057562689     -0.87830037728065
  C   -0.69893989178980      1.32610712361396     -0.26469856476363
  H   -0.14622257873662      2.21541025594171      0.04619070238734
  H   -1.75773373832656      1.48863614099907     -0.05455241402297
  H   -0.57190743372877      1.18984533107290     -1.34047347379829
  C   1.66807752800698     -0.38188233490600     -1.04613194758406
  N   1.92715547144824     -0.61082817843378     -2.16751992264204
