14
Coordinates from ORCA-job run
  C   -0.62862334309780      0.11336830689881      0.16326139065508
  C   0.81046414809749     -0.38814625491622     -0.17653549607078
  Cl  -1.44857690370081     -1.07683132993673      1.14286295922873
  H   1.29543959466974      0.42332251787619     -0.73266492657858
  N   -1.43180821631537      0.47496050800457     -0.94861693432430
  H   -0.94894744466248      1.11545611620066     -1.56660515320654
  H   -1.77234816855646     -0.33598766763009     -1.44794874356240
  N   -0.40066877243231      1.42101052509570      0.95430644486574
  O   -0.78328415841723      1.51479947948667      2.10541713190986
  O   0.17268654967880      2.27756680199823      0.28545032646522
  C   0.71337246698274     -1.56223761687706     -1.04205126969867
  N   0.59849698452730     -2.48041408248806     -1.76489130388374
  C   1.59774002453494     -0.65597783106286      1.02702667343010
  N   2.22705723869143     -0.84188947264981      2.00098890077027
