14
Coordinates from ORCA-job run
  C   -0.64223107666491      0.18718639267999      0.30249604257081
  C   0.74386433763476     -0.53211879703990      0.42069027061207
  Cl  -1.62111714193589     -0.33444489446939      1.67663557274564
  H   1.15893013156767     -0.32404955108428      1.41217572223826
  N   -1.36332427994873      0.03430176932821     -0.89035961521241
  H   -0.89875087976012      0.43850181609725     -1.69268774629723
  H   -1.65455398976030     -0.92079679109049     -1.04793546198047
  N   -0.29425761231027      1.68280400347880      0.48313108524610
  O   0.28056437536918      1.96575220037140      1.52538372717245
  O   -0.56824921485000      2.43393111039588     -0.44100091657054
  C   1.63966936978858     -0.00288230869124     -0.60978256164160
  N   2.31072421495572      0.45840174587420     -1.45647411765013
  C   0.55064825753288     -1.97018454990326      0.24199324339785
  N   0.35708350838143     -3.11640214594717      0.07573475536921
