14
Coordinates from ORCA-job run
  C   -0.61138324972183      0.02538281475737      0.07419949660110
  C   0.84339395871813     -0.41549328276660     -0.21187117172702
  Cl  -1.45550233590359     -1.17186750998657      1.02297504297450
  H   1.30563108741462      0.38616087270715     -0.80117485115144
  N   -1.27937644570753      0.26802133357696     -1.14428523036466
  H   -0.88812769299184      1.07386732866240     -1.61844152069144
  H   -2.27718170411565      0.37912598027497     -1.01572851836534
  N   -0.44824583469289      1.34023159636383      0.92014199595977
  O   -0.86581017601999      1.40268885564495      2.06266875926935
  O   0.11142623088911      2.23130809535775      0.28392209686130
  C   0.85152347567315     -1.64906781960261     -0.99808804600493
  N   0.89321065489954     -2.63655482801616     -1.63126762970266
  C   1.60573948467540     -0.56688803708285      1.02930685726680
  N   2.21370254688337     -0.66791539989061      2.02864271907465
