19

C	0.0	0.0	0.0
C	-0.56418	0.003651	-1.43139
Br	1.97726	0.0	0.0
H	-1.647963	0.084818	-1.253084
C	-0.336096	1.262158	0.668247
N	-0.549399	2.28635	1.204491
C	-0.498963	-1.169869	0.835583
H	-1.594141	-1.149451	0.79121
H	-0.119151	-2.111337	0.437418
H	-0.169873	-1.06763	1.871283
C	-0.300724	-1.303062	-2.171195
H	-0.805905	-2.145364	-1.695867
H	-0.696605	-1.222429	-3.187239
H	0.770468	-1.518726	-2.240163
C	-0.113089	1.206298	-2.251318
H	-0.293158	2.144602	-1.72156
H	-0.685263	1.238416	-3.182615
H	0.949847	1.145486	-2.503346
Br	-3.949618	0.0	0.0
