19

C	0.0	0.0	0.0
C	-0.450973	-0.371186	-1.433394
Br	1.978178	0.0	0.0
H	0.146384	-1.254395	-1.696082
C	-0.391316	1.365957	0.340983
N	-0.693781	2.479461	0.568746
C	-0.488627	-0.979289	1.059364
H	-0.045395	-0.750479	2.030721
H	-1.577104	-0.906429	1.137408
H	-0.211966	-1.996464	0.771912
C	-0.154487	0.742041	-2.4362
H	-0.332194	0.371632	-3.449152
H	0.87725	1.097407	-2.378975
H	-0.826727	1.587973	-2.26927
C	-1.933158	-0.735856	-1.477182
H	-2.151537	-1.675878	-0.970259
H	-2.240823	-0.846326	-2.520905
H	-2.587166	0.016567	-1.029543
Br	-5.097938	0.0	0.0
