16

C	0.0	0.0	0.0
C	-0.617783	0.003715	-1.412364
Br	1.968395	0.0	0.0
H	-1.710647	0.144162	-1.10082
C	-0.360073	1.247548	0.681484
N	-0.548566	2.259799	1.248622
C	-0.482863	-1.196251	0.811784
H	-1.579259	-1.117095	0.764397
H	-0.115634	-1.126785	1.837172
H	-0.110425	-2.121599	0.368408
N	-0.499134	-1.2382	-2.151574
H	-1.169587	-1.892	-1.767392
H	0.434988	-1.626412	-2.066539
C	-0.131195	1.123552	-2.213212
N	0.234924	2.016659	-2.885375
F	-2.838687	0.0	0.0
