16

C	0.0	0.0	0.0
C	-0.365596	-0.181672	-1.544397
Br	1.962797	0.0	0.0
H	0.409895	0.373345	-2.084902
C	-0.394246	1.358598	0.372297
N	-0.637075	2.473107	0.656745
C	-0.621335	-1.027602	0.917745
H	-0.349717	-0.828511	1.956963
H	-0.291101	-2.030167	0.640124
H	-1.711743	-0.89626	0.770847
N	-1.651328	0.260266	-1.992923
H	-1.608463	1.269401	-2.08389
H	-2.391139	0.066046	-1.235655
C	-0.156525	-1.604124	-1.88145
N	0.027493	-2.728999	-2.164901
F	-3.149643	0.0	0.0
