16

C	0.0	0.0	0.0
C	-0.624101	0.049331	-1.39252
Br	1.957922	0.0	0.0
H	-1.734529	0.041448	-1.049826
C	-0.374384	1.208866	0.743281
N	-0.561254	2.184847	1.370642
C	-0.46624	-1.245828	0.750053
H	-1.560144	-1.167193	0.744983
H	-0.061921	-1.244812	1.764328
H	-0.126156	-2.129066	0.210581
N	-0.292925	-1.145222	-2.159209
H	-1.022757	-1.301343	-2.843785
H	0.584518	-1.018391	-2.651869
C	-0.316165	1.294704	-2.094636
N	-0.098122	2.263549	-2.727759
F	-2.846116	0.0	0.0
