16

C	0.0	0.0	0.0
C	-0.461347	0.04687	-1.489299
Cl	1.757771	0.0	0.0
H	0.453646	0.150297	-2.082273
H	-0.360171	0.878058	0.519941
N	-0.422851	-1.158189	0.858311
O	-0.720937	-0.886018	2.015493
O	-0.335922	-2.292106	0.398893
N	-1.20901	1.301478	-1.605308
H	-1.48985	1.395461	-2.577605
H	-2.053442	1.064248	-1.037757
C	-1.212053	-1.17666	-2.016984
H	-0.607368	-2.085061	-2.002779
H	-1.484678	-0.959481	-3.057459
H	-2.112042	-1.280811	-1.411478
F	-2.699549	0.0	0.0
