16

C	0.0	0.0	0.0
C	-0.490212	-0.046806	-1.470651
Cl	1.757412	0.0	0.0
H	-1.51475	-0.408977	-1.339722
H	-0.390808	0.844904	0.550461
N	-0.431387	-1.209157	0.778113
O	-0.511903	-2.275981	0.175216
O	-0.565853	-1.070357	1.987577
N	0.255918	-0.886209	-2.396626
H	0.231965	-1.833938	-2.039622
H	1.228496	-0.60102	-2.4347
C	-0.584593	1.383519	-1.969967
H	-1.368036	1.871402	-1.389017
H	-0.869717	1.374925	-3.024729
H	0.359712	1.934745	-1.873185
F	-2.551208	0.0	0.0
