15

C	-0.386079	0.010556	-1.464281
C	0.0	0.0	0.0
Cl	-2.196507	0.075485	-1.675283
H	1.100094	0.0	0.0
H	-0.08859	-0.941403	-1.910365
C	0.264229	1.170504	-2.18123
H	0.056864	1.137145	-3.253486
H	-0.098159	2.109357	-1.763643
H	1.342296	1.097695	-1.999778
C	-0.461822	-1.213512	0.674457
N	-0.821346	-2.176845	1.246277
N	-0.383736	1.228269	0.684179
H	-1.265198	1.124924	1.169326
H	0.347104	1.443653	1.354674
H	2.73533	0.0	0.0
