16

C	-0.445651	-0.002203	-1.446435
C	0.0	0.0	0.0
Br	-2.384766	0.255825	-1.630164
H	1.091763	0.0	0.0
H	-0.272337	-1.013547	-1.81249
C	0.309538	1.013119	-2.284232
H	0.074702	0.861837	-3.339303
H	0.048648	2.032729	-2.003536
H	1.380728	0.870005	-2.113485
N	-0.405488	-1.22021	0.763441
O	-0.968277	-2.131745	0.160067
O	-0.077137	-1.234737	1.943926
N	-0.492608	1.199712	0.735564
O	0.077897	2.249999	0.45985
O	-1.446547	1.074551	1.497759
Br	3.355562	0.0	0.0
