16

C	-0.552797	-0.05701	-1.408874
C	0.0	0.0	0.0
Br	0.122148	1.484707	-2.398212
H	1.087534	0.0	0.0
H	-1.636892	0.057213	-1.388981
C	-0.098368	-1.331906	-2.101015
H	-0.3809	-1.304883	-3.154192
H	-0.568806	-2.204368	-1.640402
H	0.985819	-1.430664	-2.018502
N	-0.49418	-1.219516	0.728166
O	0.282272	-2.15768	0.85548
O	-1.674146	-1.200566	1.08569
N	-0.519033	1.14755	0.807607
O	0.011137	1.293517	1.905614
O	-1.445157	1.818583	0.357481
Br	3.402678	0.0	0.0
