16

C	-0.540588	0.001296	-1.426914
C	0.0	0.0	0.0
Br	0.000719	1.63873	-2.382946
H	1.100292	0.0	0.0
H	-0.030578	-0.800272	-1.961373
C	-2.047521	-0.143462	-1.514892
H	-2.542628	0.675205	-0.991724
H	-2.327882	-1.088766	-1.044343
H	-2.380163	-0.155274	-2.554767
N	-0.406661	-1.273688	0.596059
H	-1.217992	-1.102034	1.180051
H	0.351481	-1.612049	1.176401
N	-0.556845	1.119445	0.773622
H	-0.020531	1.160466	1.634997
H	-0.337792	1.980005	0.279984
Br	3.655932	0.0	0.0
