16

C	-0.392438	-0.003773	-1.463196
C	0.0	0.0	0.0
Br	-2.381184	-0.043575	-1.631783
H	1.097842	0.0	0.0
H	-0.124232	0.96293	-1.888449
C	0.209024	-1.155434	-2.23299
H	-0.135783	-2.103106	-1.821625
H	1.295502	-1.09788	-2.104628
H	-0.037063	-1.098138	-3.295807
N	-0.40244	-1.249134	0.640571
H	-1.368575	-1.189848	0.942093
H	0.184476	-1.399784	1.451854
N	-0.418302	1.250116	0.626313
H	-1.39667	1.194613	0.890191
H	0.134561	1.388709	1.463812
Br	3.604869	0.0	0.0
