16

C	-0.320337	0.00126	-1.494417
C	0.0	0.0	0.0
Br	-2.26704	-0.143793	-1.827444
H	1.105982	0.0	0.0
H	-0.058132	0.977003	-1.911859
C	0.405379	-1.10167	-2.237528
H	0.235427	-1.034565	-3.313665
H	1.475855	-1.005457	-2.026815
H	0.065923	-2.082309	-1.897481
N	-0.432825	-1.167629	0.738307
H	0.223865	-1.923558	0.595908
H	-1.356449	-1.454493	0.436259
N	-0.571549	1.179084	0.645633
H	-0.381923	1.061275	1.634457
H	-0.041776	1.99067	0.343623
Br	3.641992	0.0	0.0
