16

C	-0.499665	-0.011098	-1.454799
C	0.0	0.0	0.0
Br	0.201229	1.550754	-2.415132
H	1.099765	0.0	0.0
H	-0.040981	-0.862412	-1.96719
C	-2.009943	-0.043445	-1.604878
H	-2.400427	-0.880912	-1.023602
H	-2.294034	-0.153272	-2.653337
H	-2.459889	0.883469	-1.239115
N	-0.523184	-1.232815	0.620294
H	0.060892	-2.001564	0.300808
H	-0.323425	-1.124464	1.609321
N	-0.443723	1.110821	0.815834
H	0.109664	1.928233	0.590521
H	-1.422456	1.315433	0.648191
Br	3.695668	0.0	0.0
