18

C	-0.559069	-0.011758	-1.447664
C	0.0	0.0	0.0
Br	0.369383	-1.355738	-2.510095
H	1.096307	0.0	0.0
C	-2.046735	-0.282067	-1.531162
H	-2.229867	-1.29251	-1.176487
H	-2.396862	-0.171577	-2.558323
H	-2.602609	0.410521	-0.898442
N	-0.244985	1.347328	-2.048395
O	-1.179378	2.153065	-2.071526
O	0.906746	1.591256	-2.37701
N	-0.5296	-1.191944	0.675621
H	-0.357686	-1.015079	1.659446
H	0.065174	-1.973723	0.416179
N	-0.411593	1.171749	0.745953
H	0.271935	1.905017	0.619282
H	-1.326902	1.510633	0.483802
Cl	3.447805	0.0	0.0
