18

C	-0.393694	0.055168	-1.491419
C	0.0	0.0	0.0
Br	-2.349025	0.24609	-1.675985
H	1.09422	0.0	0.0
C	0.295412	1.190562	-2.205627
H	0.067765	1.183317	-3.272323
H	1.372163	1.083068	-2.05214
H	-0.039938	2.118786	-1.748558
N	-0.042363	-1.270073	-2.162067
O	0.932676	-1.270633	-2.908624
O	-0.718528	-2.259808	-1.88749
N	-0.46025	-1.162649	0.735189
H	0.268047	-1.865275	0.733332
H	-1.285728	-1.566352	0.310346
N	-0.41758	1.265839	0.595565
H	-1.283063	1.097548	1.096845
H	0.28587	1.50002	1.287444
Cl	3.368168	0.0	0.0
