18

C	-0.415202	-0.077063	-1.483041
C	0.0	0.0	0.0
Br	0.154164	1.52876	-2.44018
H	1.099763	0.0	0.0
C	0.207187	-1.27918	-2.151559
H	-0.089887	-1.340116	-3.200751
H	-0.107597	-2.174876	-1.621232
H	1.291991	-1.171235	-2.070705
N	-1.934728	-0.134342	-1.557889
O	-2.569652	0.905886	-1.421351
O	-2.433736	-1.253799	-1.665783
N	-0.420949	-1.229112	0.653266
H	0.321271	-1.545716	1.261811
H	-1.249295	-1.033648	1.203091
N	-0.577377	1.157722	0.685904
H	-0.527547	1.974427	0.087077
H	0.033537	1.346477	1.474829
Cl	3.411147	0.0	0.0
