18

C	-0.546209	-0.000879	-1.445038
C	0.0	0.0	0.0
Br	0.297904	-1.431745	-2.472868
H	1.094838	0.0	0.0
C	-2.051159	-0.130913	-1.54423
H	-2.370027	-1.101981	-1.164114
H	-2.368727	-0.048595	-2.581236
H	-2.498576	0.663184	-0.944045
N	-0.146932	1.290837	-2.160945
O	0.728269	1.980923	-1.652237
O	-0.727111	1.54787	-3.213402
N	-0.37911	-1.18507	0.747313
H	-1.302765	-1.521744	0.515066
H	0.300071	-1.913346	0.579747
N	-0.583188	1.169153	0.670589
H	-0.591974	0.924774	1.65442
H	0.067995	1.938092	0.55746
Cl	3.474852	0.0	0.0
