18

C	-0.389748	-0.051602	-1.503229
C	0.0	0.0	0.0
Br	0.408112	1.462899	-2.42876
H	1.101874	0.0	0.0
C	0.0877	-1.323479	-2.171729
H	-0.39639	-2.184705	-1.713163
H	1.16924	-1.385259	-2.028435
H	-0.13912	-1.309873	-3.239595
N	-1.903831	0.056733	-1.607942
O	-2.507636	-0.96038	-1.2484
O	-2.443644	1.092209	-1.966629
N	-0.403738	-1.154326	0.770001
H	-1.332601	-1.469371	0.521785
H	0.269003	-1.899018	0.65357
N	-0.628558	1.169931	0.602624
H	-0.150369	2.003363	0.278009
H	-0.446301	1.08581	1.595837
Cl	3.439624	0.0	0.0
