16

C	-0.516584	-0.154992	-1.411693
C	0.0	0.0	0.0
F	-1.822967	-0.618878	-1.408309
H	1.090468	0.0	0.0
H	-0.308323	-0.917465	0.521953
N	-0.578487	1.213857	-2.064287
O	-1.678771	1.701934	-2.295766
O	0.503116	1.73355	-2.307749
C	0.339161	-1.06445	-2.254368
H	0.279984	-2.071579	-1.835628
H	1.377095	-0.730183	-2.200046
H	-0.022934	-1.087014	-3.285716
N	-0.489212	1.221748	0.630767
H	0.282919	1.626576	1.145931
H	-1.244286	1.032122	1.273969
H	2.962538	0.0	0.0
