16

C	-0.467696	-0.068142	-1.432403
C	0.0	0.0	0.0
F	-1.85278	-0.195762	-1.500619
H	1.090254	0.0	0.0
H	-0.378795	0.920383	0.456418
N	-0.209656	1.289369	-2.081795
O	-0.851205	2.234151	-1.624962
O	0.591216	1.364425	-3.009409
C	0.184263	-1.164263	-2.217948
H	-0.088992	-2.100458	-1.732196
H	-0.156287	-1.158809	-3.254155
H	1.267584	-1.037166	-2.166537
N	-0.415722	-1.221759	0.692623
H	-1.212332	-1.046632	1.288981
H	0.363222	-1.515217	1.271054
H	2.929295	0.0	0.0
