16

C	-0.414977	-0.010181	-1.444877
C	0.0	0.0	0.0
F	-0.154335	-1.239623	-1.993245
H	1.093564	0.0	0.0
H	-0.35322	0.934091	0.443177
N	-1.928759	0.168012	-1.553696
O	-2.595581	-0.709461	-2.087777
O	-2.373208	1.220698	-1.09946
C	0.271716	1.05235	-2.263746
H	-0.009436	2.040723	-1.906744
H	1.348547	0.912029	-2.127104
H	-5.2e-05	0.94935	-3.317334
N	-0.612884	-1.136786	0.701815
H	-0.469335	-0.984096	1.693547
H	-0.048341	-1.947743	0.475004
H	3.01819	0.0	0.0
