16

C	-0.438787	-0.175695	-1.426913
C	0.0	0.0	0.0
F	-0.313489	-1.502304	-1.800433
H	1.093404	0.0	0.0
H	-0.3735	-0.838151	0.594889
N	-1.955934	0.058835	-1.529606
O	-2.646836	-0.354619	-0.598735
O	-2.403728	0.584455	-2.547285
C	0.301494	0.701345	-2.389773
H	0.09324	1.744036	-2.152959
H	0.007743	0.488473	-3.417262
H	1.366958	0.511184	-2.229741
N	-0.446399	1.316575	0.465793
H	-1.222629	1.220651	1.106024
H	0.329382	1.744221	0.958643
H	2.961929	0.0	0.0
