16

C	-0.516451	-0.014258	-1.455125
C	0.0	0.0	0.0
F	0.024021	-1.103684	-2.105487
H	1.091441	0.0	0.0
C	-2.029822	-0.107137	-1.558052
H	-2.504852	0.737113	-1.056721
H	-2.312531	-0.108197	-2.611968
H	-2.370182	-1.036265	-1.098207
C	-0.042302	1.208582	-2.131711
N	0.242614	2.184597	-2.719763
N	-0.488053	-1.243819	0.686647
O	-1.458238	-1.143306	1.440183
O	0.099639	-2.280799	0.406358
C	-0.507418	1.176002	0.69071
N	-0.90989	2.15278	1.204764
Br	3.318002	0.0	0.0
