16

C	-0.484151	0.023108	-1.448159
C	0.0	0.0	0.0
F	-1.866493	-0.167965	-1.462178
H	1.095445	0.0	0.0
C	-0.171694	1.365497	-2.086545
H	-0.472833	1.339735	-3.135001
H	0.900593	1.563488	-2.013047
H	-0.729554	2.149009	-1.571757
C	0.125711	-1.043494	-2.262377
N	0.574358	-1.797426	-3.044263
N	-0.421137	-1.256837	0.710162
O	-0.662889	-1.170256	1.909532
O	-0.440841	-2.286425	0.045456
C	-0.502471	1.150058	0.73758
N	-0.892773	2.116321	1.279779
Br	3.273109	0.0	0.0
