16

C	-0.500001	-0.007075	-1.461213
C	0.0	0.0	0.0
F	-0.032416	-1.159313	-2.062914
H	1.093263	0.0	0.0
C	-2.012724	0.016291	-1.602833
H	-2.428101	0.921213	-1.157861
H	-2.442412	-0.855263	-1.108554
H	-2.263186	-0.011494	-2.664776
C	0.080821	1.156437	-2.156457
N	0.444714	2.110325	-2.737051
N	-0.497628	-1.250657	0.668985
O	-1.571339	-1.18695	1.271966
O	0.189097	-2.253763	0.527379
C	-0.511304	1.168593	0.699644
N	-0.925904	2.116697	1.256003
Br	3.329783	0.0	0.0
