16

C	-0.513079	0.036262	-1.455997
C	0.0	0.0	0.0
F	0.034938	-1.026814	-2.142473
H	1.092971	0.0	0.0
C	-2.025849	-0.060062	-1.568359
H	-2.303758	-0.022408	-2.622876
H	-2.363861	-1.007298	-1.145116
H	-2.507044	0.762638	-1.037544
C	-0.04473	1.28546	-2.086286
N	0.222889	2.285581	-2.641262
N	-0.48793	-1.2698	0.637666
O	0.118946	-2.290761	0.339525
O	-1.478458	-1.203556	1.368968
C	-0.511742	1.148055	0.732919
N	-0.914047	2.096393	1.297622
Br	3.318828	0.0	0.0
