14
Coordinates from ORCA-job run
  C   0.46411135075108      0.16552334727915     -0.30774824879390
  C   -0.69339300858353     -0.76016538044224     -0.04443672419093
  F   0.43689755383270      0.65660006903938     -1.55095247245240
  H   -0.58582774493884     -1.15158633268558      0.96508817086476
  H   -0.61185998811254     -1.59940687801088     -0.74697028645335
  N   0.43571012560006      1.32583624874593      0.67319046968941
  O   0.53411270814410      0.98535994263844      1.84550938428999
  O   0.31716985833873      2.44898101668311      0.21854216960707
  N   1.82329712307790     -0.47872286836906     -0.10532794616724
  O   1.84382833435075     -1.59201223781196      0.40731037977868
  O   2.77895158490953      0.19096314499501     -0.47647146518588
  N   -1.89951857236303      0.04140495609252     -0.14604348733980
  H   -2.19077708867788      0.14576238735093     -1.10807273462770
  H   -2.65370223632903     -0.37953741550476      0.37638279098130
