14
Coordinates from ORCA-job run
  C   0.53674705904983     -0.12716533007774      0.27185783333327
  C   -0.70218044058642     -0.59557610748765     -0.45566574068759
  F   0.77359297480007     -0.83469747883808      1.38087955167447
  H   -0.58603055768833     -1.66901332472068     -0.62168664390427
  H   -0.73304591161653     -0.10868243018528     -1.43004726890230
  N   1.79829822911245     -0.20032272001274     -0.56832752694869
  O   1.76408114247622     -0.94567990461287     -1.54228353744343
  O   2.75522078197459      0.44627132126107     -0.15992370691525
  N   0.39031686551020      1.33308738575715      0.64220405599681
  O   0.15764874641383      2.06035905798621     -0.31715072862831
  O   0.50547736081262      1.64439283396736      1.81340525744204
  N   -1.84139053156867     -0.26088063006071      0.38101579297381
  H   -2.49111340061485      0.34037133929017     -0.10186746440659
  H   -2.32762231807501     -1.08146401226620      0.70659012641603
