14
Coordinates from ORCA-job run
  C   0.63632193147833     -0.09299837776814      0.39864791241007
  C   -0.68030013133365     -0.82431465025833      0.29092166409294
  F   1.41143953787145     -0.61516552286484      1.35884099234088
  H   -0.46375620934787     -1.83649920276373     -0.07428096260969
  H   -1.03705687437336     -0.90263265140401      1.32058204608452
  N   1.44410087030720     -0.10012771292979     -0.88412067173042
  O   2.62534244675483      0.19275842118688     -0.77137910243071
  O   0.84523003985758     -0.40005692368878     -1.91206799550269
  N   0.37856781717151      1.36642907401463      0.73316297279346
  O   -0.00745052387959      1.55135048462590      1.87784092053081
  O   0.53987247923934      2.19113046532772     -0.15310511179991
  N   -1.62054056792082     -0.04780163892632     -0.48740515936960
  H   -2.57040041222703     -0.26165500194866     -0.22186519388454
  H   -1.49937040359791     -0.22041676260253     -1.47477231092511
