14
Coordinates from ORCA-job run
  C   0.47296998070574      0.16763597956904     -0.29208032632790
  C   -0.70332118001873     -0.74803303874536     -0.08343201190027
  F   0.48068585353073      0.69750533702616     -1.51985470462207
  H   -0.62354116701916     -1.17351907598345      0.91494739404570
  H   -0.61903888475578     -1.56554717476256     -0.81076745530950
  N   0.43993037039636      1.29668636069258      0.72401526818664
  O   0.51748235187475      0.91772947665445      1.88612761301236
  O   0.33768663727497      2.43472837858078      0.30397972443101
  N   1.81797658251856     -0.50225213658115     -0.08080255269522
  O   1.81290675178267     -1.64114983663990      0.37250995064484
  O   2.79059913366624      0.17552123738787     -0.38805988029479
  N   -1.89500908668712      0.07517873479292     -0.18342806942146
  H   -2.16019595502214      0.22033865077462     -1.14773526425956
  H   -2.66813138824709     -0.35382289276599      0.30358031451021
