14
Coordinates from ORCA-job run
  C   0.50975804641211     -0.02723420151718      0.27636869035838
  C   -0.71067439686497     -0.67129512529661     -0.32477615381143
  F   0.68268088674961     -0.38223202490061      1.55399266075198
  H   -0.76574062173871     -0.37392192308515     -1.37009955294590
  H   -0.56383973424317     -1.75821913277898     -0.28623915803189
  N   1.79800539036823     -0.34604376762662     -0.45931038955974
  O   1.70303189843465     -0.94940165595049     -1.52211140723283
  O   2.82105172413764      0.04043176115035      0.09186106071566
  N   0.38826178439886      1.48551063692113      0.20474294072461
  O   0.37268772431597      2.10340519552000      1.25354658025286
  O   0.31254565815094      1.92140256764429     -0.93735778632030
  N   -1.85561690125126     -0.15547905638856      0.40381059695427
  H   -2.69491340729484     -0.22540968159279     -0.15263230084729
  H   -1.99723805157507     -0.65951359209879      1.26820421899163
