14
Coordinates from ORCA-job run
  C   0.60714735183513     -0.23019282002717      0.38839393620031
  C   -0.79736176050822     -0.74632763432816      0.18518243129217
  F   1.27708078182953     -0.96934882274305      1.28284007006983
  H   -1.18503856651588     -0.89464079335151      1.19578846329776
  H   -0.71783341469769     -1.72846464105336     -0.29858361379211
  N   1.43540283377551     -0.20112282164501     -0.88084621240390
  O   0.82400985239040     -0.28447562831143     -1.94131577739677
  O   2.64346005370977     -0.09743344108431     -0.72635949035074
  N   0.55232750973364      1.20092578377888      0.89522001881121
  O   0.17204848487702      1.30254902994798      2.05220377960741
  O   0.84672971565687      2.09293727615235      0.11460713568700
  N   -1.60030333622248      0.24387333829924     -0.49847633770099
  H   -1.47960706289023      0.17656825195648     -1.49863840327916
  H   -2.57706244297339      0.13515292240906     -0.26901600004204
