14
Coordinates from ORCA-job run
  C   0.55933907839739     -0.16663058430261      0.48133578342220
  C   -0.79754800377914     -0.75029318112764      0.16744324518328
  F   1.22468364996028     -0.91999596973374      1.36731248387016
  H   -0.60411969271734     -1.80795473917576     -0.02633830145601
  H   -1.40464594114931     -0.67463180249883      1.07884616999328
  N   1.38301932547513     -0.08628206780110     -0.79265710391265
  O   1.55205876399236      1.01511565381752     -1.29271625686386
  O   1.76374161941095     -1.17161537578901     -1.20574618423002
  N   0.50264035104845      1.24083794073355      1.04136577423324
  O   -0.54920021952041      1.85385253542811      0.88909531105109
  O   1.51785526770737      1.63451484183726      1.59667791158812
  N   -1.34410694792657     -0.13454168097696     -1.02197926101744
  H   -1.98582681043588     -0.75912223909901     -1.48740826859596
  H   -1.81789044046328      0.72774666868823     -0.79523130326543
