14
Coordinates from ORCA-job run
  C   0.64057508148615     -0.08481884482157      0.39377447188570
  C   -0.66872131199703     -0.83113612370815      0.29987401013192
  F   1.42913524312372     -0.59375789865032      1.34984489954207
  H   -0.44444778961352     -1.84222858822172     -0.06388020722340
  H   -1.01510821341163     -0.90960432889583      1.33304975268542
  N   1.43797795382219     -0.08835062838733     -0.89579913737868
  O   2.61873490997492      0.21028374706355     -0.79330653924518
  O   0.83137471158427     -0.38918170909507     -1.91890466100245
  N   0.36878439117130      1.37313351814608      0.72400078295674
  O   0.51734489547471      2.19659449842512     -0.16564776565475
  O   -0.01349747891019      1.55747633442743      1.87004579783187
  N   -1.62479576796474     -0.06729629995204     -0.47174830426822
  H   -2.56977614672051     -0.29516145155230     -0.20035981656894
  H   -1.50758047801963     -0.23795222477785     -1.45994328369209
