14
Coordinates from ORCA-job run
  C   0.64552321143734     -0.10828821780565      0.37937659947939
  C   -0.68989588037425     -0.80964964633630      0.30994902688008
  F   1.51584176781497     -0.78246453244046      1.14288251545804
  H   -1.13725672638531     -0.76292942844485      1.31125216677198
  H   -0.44216833771386     -1.85189293618924      0.09557979759542
  N   1.22773702356779      0.00981154220220     -1.01906218385325
  O   1.61793892308432     -1.05120424773551     -1.48331808559517
  O   1.22056194848363      1.11030447462471     -1.54867028073204
  N   0.56504599680179      1.30279840149835      0.92821422415569
  O   -0.54499678678664      1.82494219688378      0.94752265612084
  O   1.62141539723746      1.79009102392006      1.30305244257077
  N   -1.48161085312168     -0.27019806233008     -0.77407394590145
  H   -1.98086045824949      0.55596123940168     -0.47809881567441
  H   -2.13827522579609     -0.95628180724869     -1.11560611727588
