14
Coordinates from ORCA-job run
  C   0.50487680514742     -0.16927911502178      0.31005405273420
  C   -0.70459428821095     -0.50701047204806     -0.53228056128516
  F   0.63580111693295     -0.96319119831027      1.36488264461052
  H   -0.67437530722563      0.10163920411166     -1.43750377577341
  H   -0.58314004949623     -1.55651789363588     -0.81743668059607
  N   1.77953751730851     -0.25533341122606     -0.52009625357144
  O   1.85145464852018      0.55623356326779     -1.43632277169245
  O   2.57866877894492     -1.13174683891246     -0.22809697135483
  N   0.46240716205350      1.26792807273735      0.80518812428120
  O   1.16223636700887      1.51268852102713      1.77849166178544
  O   -0.23888910409100      2.04885548222040      0.17384258899875
  N   -1.88578615911311     -0.31864590907293      0.28677725873023
  H   -2.51112584180415     -1.10703163175705      0.22724490862794
  H   -2.37807164597530      0.52241162662015      0.02525577450511
