14
Coordinates from ORCA-job run
  C   0.47935279865761     -0.15290898647006      0.28980460488942
  C   -0.74385141163115     -0.48436148812362     -0.52242876051553
  F   0.50803264752589     -0.82507565317768      1.44522764655707
  H   -0.68126845418706      0.06380042911224     -1.46032724515547
  H   -0.70887861172117     -1.55723642375332     -0.75071235247346
  N   1.78698663052675     -0.43233342313030     -0.42840237504934
  O   1.72172239114577     -0.72974195333671     -1.61581235172966
  O   2.79341255217345     -0.32637401612747      0.26113300841822
  N   0.51538616027655      1.33537185335573      0.59270845077271
  O   0.57460238969448      2.04204533581393     -0.40587255890796
  O   0.47909617111122      1.67686792099729      1.76075353979256
  N   -1.88948610704418     -0.03252030891711      0.24677210259556
  H   -2.15429996834957     -0.71435898114655      0.94413913953408
  H   -2.68080718817862      0.13582569490363     -0.35698284872820
