14
Coordinates from ORCA-job run
  C   0.43065783255183      0.09682697706307     -0.32659213338900
  C   -0.68705152887491     -0.87598264136037     -0.00959433469265
  F   0.38679647028568      0.50954043739686     -1.59979936873414
  H   -0.56604390965437     -1.72783644286443     -0.68292923233196
  H   -0.55412041311298     -1.23674184951230      1.00940725752040
  N   0.32344820359306      1.30962615514281      0.57537459168391
  O   0.01043307867318      2.37332179041820      0.06487877902855
  O   0.51757142444757      1.06789578877939      1.76137393083047
  N   1.82638434629256     -0.44497233312899     -0.08246341836220
  O   2.73660593298037      0.33958716794582     -0.31868325780444
  O   1.91783879406129     -1.60560212061591      0.30048297168676
  N   -2.00496158881818     -0.30454994264705     -0.16740715274922
  H   -2.12226754065055      0.12326175244461     -1.07584485443006
  H   -2.21629110177454      0.37462526093828      0.55079622174358
