14
Coordinates from ORCA-job run
  C   0.43189169455348      0.18094643209576     -0.34422837526934
  C   -0.72939825500761     -0.72623623179398     -0.03694594143669
  F   0.28218995721191      0.80267898565673     -1.51839162869548
  H   -0.77232435155049     -1.48719318733039     -0.82663880677782
  H   -0.52144403381987     -1.22818130808597      0.90586010470860
  N   0.57499918610852      1.22967394058026      0.74582920204397
  O   0.45135686735739      2.39829709414543      0.42767944225935
  O   0.80060566072710      0.76211390641905      1.85511293944303
  N   1.77306504316398     -0.52846416249612     -0.37591670194993
  O   1.79989119523065     -1.69474328989580      0.00049705114801
  O   2.71097875556744      0.14856228816129     -0.77807270879764
  N   -1.89903401270014      0.12365654123228      0.09458904979103
  H   -2.29544244113904      0.34387159201015     -0.80854678881842
  H   -2.60633526570333     -0.32598260069869      0.65717316235133
