14
Coordinates from ORCA-job run
  C   0.56474552717333     -0.12823372576373      0.20982976337912
  C   -0.75063101568109     -0.56269322852546     -0.39653483482100
  F   0.94965104102204     -0.90338012619129      1.21540005184612
  H   -0.93546104744646      0.04179521136942     -1.28626957410541
  H   -0.60299345129941     -1.60087477302519     -0.70943287906183
  N   1.66496811107102     -0.12177058338738     -0.84365085949094
  O   1.50632711516292      0.69279092687206     -1.74635489322513
  O   2.56591214063456     -0.93676610323095     -0.71702730153829
  N   0.50713354854862      1.30466989352145      0.71616939134716
  O   -0.36468571520593      2.02334100449608      0.24322844151185
  O   1.36348840228925      1.60982880553295      1.53512548593913
  N   -1.77036326228890     -0.46439178781778      0.62806506560925
  H   -2.33811420521536     -1.29590622320025      0.67346417350446
  H   -2.35997718876460      0.34059070935008      0.47898796910551
