14
Coordinates from ORCA-job run
  C   0.49769487229227     -0.12344974234161      0.27249244676719
  C   -0.76750074861515     -0.53310853061087     -0.43278026511300
  F   0.60295327340872     -0.69183447769266      1.47820837989609
  H   -0.73334452862075     -1.62170445777194     -0.56769468343320
  H   -0.76654379923597     -0.06951956310445     -1.41725958010810
  N   1.76358393227189     -0.45611986840423     -0.49583878373208
  O   2.80789218678072     -0.27710626858954      0.11823480279195
  O   1.63183739550036     -0.86461956509959     -1.64405590888027
  N   0.53387913829690      1.38578447431992      0.44204629368395
  O   0.56016524363747      1.82808985980534      1.57600346854384
  O   0.52631335960261      2.00240884243885     -0.61615804313427
  N   -1.87084730792343     -0.02297181223617      0.36085857760915
  H   -2.08530314964173     -0.64132141662169      1.13084025490178
  H   -2.69877986775390      0.08747252590862     -0.20589695979302
