14
Coordinates from ORCA-job run
  C   0.61203547593680     -0.00158407520501      0.39140763487015
  C   -0.58230941390061     -0.94957223900937      0.41410729491295
  F   1.55892027341731     -0.41456932557631      1.24304983434574
  H   -0.95490056024141     -0.93147239734973      1.44132507450708
  H   -0.15206271290022     -1.94147344031967      0.24192380086536
  N   1.20714008290660      0.07575109966387     -0.99599015572334
  O   0.61333690240766      0.81331128444991     -1.77602383632351
  O   2.15991092892014     -0.65297234296341     -1.22747977420612
  N   0.28779485304594      1.43251336947793      0.76387807220372
  O   -0.87729727660669      1.69608465084696      1.04263178193092
  O   1.24666369654895      2.19266545586011      0.78163081748830
  N   -1.66402794793456     -0.71694521678602     -0.50230683264298
  H   -2.07869324174421      0.19066364482573     -0.34961003263308
  H   -1.37651105985573     -0.79240046791496     -1.46754367959519
