14
Coordinates from ORCA-job run
  C   0.43839293429997      0.27457007225529     -0.33436819828357
  C   -0.69742138082466     -0.71482744856862     -0.20225387568639
  F   0.34044730315626      1.02924519218568     -1.42109623196055
  H   -0.48227424050130     -1.37549142909550      0.63919330238039
  H   -0.68043182361229     -1.30901870703427     -1.12104909890207
  N   0.52563863397230      1.19644957799445      0.87220648091303
  O   0.00910576005630      0.79891416426374      1.90925711286616
  O   1.13424630909811      2.24292659093881      0.69487708942091
  N   1.78006150407019     -0.44665738074678     -0.36677467682250
  O   2.05891222836471     -1.05745010860119      0.65922091023289
  O   2.42476806923524     -0.38345839963249     -1.40226408854946
  N   -1.93206663954067      0.03530876253183     -0.08531289872588
  H   -2.64440776939174     -0.31732646280923     -0.70519247771237
  H   -2.27497088838244      0.02481557631828      0.86355665082942
