14
Coordinates from ORCA-job run
  C   0.59612240933136     -0.14075786817187      0.38992476984549
  C   -0.73096190467914     -0.88683391718124      0.30270558009931
  F   1.44939565808092     -0.78741798650920      1.19380322499016
  H   -1.11674001148023     -0.92432247203924      1.32448062809467
  H   -0.45682554986918     -1.90871140704222      0.02107959912507
  N   1.22562602897844     -0.00689934254075     -0.97825070103311
  O   0.76699020164735      0.89208945865217     -1.67570123585549
  O   2.06296883714531     -0.84254527776256     -1.28280207703404
  N   0.49108414001236      1.27708491662203      0.91774517446229
  O   1.55516408521112      1.87296416851616      1.01846541986850
  O   -0.62387950681331      1.68571404618777      1.22514229449567
  N   -1.74565060525244     -0.38755874490143     -0.58371591217962
  H   -1.45035018580683     -0.38961417869708     -1.54961937126134
  H   -2.02294359650573      0.54780860486746     -0.32425739361757
