14
Coordinates from ORCA-job run
  C   0.59381315494513     -0.12664325610962      0.39838036381594
  C   -0.71354356551636     -0.90443159278638      0.29226105530674
  F   1.40323663702636     -0.68534719051343      1.30675165538416
  H   -1.08411744236015     -0.96589980911235      1.32065449340432
  H   -0.43213528121220     -1.91556152740858     -0.01217315324287
  N   1.38421018361651     -0.03897234219651     -0.89291915672282
  O   0.91556729399894     -0.59214880208822     -1.88235547318086
  O   2.44904880629912      0.55821138478198     -0.80947108254853
  N   0.33205041492261      1.30760727733991      0.79902616149624
  O   -0.03064176060836      2.04402663862697     -0.11261553699861
  O   0.42963371643796      1.57349239386635      1.98729396579463
  N   -1.74530215718298     -0.40377995207579     -0.57343578065945
  H   -2.07662647506038      0.50819194478783     -0.29289288649310
  H   -1.42419352530619     -0.35974516711219     -1.52950462535580
