14
Coordinates from ORCA-job run
  C   0.49044467382811     -0.14771028048389      0.27353366252066
  C   -0.75481313165307     -0.49232736003943     -0.49867572246185
  F   0.56496800760765     -0.82124798481575      1.42615172580476
  H   -0.72901508807416      0.05689179129013     -1.43768505932592
  H   -0.71501053923811     -1.56469965076403     -0.72872174654844
  N   1.77697609701061     -0.41038203558785     -0.48765667738850
  O   1.67639158636217     -0.70798391230597     -1.67252851311443
  O   2.80409090864960     -0.29258844941267      0.16861724033852
  N   0.51874416731250      1.34054124484699      0.57804368829022
  O   0.53825623168700      2.04919655990043     -0.42067351060690
  O   0.51455764948115      1.67992588877981      1.74718945622894
  N   -1.87990814206808     -0.05443310090621      0.30785776259949
  H   -2.69292500656968      0.10405703191256     -0.26912472393466
  H   -2.11275741433568     -0.73923974241412      1.01367241759811
