14
Coordinates from ORCA-job run
  C   0.45742408116507      0.18846436262397     -0.30489561483962
  C   -0.71318489362748     -0.73615697560332     -0.10241043197425
  F   0.40212214040994      0.81199427003341     -1.48570506827584
  H   -0.58297375326405     -1.23683110402393      0.85467704510758
  H   -0.67423638087695     -1.49603380013821     -0.89342785681696
  N   0.49003110873042      1.23579408057015      0.79618727236221
  O   0.61231076347800      0.76746501203152      1.92121458970504
  O   0.39171766781161      2.40443120109520      0.46919933840802
  N   1.80637332491400     -0.50231777430792     -0.21963782679653
  O   1.81836358769061     -1.65926619054352      0.18540861360949
  O   2.76435386570914      0.17922570576561     -0.56234229431906
  N   -1.90195414724602      0.09663450083787     -0.07713521663524
  H   -2.22544632247403      0.30383676263883     -1.01171816818488
  H   -2.64690104242026     -0.35724005097965      0.43058561865003
