14
Coordinates from ORCA-job run
  C   0.47229192822924     -0.04994281314837      0.22896513768660
  C   -0.77719826420857     -0.69158625283960     -0.34491930803700
  F   0.69161172686148     -0.42516152483392      1.49306014738567
  H   -0.90772557065271     -0.33150445057561     -1.36454172478206
  H   -0.56563618653925     -1.76521249859722     -0.38769409890786
  N   1.68651937702688     -0.41134120189656     -0.60567127652665
  O   2.49557699488924     -1.18360057182279     -0.11650443876954
  O   1.69275495829036      0.08531578774454     -1.72659649211395
  N   0.43920508155109      1.47011370019531      0.21393080861070
  O   -0.45255934558965      2.00784686777758     -0.43279071515382
  O   1.32815883193860      2.01653862814137      0.85426219432106
  N   -1.97855168731269     -0.46815254593116      0.41962544260360
  H   -1.86782300261492     -0.75803589155082      1.38150368852349
  H   -2.25562484186910      0.50272276733723      0.38637063515976
