14
Coordinates from ORCA-job run
  C   0.58939250841265     -0.12943979139106      0.40493954791239
  C   -0.72310731086621     -0.89707866921496      0.29008316060853
  F   1.38537630519901     -0.68898702791138      1.32453641527089
  H   -1.10442501958985     -0.95022995525406      1.31497673328676
  H   -0.44759920000591     -1.91213484615418     -0.00663674312286
  N   1.39329067445125     -0.05505603050398     -0.87880535359781
  O   2.46242674487509      0.53326914230665     -0.78706717599036
  O   0.93035110201115     -0.60960818141010     -1.87015324318451
  N   0.33372564969731      1.30885933198332      0.79516054589685
  O   0.41263502048558      1.57773153504351      1.98424854102039
  O   -0.00809823715722      2.04502119536776     -0.12467079769989
  N   -1.74162807750651     -0.39176626960812     -0.58832100321553
  H   -1.41122477727242     -0.35487643742539     -1.54143704213931
  H   -2.07011538273390      0.52329600417199     -0.31485358504553
