14
Coordinates from ORCA-job run
  C   0.59838936459867     -0.12660479442455      0.39214848446424
  C   -0.71669472939072     -0.89439301099232      0.31350790188363
  F   1.46207697507713     -0.75018484856636      1.20303300019259
  H   -1.10298876231418     -0.92565714544914      1.33531362433460
  H   -0.42669212575853     -1.91520270852511      0.04428391650824
  N   1.22469621922013      0.00034873748321     -0.97823997176650
  O   0.75697209308387      0.88782827990639     -1.68427252971775
  O   2.06797475782136     -0.83191428314458     -1.27601058805389
  N   0.47117058737241      1.29550688835307      0.90321136895767
  O   -0.65000611414028      1.69081210139201      1.20538529509038
  O   1.52629142222830      1.90814351868898      0.99803687967528
  N   -1.73784723920977     -0.42117787436621     -0.57958497013461
  H   -2.02995233003014      0.51286384418616     -0.33220756869538
  H   -1.44339011855826     -0.43236870454156     -1.54560484273850
