14
Coordinates from ORCA-job run
  C   0.48714110506786     -0.12865141177422      0.28925546561672
  C   -0.75898297077687     -0.52660357628590     -0.45552939338184
  F   0.54697751277989     -0.69447588746412      1.49942771415941
  H   -0.73409995993892     -1.61637290741231     -0.58250235636851
  H   -0.71967824975876     -0.06971064271001     -1.44230632220343
  N   1.77397671560376     -0.47755429495344     -0.43582728564726
  O   1.67516336042589     -0.89833539772194     -1.58295347673263
  O   2.79985709001462     -0.29931308977024      0.20868962453461
  N   0.53400922315809      1.38044472695723      0.45543959161145
  O   0.56787153417638      1.99327466927899     -0.60448723199172
  O   0.52931169707310      1.82668043943015      1.58811998704494
  N   -1.88174736717743      0.00173255346892      0.29813870054283
  H   -2.13224382702111     -0.61164243155282      1.06117166929492
  H   -2.68755586362650      0.12252725050969     -0.29763668647950
