14
Coordinates from ORCA-job run
  C   0.50838051270440     -0.14995652821090      0.31409070675983
  C   -0.70935387113950     -0.54026351411978     -0.49292497202217
  F   0.65269360204004     -0.87716128572419      1.41414500260603
  H   -0.58835405773404     -1.60483304305014     -0.71552370233893
  H   -0.69028374036701      0.01240910670630     -1.43363480960317
  N   1.77449879860064     -0.28353238322774     -0.52263444584614
  O   2.58717595317569     -1.12766311730766     -0.17771864908110
  O   1.82780905438602      0.46181350681523     -1.49481758878963
  N   0.46841078270928      1.31506954734209      0.72087466446002
  O   -0.24419976653042      2.05461604466731      0.05333706472244
  O   1.18134574181375      1.62040943413725      1.66723850701969
  N   -1.88216463966765     -0.30586788850995      0.32573622897073
  H   -2.37641170348414      0.52047582122472      0.02431980453696
  H   -2.50854666650706     -1.09551570074252      0.31751218860544
