14
Coordinates from ORCA-job run
  C   0.47286285920026     -0.14765177801600      0.23666145457807
  C   -0.80402850529531     -0.65827358644679     -0.39951153879441
  F   0.62703866247325     -0.60835596242623      1.48472013755595
  H   -0.83628179363704     -0.31688990283730     -1.43326032331495
  H   -0.73895997601486     -1.74882458487030     -0.41095089980604
  N   1.73889389521716     -0.49272399345162     -0.52440602349994
  O   1.61561884373896     -1.16639361726032     -1.54077731711391
  O   2.77533535639212     -0.07358145748704     -0.02449824888169
  N   0.45031366212542      1.36689682261977      0.28333074795111
  O   0.47583369381503      1.90005311905893     -0.82023238985590
  O   0.35685092517402      1.90181534399627      1.37652664603088
  N   -1.99766629342722     -0.24116744612632      0.29986226880973
  H   -2.18440231079599      0.74549364190416      0.18468361051745
  H   -1.95140901896580     -0.45939659865723      1.28585187582368
