14
Coordinates from ORCA-job run
  C   0.56106871137464     -0.14626899953521      0.48573498416611
  C   -0.77936169809689     -0.76783576562541      0.17434032556288
  F   1.24167592671168     -0.87062498948842      1.38419892652041
  H   -0.55853644365687     -1.82264750428395     -0.00537676897542
  H   -1.39227591593283     -0.69619587752654      1.08210388464381
  N   1.38786822955619     -0.06225751169981     -0.78617930100306
  O   1.79787604718155     -1.14316105293687     -1.18249581092499
  O   1.53154990448982      1.03608528110823     -1.30053820579251
  N   0.46692234349008      1.26675119264344      1.02659625209265
  O   -0.60023378056704      1.85025404603307      0.86531066412754
  O   1.47034624510518      1.69368723537023      1.57868664145995
  N   -1.33555251547804     -0.18107962515605     -1.02540340650714
  H   -1.95940836574936     -0.82747469104111     -1.48538857706367
  H   -1.83193868842811      0.67176826213841     -0.81158960830657
