14
Coordinates from ORCA-job run
  C   0.40740582462417      0.19045059432049     -0.27505929951365
  C   -0.73964060765309     -0.79465085262549     -0.14962167350918
  F   0.32336031244269      0.91601404217216     -1.39469705539818
  H   -0.61052315586442     -1.50583290846055     -0.97230905385521
  H   -0.62240218901487     -1.33674526374706      0.78780525592674
  N   0.50088635379384      1.16929171539019      0.88484409956210
  O   1.27675552376379      2.10146199785565      0.71766395600209
  O   -0.18836560186047      0.94046668037442      1.87242439224846
  N   1.73750813007414     -0.53905860050210     -0.26407174509789
  O   2.35873367481100     -0.59150161825353     -1.31366199213431
  O   2.02132430290144     -1.05190728665334      0.81282365937818
  N   -2.05373711657735     -0.20682233008483     -0.22343418647963
  H   -2.17230163221874      0.33682824874708     -1.06717445859976
  H   -2.23900381922212      0.37200558146690      0.58346810147023
