14
Coordinates from ORCA-job run
  C   0.43131669306040     -0.04907649267633      0.29874640531485
  C   -0.75029175497535     -0.68708960300956     -0.40754904854975
  F   0.44873092602174     -0.33700101658179      1.60404795749260
  H   -0.58403789773373     -1.76771918247458     -0.34592769899153
  H   -0.71597644020849     -0.39893625613270     -1.45740426885108
  N   1.73523866953516     -0.51421584084374     -0.32175164780071
  O   1.92753654953616     -0.10029952612874     -1.45966420095081
  O   2.42701204564032     -1.27891888875270      0.33175112967963
  N   0.47043684150843      1.46586569199198      0.17550816073103
  O   -0.29324482094144      1.98576453791955     -0.63027046495101
  O   1.28237680288327      2.02605274446885      0.90063965884434
  N   -2.03790409994290     -0.36559363608240      0.15495698421982
  H   -2.08062958600546     -0.58824837078939      1.13988108836979
  H   -2.26256392837810      0.60941583909155      0.01603594544285
