14
Coordinates from ORCA-job run
  C   0.43292261374937      0.12451955413364     -0.31470013542370
  C   -0.68280996664914     -0.87514924045364     -0.08710432346242
  F   0.39648538661047      0.64051164968335     -1.54997335557702
  H   -0.55400076634912     -1.66846019160469     -0.82721026248649
  H   -0.55495176853504     -1.31765068134236      0.89981774400031
  N   0.31289157914045      1.25923846533619      0.68303221099660
  O   0.00145112282923      2.36046995336009      0.25844572588589
  O   0.49621486047970      0.92147075495989      1.84706922755914
  N   1.82933640659944     -0.42902413450081     -0.10465616345551
  O   2.73748993794682      0.37556132670840     -0.27114616495252
  O   1.92331650148032     -1.61617690817906      0.18525631973727
  N   -2.00162962945280     -0.29724857126512     -0.20664091796077
  H   -2.22255897774442      0.31746279898441      0.56467452729626
  H   -2.11515730010528      0.20447522417969     -1.07686443215705
