14
Coordinates from ORCA-job run
  C   0.60897723912477     -0.22040881212166      0.37357719528605
  C   -0.79744004584177     -0.73183742162118      0.14786821718429
  F   1.28857795854324     -1.04278889313468      1.19029281950576
  H   -0.68935740527209     -1.73050832396280     -0.28064498460748
  H   -1.23169970701631     -0.84324832151876      1.14765121597017
  N   1.42619095076482     -0.11683897308578     -0.89593142658302
  O   2.49530059093018      0.47020940738459     -0.78827511614541
  O   0.99334505571055     -0.70170334147093     -1.88240383980346
  N   0.57451579718670      1.15725052668248      0.99996676458367
  O   0.55902955023397      1.16904859261620      2.22474970115611
  O   0.48244037556140      2.10822202905045      0.23708238018690
  N   -1.53363996982336      0.16818640492165     -0.70967356713176
  H   -1.87524567103347     -0.29577741353120     -1.53625778259450
  H   -2.30299471906864      0.60819453979162     -0.22900157700731
