14
Coordinates from ORCA-job run
  C   0.51498309196240     -0.17967689628889      0.47983209823275
  C   -0.83107709589637     -0.83030255239490      0.17996185124475
  F   1.18219219507338     -0.87903357755716      1.40609774670134
  H   -1.37679477726720     -0.83177889094830      1.12676818204376
  H   -0.58932019869316     -1.87128353366561     -0.05783497780216
  N   1.36073474010160     -0.10085291707816     -0.77091845869370
  O   2.16897555322550     -1.00015940450445     -0.94538898960703
  O   1.08777402060101      0.82626151104635     -1.52647349558259
  N   0.42849864718649      1.24605975022522      0.99009236776589
  O   1.50272812637174      1.76481350360492      1.26289002709048
  O   -0.68902226481540      1.73566812509573      1.11652218798692
  N   -1.65267347181824     -0.26713660723707     -0.85561666973876
  H   -1.20962865533784     -0.30104592391498     -1.76263807115075
  H   -1.89836991069392      0.68846741361730     -0.64229379849091
