10
Coordinates from ORCA-job run
  C   -1.11015669742630     -0.17180597109893     -0.21411580331891
  C   0.13155297555998      0.62697211239140      0.09007693781510
  Cl  -1.42214049191235     -1.36098528168687      1.07228377185170
  H   0.28346233991963      1.39538123290026     -0.67241924429677
  H   -1.97015781661502      0.49516424363517     -0.27002767829175
  H   -0.99470959737664     -0.71123869906360     -1.15138245478896
  H   0.11198559458378      1.07326434945995      1.08167471875761
  N   1.35035255924388     -0.24148491429354      0.04133850434427
  O   1.44861834863136     -0.99916871117137     -0.91929241056257
  O   2.17119278539168     -0.10709836107248      0.94286365849029
