10
Coordinates from ORCA-job run
  C   -1.11902632274554     -0.23422659584733      0.02422677956494
  C   0.11305565943861      0.60417919921935     -0.20211049001069
  Cl  -1.21732344767971     -0.75991264642242      1.72154067713503
  H   0.13614693389487      0.97349134944709     -1.23071646375926
  H   -2.00846958669706      0.35588978359395     -0.19547112033203
  H   -1.09573693800585     -1.12241885024926     -0.60283933696271
  H   0.19406608182356      1.43028871644172      0.50055784896661
  N   1.35464092939164     -0.21591525589456     -0.03586861030270
  O   2.27248068151528      0.28048246927654      0.60906914115436
  O   1.36916600906420     -1.31185816956508     -0.58838842545355
