10
Coordinates from ORCA-job run
  C   -1.10774355942596     -0.16408947899748     -0.23241492172918
  C   0.13098637934259      0.62378092927331      0.10982063290950
  Cl  -1.43585390031863     -1.39044141018073      1.01459856790304
  H   0.29267842997696      1.41437051134877     -0.62757356034844
  H   -1.96616896890313      0.50575018042314     -0.27755491615315
  H   -0.98274500225135     -0.67573878394898     -1.18388075839225
  H   0.09948635626298      1.04062857594216      1.11385568324892
  N   1.34956059192953     -0.24398865780876      0.05019718175507
  O   2.16057723754212     -0.13571650219547      0.96413642852815
  O   1.45822243584490     -0.97455536385595     -0.93018433772167
