14

C	-0.558542	-0.030964	-1.407412
C	-0.008789	-0.046887	0.012878
Br	0.063063	-1.584997	-2.375369
H	1.082939	-0.038949	0.00361
H	-0.304817	0.892546	0.491585
N	-1.992826	0.052656	-1.578511
H	-2.323461	0.804176	-0.980505
H	-2.400146	-0.816787	-1.253896
N	-0.033062	1.253915	-2.069618
O	0.680706	1.211855	-3.054464
O	-0.453217	2.271943	-1.520794
C	-0.574174	-1.156747	0.752608
N	-1.03562	-2.054524	1.357191
H	2.653728	0.263644	-0.0901
