14

C	-0.549913	0.002772	-1.41214
C	-0.008377	-0.047863	0.010272
Br	0.07906	-1.526022	-2.414998
H	1.085203	-0.036345	0.006651
H	-0.309081	0.878497	0.510968
N	-1.983281	0.089484	-1.589902
H	-2.391431	-0.789244	-1.292506
H	-2.318845	0.823315	-0.973057
N	-0.021716	1.304301	-2.038899
O	0.697782	1.287649	-3.020317
O	-0.446596	2.307774	-1.467307
C	-0.574139	-1.177453	0.718795
N	-1.035945	-2.091235	1.298729
H	2.650491	0.272231	-0.070339
