15

C	0.0	0.0	0.0
C	-0.382944	-0.251012	-1.5002
Br	1.920954	0.0	0.0
H	0.535653	-0.46987	-2.044069
H	-0.353041	-0.839662	0.583168
N	-0.491659	1.215246	0.728854
O	-0.536167	1.08203	1.947295
O	-0.7144	2.243938	0.112605
N	-0.777762	1.062155	-2.245998
O	-1.925788	1.185063	-2.647696
O	0.155033	1.824418	-2.500791
N	-1.297489	-1.307289	-1.611312
H	-1.517001	-1.472958	-2.584671
H	-2.118728	-0.963777	-1.035831
F	-2.530922	0.0	0.0
