15

C	0.0	0.0	0.0
C	-0.539215	0.02009	-1.416279
Br	1.91874	0.0	0.0
H	-1.662618	0.061012	-1.156741
H	-0.370252	-0.871655	0.520605
N	-0.463536	1.179532	0.80681
O	-0.594053	2.262716	0.243575
O	-0.590185	0.989691	2.008129
N	-0.30749	-1.315762	-2.030575
O	-0.265446	-2.310332	-1.305083
O	-0.268114	-1.358274	-3.262242
N	0.070095	1.019821	-2.269612
H	-0.436547	1.025716	-3.145545
H	-0.087647	1.908312	-1.809961
F	-2.608764	0.0	0.0
