19

C	0.0	0.0	0.0
C	-0.631644	-0.142916	-1.379755
Cl	1.772822	0.0	0.0
H	-1.702965	0.005085	-1.183036
N	-0.373861	1.443623	0.470931
O	-1.574278	1.657802	0.506104
O	0.507365	2.239497	0.771101
C	-0.572315	-0.947213	1.030629
H	-1.665064	-0.877814	0.983956
H	-0.222217	-0.673228	2.028157
H	-0.251934	-1.968654	0.820008
C	-0.424039	-1.533396	-1.969853
H	-0.892734	-2.30891	-1.361428
H	0.642105	-1.758362	-2.080134
H	-0.889214	-1.566688	-2.95846
N	-0.171613	0.950788	-2.226444
H	-0.887444	1.166842	-2.907744
H	0.673495	0.686756	-2.718579
Cl	-4.219212	0.0	0.0
