19

C	0.0	0.0	0.0
C	-0.632629	-0.240322	-1.364961
Cl	1.772508	0.0	0.0
H	-1.702477	-0.072807	-1.176659
N	-0.370399	1.477301	0.362662
O	0.512398	2.295749	0.586325
O	-1.571085	1.692996	0.400269
C	-0.574497	-0.86394	1.099191
H	-0.21948	-0.518391	2.072853
H	-1.666684	-0.786106	1.050792
H	-0.264113	-1.901033	0.966726
C	-0.434261	-1.671526	-1.85188
H	0.629541	-1.910159	-1.950079
H	-0.907299	-1.776462	-2.831123
H	-0.902642	-2.395682	-1.18362
N	-0.171331	0.787208	-2.290437
H	-0.894256	0.965539	-2.974631
H	0.663029	0.480719	-2.775787
Cl	-4.215929	0.0	0.0
