19

C	0.0	0.0	0.0
C	-0.595351	-0.14844	-1.403564
Cl	1.762517	0.0	0.0
H	-1.649624	0.128072	-1.260716
N	-0.358919	1.397764	0.562399
O	-0.67342	2.278603	-0.232585
O	-0.251743	1.555223	1.772858
C	-0.527507	-1.019911	0.983823
H	-1.621604	-0.984882	0.961749
H	-0.164495	-0.786594	1.982704
H	-0.171981	-2.010499	0.701097
C	-0.544072	-1.59921	-1.862805
H	0.476927	-1.990211	-1.82795
H	-1.211996	-2.223497	-1.270702
H	-0.891402	-1.652539	-2.898815
N	0.104053	0.67253	-2.397452
H	-0.323777	0.471611	-3.294507
H	-0.095305	1.644105	-2.191635
Cl	-3.849084	0.0	0.0
