17

C	-0.125023	-0.002547	-1.5113
C	0.0	0.0	0.0
Cl	-1.840854	-0.005136	-2.132476
H	1.117926	0.0	0.0
N	0.485858	1.230182	-1.978229
H	0.522961	1.215907	-2.993758
H	1.446942	1.202596	-1.615297
N	0.488706	-1.235835	-1.974677
H	1.448829	-1.203128	-1.619607
H	0.519708	-1.228975	-2.986426
N	-0.562455	-1.201889	0.603903
H	0.018296	-1.418558	1.410768
H	-0.407008	-1.954632	-0.060396
N	-0.563591	1.203689	0.599493
H	0.015188	1.422058	1.408672
H	-0.405368	1.95541	-0.066604
H	2.929476	0.0	0.0
