17

C	-0.364277	-0.0224	-1.494143
C	0.0	0.0	0.0
Cl	-0.073867	1.686614	-2.211384
H	1.102092	0.0	0.0
N	0.515142	-0.960725	-2.103569
H	0.466669	-0.915503	-3.11494
H	1.47461	-0.767549	-1.795045
N	-1.768208	-0.26256	-1.67091
H	-1.97193	-0.477902	-2.640482
H	-1.959394	-1.071897	-1.084637
N	-0.522758	-1.266494	0.555008
H	-0.484522	-1.136954	1.559964
H	0.151952	-1.988524	0.318124
N	-0.541694	1.091812	0.770561
H	-1.42776	1.374602	0.365881
H	0.101216	1.869649	0.692618
H	2.972335	0.0	0.0
