17

C	-0.377453	-0.060252	-1.477406
C	0.0	0.0	0.0
Cl	0.052417	1.758026	-2.216409
H	1.099119	0.0	0.0
N	0.443202	-0.984011	-2.129187
H	1.411688	-0.823689	-1.834406
H	0.371034	-0.922669	-3.13659
N	-1.764234	-0.232503	-1.669007
H	-2.219358	0.483986	-1.111894
H	-2.026244	-0.123203	-2.640694
N	-0.402681	-1.226886	0.677345
H	0.35577	-1.889241	0.566327
H	-1.223252	-1.609681	0.222051
N	-0.682657	1.11778	0.645335
H	-0.612946	0.924922	1.63774
H	-0.15229	1.961849	0.454813
H	2.960575	0.0	0.0
