17

C	-0.27889	-0.10865	-1.47861
C	0.0	0.0	0.0
Cl	-2.210779	-0.679229	-1.709795
H	1.101746	0.0	0.0
N	-0.160776	1.130302	-2.11133
H	-0.525406	1.119691	-3.053941
H	-0.611398	1.829657	-1.529606
N	0.471368	-1.181284	-2.019798
H	0.54546	-1.08152	-3.022846
H	1.41119	-1.084906	-1.614966
N	-0.405528	-1.177697	0.757363
H	0.442899	-1.632434	1.077143
H	-0.890592	-1.827448	0.149775
N	-0.514168	1.247206	0.545639
H	0.220152	1.643498	1.122602
H	-1.284354	1.00062	1.15499
H	2.796483	0.0	0.0
