17

C	-0.50412	0.044251	-1.439132
C	0.0	0.0	0.0
Cl	0.076628	1.678459	-2.164197
H	1.092105	0.0	0.0
N	0.086207	-0.962511	-2.277065
H	-0.099689	-1.82541	-1.770229
H	1.095361	-0.823378	-2.232234
N	-1.914986	-0.053613	-1.481059
H	-2.237508	0.050335	-2.434467
H	-2.308447	0.660574	-0.880518
N	-0.381731	-1.290663	0.543931
H	0.296407	-1.547045	1.249684
H	-1.310992	-1.243271	0.945011
N	-0.582253	1.108768	0.780534
H	-0.153485	1.961448	0.431153
H	-0.221116	0.995949	1.723759
H	2.976246	0.0	0.0
