17

C	-0.22015	-0.066652	-1.500807
C	0.0	0.0	0.0
Cl	-2.027946	-0.15366	-1.884992
H	1.10595	0.0	0.0
N	0.277343	1.109076	-2.176528
H	1.276784	1.114135	-1.955415
H	-0.117807	1.903427	-1.678814
N	0.402523	-1.267451	-1.983877
H	0.500943	-1.175761	-2.989301
H	1.34109	-1.281076	-1.572193
N	-0.526691	-1.16869	0.705296
H	0.221258	-1.514413	1.299718
H	-0.704329	-1.894713	0.019688
N	-0.477548	1.256937	0.548795
H	-1.36287	1.06292	1.003285
H	0.182	1.551336	1.260371
H	2.883464	0.0	0.0
