17

C	-0.680533	0.01999	-1.367902
C	0.0	0.0	0.0
Cl	-0.064248	1.545949	-2.288582
H	1.0962	0.0	0.0
N	-0.294306	-1.111197	-2.139063
H	-1.021532	-1.333872	-2.808357
H	-0.208456	-1.872038	-1.47117
N	-2.098405	0.149754	-1.17773
H	-2.547408	0.401235	-2.050618
H	-2.251073	0.887709	-0.497723
N	-0.362063	-1.249659	0.649163
H	-1.232113	-1.150052	1.156309
H	0.392143	-1.496323	1.280933
N	-0.483274	1.166366	0.775789
H	-0.062794	1.984533	0.339413
H	-0.013823	1.090238	1.674595
H	2.925849	0.0	0.0
