14

C	-0.448955	-0.279062	-1.413795
C	0.0	0.0	0.0
Br	0.396672	1.140492	-2.596364
H	1.099225	0.0	0.0
H	0.023502	-1.194197	-1.761688
N	-1.855094	-0.330336	-1.554818
H	-2.277449	0.539816	-1.251892
H	-2.120945	-0.50841	-2.51552
N	-0.302394	-1.120408	0.872505
O	-0.45129	-0.893187	2.082702
O	-0.205471	-2.253569	0.3788
C	-0.535342	1.231287	0.52868
N	-0.954088	2.268182	0.897233
H	2.376951	0.0	0.0
