14

C	-0.382845	0.175083	-1.467023
C	0.0	0.0	0.0
Br	0.155884	1.976486	-2.016291
H	1.107024	0.0	0.0
H	0.247029	-0.501173	-2.043874
N	-1.765467	-0.026657	-1.831927
H	-1.969411	-1.003412	-1.641791
H	-2.351429	0.5448	-1.230784
N	-0.320516	-1.320967	0.459833
O	-0.345119	-1.531241	1.685486
O	-0.36319	-2.226125	-0.404046
C	-0.527178	0.9971	0.895383
N	-0.943749	1.846096	1.5961
H	2.327335	0.0	0.0
