14

C	-0.380637	0.167995	-1.452983
C	0.0	0.0	0.0
Br	0.404223	1.938349	-2.068789
H	1.106456	0.0	0.0
H	0.174709	-0.556571	-2.043502
N	-1.771621	0.080887	-1.689144
H	-1.981529	0.174587	-2.675655
H	-2.270416	0.797297	-1.173986
N	-0.3103	-1.342313	0.45368
O	-0.097318	-2.257133	-0.356673
O	-0.598957	-1.515944	1.648167
C	-0.570971	0.997776	0.867898
N	-1.001915	1.864533	1.538513
H	2.364944	0.0	0.0
