14

C	0.0	0.0	0.0
C	-0.546778	0.129955	-1.426975
Cl	1.794014	0.0	0.0
H	-1.647531	0.094613	-1.337855
H	-0.212451	-0.714333	-2.036223
C	-0.494139	1.125198	0.897574
H	-0.126337	0.980548	1.914822
H	-1.588405	1.108823	0.889275
H	-0.125996	2.079968	0.514886
C	-0.393027	-1.309113	0.531214
N	-0.620758	-2.372456	0.976965
C	-0.130618	1.376673	-2.058811
N	0.20596	2.372839	-2.581244
Br	-3.823201	0.0	0.0
