14

C	0.0	0.0	0.0
C	-0.250857	-0.202971	-1.524396
Cl	1.796465	0.0	0.0
H	0.21609	0.660397	-2.008855
H	0.343028	-1.073973	-1.817648
C	-0.544703	1.298932	0.551702
H	-0.226496	1.431624	1.587622
H	-0.173657	2.131663	-0.050838
H	-1.638166	1.243853	0.500623
C	-0.419149	-1.166407	0.772651
N	-0.633055	-2.132166	1.406021
C	-1.556371	-0.389008	-2.1647
N	-2.322611	-0.594047	-3.033385
Br	-3.810571	0.0	0.0
