14

C	0.0	0.0	0.0
C	-0.545724	0.132662	-1.427068
Cl	1.793912	0.0	0.0
H	-1.646076	0.106176	-1.333621
H	-0.216626	-0.712726	-2.037154
C	-0.493244	1.122953	0.899896
H	-0.115271	0.982695	1.913865
H	-1.586917	1.097992	0.898551
H	-0.134359	2.079156	0.512797
C	-0.3916	-1.31181	0.530123
N	-0.609335	-2.379047	0.970104
C	-0.12205	1.376942	-2.059165
N	0.217217	2.372455	-2.581158
Br	-3.817842	0.0	0.0
