14

C	0.0	0.0	0.0
C	-0.54688	0.133188	-1.426138
Cl	1.794043	0.0	0.0
H	-0.218164	-0.711446	-2.037584
H	-1.647684	0.105397	-1.334525
C	-0.493703	1.123222	0.899572
H	-0.118466	0.98294	1.914906
H	-1.587686	1.100513	0.896315
H	-0.133165	2.079086	0.51407
C	-0.393806	-1.311326	0.530418
N	-0.616986	-2.375921	0.974506
C	-0.123176	1.376912	-2.059177
N	0.215404	2.370349	-2.585358
Br	-3.820361	0.0	0.0
