17

C	0.0	0.0	0.0
C	-0.371416	-0.154672	-1.500179
F	1.387686	0.0	0.0
H	0.174111	0.631243	-2.02517
C	-0.41036	1.365092	0.383746
N	-0.638695	2.478996	0.676777
C	-0.556947	-1.019647	0.96502
H	-1.649039	-0.963442	0.950599
H	-0.202599	-0.780676	1.969979
H	-0.232267	-2.019913	0.684084
N	-1.725684	-0.17203	-1.891029
H	-2.058631	0.763074	-2.076396
H	-2.384534	-0.559258	-1.213609
N	0.30481	-1.423933	-1.993485
O	-0.177497	-2.493185	-1.630993
O	1.27098	-1.296616	-2.743449
Cl	-4.208594	0.0	0.0
