17

C	0.0	0.0	0.0
C	-0.354669	0.396064	-1.458198
F	1.387101	0.0	0.0
H	0.206669	1.309175	-1.664199
C	-0.406347	1.133289	0.855754
N	-0.648174	2.043274	1.557567
C	-0.56309	-1.297831	0.52272
H	-0.232771	-2.127496	-0.099365
H	-0.22064	-1.443157	1.549334
H	-1.655929	-1.243108	0.514368
N	-1.702146	0.501268	-1.828074
H	-2.409886	0.090666	-1.208525
H	-1.971105	1.456536	-2.008959
N	0.365109	-0.623375	-2.358565
O	1.351942	-0.22736	-2.979718
O	-0.106138	-1.7549	-2.42176
Cl	-4.183054	0.0	0.0
