17

C	0.0	0.0	0.0
C	-0.584789	0.414015	-1.391451
F	1.390051	0.0	0.0
H	-1.398574	1.113038	-1.206556
C	-0.355408	1.028896	1.000341
N	-0.519517	1.839472	1.833662
C	-0.462701	-1.363523	0.458414
H	-0.03924	-1.56115	1.444696
H	-0.098437	-2.121777	-0.237401
H	-1.552238	-1.376698	0.505722
N	-1.071933	-0.593415	-2.263703
H	-2.001964	-0.839299	-1.93308
H	-0.469274	-1.402589	-2.301836
N	0.519363	1.1907	-2.065796
O	0.664482	2.359159	-1.712093
O	1.226529	0.593842	-2.870128
Cl	-3.564804	0.0	0.0
