17

C	0.0	0.0	0.0
C	-0.355558	0.384476	-1.460919
F	1.387345	0.0	0.0
H	0.212917	1.290865	-1.677092
C	-0.405333	1.141928	0.844736
N	-0.645256	2.05666	1.541075
C	-0.565404	-1.291228	0.536007
H	-0.232386	-2.128909	-0.073693
H	-0.228158	-1.423246	1.566354
H	-1.658267	-1.235492	0.522358
N	-1.703037	0.502619	-1.830075
H	-1.96798	1.463847	-1.980001
H	-2.40969	0.081396	-1.21754
N	0.347928	-0.648483	-2.354871
O	-0.133488	-1.776377	-2.403074
O	1.332711	-0.266712	-2.987491
Cl	-4.182203	0.0	0.0
