18
Coordinates from ORCA-job run
  C   0.60650638573660      0.06479900055493     -0.34720256506882
  C   -0.92330389804373      0.22713400006488     -0.38724605313229
  Cl  1.19960015081845      0.98812301583821     -1.79168872591267
  H   -1.28750252462309     -0.15344469603408     -1.34751299225242
  C   1.00736139390009     -1.38823362841354     -0.54223781948263
  H   2.08827410994461     -1.45360553897776     -0.67516580716759
  H   0.73419099602364     -1.97657650358421      0.33691095817379
  H   0.52058843663650     -1.82268241340728     -1.41696037305263
  C   1.24921591016424      0.66674630582202      0.88980848765907
  H   2.33376003916309      0.56760257023511      0.81508962582882
  H   0.90079026224687      0.13923942288407      1.77879392091394
  H   0.99756730463209      1.71960534649035      1.00519403482097
  N   -1.34634219930213      1.54464402781147     -0.03175763490887
  H   -2.31362117093913      1.69341881019400     -0.29069436555818
  H   -0.77926421603272      2.22954746886365     -0.51456332253301
  N   -1.52182694732446     -0.76145142730172      0.60489802991347
  O   -1.98833988935636     -1.79016539867684      0.11453026641503
  O   -1.47765414364456     -0.49270036236325      1.79980433534402
