18
Coordinates from ORCA-job run
  C   0.55633611562546     -0.46061227594084      0.08179014002247
  C   -0.90987159249139     -0.19053977808010     -0.29812372498341
  Cl  0.62392361138424     -2.07698730492971      0.87184801666395
  H   -1.24478477931835     -0.96371976690828     -0.99102499408138
  C   1.14330804103333      0.56121820741184      1.04197467440187
  H   2.17671337112013      0.28807765111614      1.26201473815021
  H   1.14854933639592      1.55085954913740      0.57799944284929
  H   0.58890935168305      0.60608358260429      1.97792712289313
  C   1.37042392689978     -0.53817279347348     -1.20219150829713
  H   1.33452541836076      0.42213169965172     -1.71748671334435
  H   2.40644773940940     -0.78694787201319     -0.96544679230805
  H   0.97670456475669     -1.31115265097626     -1.86564734460703
  N   -1.05318676128346      1.10638900095189     -0.87620097295945
  H   -1.94711917393236      1.19344085547804     -1.34309621736918
  H   -0.99619892471492      1.81603272431633     -0.15548327955982
  N   -1.82783023497813     -0.37074070628662      0.90847421521543
  O   -2.51932330480681     -1.38324508745020      0.95149505771750
  O   -1.82852670514335      0.53888496539104      1.73817813959595
