18
Coordinates from ORCA-job run
  C   0.56281790826490     -0.45400297945451      0.07573312625883
  C   -0.91465643486559     -0.20356181530070     -0.27274496730025
  Cl  0.66560385247283     -2.05673459085008      0.88901541815257
  H   -1.25837094244682     -0.98947134057217     -0.94679596217520
  C   1.16232477965250      0.58877038719099      1.00532410359009
  H   2.20328791048204      0.32911413851300      1.20507990071404
  H   1.14683092026762      1.57062517189648      0.52535291191695
  H   0.62955212931684      0.64338900506585      1.95323971210443
  C   1.34647716593927     -0.54407366265841     -1.22623017155058
  H   2.39072719758197     -0.77736147834641     -1.01076989091837
  H   0.94564934005767     -1.33214266573182     -1.86727280925195
  H   1.28755879804869      0.40714573008460     -1.75608525351822
  N   -1.08492573038599      1.08327193943272     -0.86560205961315
  H   -1.98992843993188      1.15463502448631     -1.31336290022657
  H   -1.01841651009071      1.80429294624764     -0.15714090192532
  N   -1.80162363300612     -0.37551721451027      0.95784232542717
  O   -1.79171818236753      0.54587816308755      1.77441112403309
  O   -2.48119012898970     -1.39425675858078      1.03200629428243
