18
Coordinates from ORCA-job run
  C   0.63356700794114      0.05844716295558     -0.42815614821644
  C   -0.90301161555257      0.18085633716647     -0.49469961010517
  Cl  1.22184773376241      0.75110207938441     -1.98498036410122
  H   -1.25231780637388     -0.21927360931587     -1.44655331262025
  C   1.08139870563075     -1.39447925031061     -0.37474160154224
  H   0.82857139446804     -1.83872058605275      0.59109585265091
  H   2.16394803592214     -1.44295088133696     -0.49977933171426
  H   0.61396898616806     -1.98595238550193     -1.16352176156823
  C   1.23908082263803      0.87280962515398      0.70231415792939
  H   2.32354553718459      0.75166483496689      0.69621548113287
  H   1.01692892953556      1.93276476032660      0.57951473136968
  H   0.85357337077843      0.52689894028269      1.66447522125682
  N   -1.36514759857835      1.50732470055182     -0.30489299030398
  H   -2.33445918847017      1.60087126762872     -0.57756625006579
  H   -1.26411265042333      1.79017969201822      0.66148193151431
  N   -1.48331530939015     -0.79248003975103      0.53846787854348
  O   -1.52003620214700     -0.40716371360095      1.70711651856915
  O   -1.85603015309369     -1.89089893456527      0.13420959727097
