18
Coordinates from ORCA-job run
  C   0.66044563340393      0.07385438430504     -0.38252924966353
  C   -0.86259206754231      0.27704028199503     -0.52106279617929
  Cl  1.37141068458466      0.90304017085542     -1.81648589575137
  H   -1.16930330645662     -0.00022646940787     -1.52962043436625
  C   1.04245108007769     -1.39632134527705     -0.46705984445008
  H   0.71323089374636     -1.93062215594735      0.42751292560724
  H   2.12758281680146     -1.48338494950958     -0.53651888691993
  H   0.59897376961626     -1.87476866979675     -1.34165070555175
  C   1.22953770999806      0.72924737933724      0.86420828578085
  H   2.30620409533544      0.55631539443112      0.90540954534329
  H   1.06096375535865      1.80596080827526      0.84849569482617
  H   0.77143154724871      0.30002253189217      1.75856143983680
  N   -1.27931033455213      1.59590113743161     -0.21156477473647
  H   -2.22512081866531      1.76585686799388     -0.52647425600959
  H   -1.22548788264041      1.76814742447264      0.78414745609718
  N   -1.54542547234597     -0.77329901999740      0.36328428292212
  O   -1.93858985576677     -1.80176379161960     -0.18119192983846
  O   -1.63740224820171     -0.51599997943382      1.56353914305307
