18
Coordinates from ORCA-job run
  C   0.55005232459095     -0.46936385724587      0.07453499025662
  C   -0.91638901730101     -0.17503736779697     -0.28598218006316
  Cl  0.60134395261951     -2.08646052809057      0.86412386525684
  H   -1.27266734021048     -0.94109402475003     -0.97615922315409
  C   1.16629522225011      0.54298527093017      1.02645587989827
  H   2.19706766361540      0.25158674878073      1.23506530274963
  H   0.62356760768777      0.59893098339292      1.96865365002337
  H   1.18376007811552      1.53172078812112      0.56088678836812
  C   1.34559165957845     -0.56031798139720     -1.22013715617472
  H   0.93261778132905     -1.32941389468056     -1.87634202155644
  H   1.31551569710274      0.39945891537351     -1.73679337508315
  H   2.38137041362003     -0.82233877588389     -0.99695265319052
  N   -1.04647889102568      1.12533857497753     -0.85932174464886
  H   -0.96908698832632      1.83233655726215     -0.13789341491549
  H   -1.94459939505153      1.22774804579436     -1.31491399724913
  N   -1.82183274411482     -0.34341593518885      0.93185470379239
  O   -2.52943741793376     -1.34440478900544      0.98105366359898
  O   -1.79669060654591      0.56374126940690      1.76386692209135
