15

C	-0.509753	-0.02003	-1.435403
C	0.0	0.0	0.0
Cl	0.126656	-1.423521	-2.298978
H	1.093454	0.0	0.0
H	-0.324223	0.934612	0.465674
C	-2.021486	0.010825	-1.582362
H	-2.300675	0.05543	-2.63788
H	-2.420615	0.880231	-1.060583
H	-2.437385	-0.897344	-1.146969
N	0.018551	1.260401	-2.102176
O	0.71209	1.194574	-3.102815
O	-0.368098	2.298055	-1.565396
C	-0.53011	-1.120867	0.749294
N	-0.946954	-2.032197	1.365402
H	2.697618	0.0	0.0
