15

C	-0.50993	-0.063042	-1.432053
C	0.0	0.0	0.0
Cl	0.051503	-1.544836	-2.21594
H	1.102097	0.0	0.0
H	-0.320965	0.950289	0.437876
C	-2.016794	0.036704	-1.58275
H	-2.479331	-0.81706	-1.087013
H	-2.365767	0.958933	-1.11829
H	-2.297852	0.026442	-2.639174
N	0.084425	1.159374	-2.156793
O	-0.237113	2.234212	-1.653561
O	0.763591	1.017791	-3.160596
C	-0.511451	-1.100345	0.789527
N	-0.882189	-2.006788	1.439913
H	2.686407	0.0	0.0
