16

C	0.0	0.0	0.0
C	-0.56864	0.146764	-1.412229
Br	1.952465	0.0	0.0
H	-1.485094	0.73494	-1.323287
H	-0.340828	-0.925562	0.455244
N	-0.404929	1.084512	0.975219
O	-0.66642	2.194143	0.538121
O	-0.376812	0.747215	2.153786
C	-0.871347	-1.218687	-1.991026
H	0.013315	-1.858535	-1.992122
H	-1.229885	-1.123999	-3.015738
H	-1.670893	-1.645051	-1.385893
N	0.354155	0.920288	-2.318622
O	0.906924	0.312728	-3.237158
O	0.495962	2.118759	-2.094438
Cl	-3.363818	0.0	0.0
