16

C	0.0	0.0	0.0
C	-0.662169	-0.069703	-1.365875
Br	1.922896	0.0	0.0
H	-1.686638	0.291488	-1.209097
H	-0.349212	-0.830924	0.608488
N	-0.387757	1.241911	0.765043
O	-0.491346	1.114064	1.97861
O	-0.501195	2.277314	0.12252
C	-0.696847	-1.49835	-1.871176
H	-1.339325	-2.072176	-1.201159
H	-1.146789	-1.524834	-2.865844
H	0.301995	-1.934843	-1.923497
N	-0.04174	0.80727	-2.41228
O	-0.658362	1.815047	-2.750877
O	1.018652	0.429323	-2.917461
Cl	-3.547026	0.0	0.0
