16
Coordinates from ORCA-job run
  C   0.71409056496819      0.27171588582657     -0.28047068479931
  C   -0.68552006213807     -0.35569112903126     -0.30773574423888
  H   0.84724412789539      0.88053130079483     -1.17811211969518
  H   -0.73827084022170     -1.00758265578187     -1.18463323107342
  N   1.71794607027036     -0.88356601515984     -0.48540644422335
  O   2.48196332363915     -1.14783390127751      0.43709590385997
  O   1.66152503214300     -1.45571643851465     -1.56992894174733
  N   0.94183624309998      1.03439836933531      0.88539025088849
  H   1.82423421474504      1.52604330422699      0.84212924981542
  H   0.93985357807496      0.45017654825724      1.71344656556796
  C   -1.76901286870811      0.72198412674380     -0.38818410866425
  H   -1.64008885210186      1.30205527344146     -1.30510965321752
  H   -1.69821457952631      1.39528414469713      0.46507929794084
  H   -2.75961542856276      0.26489184884213     -0.40551176614215
  C   -0.85610905761549     -1.18568995120443      0.88791434810481
  N   -0.98086146596178     -1.81300071119588      1.87303707762390
