16
Coordinates from ORCA-job run
  C   0.85009828850224      0.17534109210904     -0.15960694656100
  C   -0.57186084353169     -0.38896418906423     -0.38855339190355
  H   1.16090886128433      0.69335556933140     -1.06910466914219
  H   -0.51821992696065     -1.10450286799863     -1.21615997023629
  N   1.76394886664747     -1.03039630693993     -0.07166277785444
  O   2.13661876105536     -1.38248417809747      1.04065660217824
  O   2.00377601864097     -1.59505945335760     -1.13650309319781
  N   1.06886363893501      1.00952510656615      0.96996399087139
  H   0.68543135225158      0.62661062657312      1.82406037663680
  H   0.74409695290729      1.95177614642437      0.81396355901442
  C   -1.55298503573554      0.73201372530090     -0.73927593339557
  H   -1.21609993749829      1.25453590985964     -1.63789027036676
  H   -1.63408371390346      1.44853060397407      0.07971883590251
  H   -2.54657111971357      0.32453160407891     -0.93076331925454
  C   -1.01031295338877     -1.09911739613957      0.81402746474911
  N   -1.36460920949228     -1.61669599262017      1.80712954255966
