14

C	-0.450622	-0.155233	-1.44092
C	0.0	0.0	0.0
Cl	0.230908	1.265788	-2.381399
H	1.095083	0.0	0.0
H	0.050201	-1.023883	-1.860344
N	-1.863437	-0.275592	-1.56128
H	-2.319165	0.564546	-1.224994
H	-2.130904	-0.428621	-2.523958
N	-0.362903	-1.226948	0.751785
O	-0.209277	-2.299527	0.16964
O	-0.711672	-1.112965	1.927566
C	-0.583797	1.163835	0.629474
N	-1.045566	2.154192	1.06476
F	2.451657	0.0	0.0
