14

C	-0.456849	-0.011407	-1.447145
C	0.0	0.0	0.0
Cl	0.253564	1.475099	-2.25687
H	1.091696	0.0	0.0
H	0.02306	-0.848238	-1.946477
N	-1.87164	-0.088001	-1.571727
H	-2.305699	0.726681	-1.153834
H	-2.146461	-0.13655	-2.54277
N	-0.374173	-1.289872	0.631897
O	-0.735668	-1.285516	1.808371
O	-0.222077	-2.303547	-0.04753
C	-0.578798	1.102047	0.73718
N	-1.057004	2.038977	1.263584
F	2.453685	0.0	0.0
