14

C	-0.439916	0.021899	-1.444618
C	0.0	0.0	0.0
Cl	-2.349779	-0.132778	-1.495676
H	1.091675	0.0	0.0
H	-0.311137	1.036063	-1.818628
N	0.204296	-0.899397	-2.270406
H	-0.164301	-0.897515	-3.209695
H	0.20739	-1.82324	-1.863074
N	-0.396929	-1.220668	0.722341
O	-0.295921	-2.290532	0.115276
O	-0.727874	-1.12709	1.902403
C	-0.460853	1.176761	0.705585
N	-0.767683	2.187253	1.221
F	2.434433	0.0	0.0
