14

C	-0.440366	-0.01991	-1.463904
C	0.0	0.0	0.0
Cl	0.102809	1.519177	-2.197155
H	1.094356	0.0	0.0
H	0.119797	-0.810303	-1.957892
N	-1.848654	-0.188718	-1.739779
H	-2.373181	0.501875	-1.21321
H	-2.111664	-1.112474	-1.416258
N	-0.366166	-1.273126	0.655505
O	-0.497446	-2.268553	-0.067053
O	-0.446344	-1.295966	1.882189
C	-0.569597	1.099273	0.744694
N	-1.056344	2.010922	1.306298
F	2.443223	0.0	0.0
