17
Coordinates from ORCA-job run
  C   0.97650022258957      0.17259754504512     -0.02625449235556
  C   -0.41813775039979      0.40965829143890     -0.63731056472084
  F   1.92886165583788      0.24075660964848     -1.03162072037942
  H   -0.31202125790505      1.23646163584885     -1.34811414785528
  C   1.14452088809951     -1.13572322608981      0.72637045215179
  H   0.43322797651295     -1.20556677851933      1.55085899859191
  H   2.15475535148882     -1.17540215368073      1.13541301293168
  H   1.00981606711942     -1.97271779404656      0.04399550717928
  C   1.25545459503953      1.30648480106880      0.87969271575810
  N   1.48868944005769      2.19961523298453      1.60578184193262
  C   -1.49999064283457      0.70641965720365      0.38576997234023
  H   -2.43999367088373      0.91531197473610     -0.11935576954512
  H   -1.65782075828157     -0.14574027381663      1.04919058726633
  H   -1.22563403679333      1.57572137518443      0.98337125363398
  N   -0.83824027035482     -0.76451725447158     -1.50356583969332
  O   0.04358339714065     -1.41490959296602     -2.05510725355389
  O   -2.04457120643316     -0.94745004956821     -1.63911555368249
