17
Coordinates from ORCA-job run
  C   0.54612822005317     -0.22018048935593      0.62414797200644
  C   -0.57604792597088     -0.13562160826687     -0.42353900840325
  F   0.25558283095062      0.65805728015715      1.65831359734998
  H   -0.37232238580757     -0.87357862130568     -1.20211718691974
  C   1.89676075170387      0.16200565435868      0.04322115012015
  H   2.14627948403457     -0.46813904283170     -0.81247168643136
  H   1.88026574628893      1.20805162485233     -0.26245478150476
  H   2.66300187217659      0.03690852886168      0.80908348207198
  C   0.61339743332533     -1.57777196274947      1.19588588943368
  N   0.68368268082632     -2.66907208810113      1.62380982845438
  C   -0.76961406812840      1.25835852447595     -0.98695002077508
  H   0.06923240043272      1.52786030363003     -1.62961805978649
  H   -0.86546099392507      1.98565363425027     -0.18284935967501
  H   -1.67809569535703      1.28902032901300     -1.59020953524179
  N   -1.85293238847783     -0.60701152356492      0.21737367926536
  O   -2.14096443554159     -1.79257213123011      0.06127528374212
  O   -2.49789352658375      0.21803158780673      0.85809875629339
