17
Coordinates from ORCA-job run
  C   0.54266065473611     -0.22459468077808      0.62035314376257
  C   -0.58389801532716     -0.13856434437354     -0.42199557973087
  F   0.25193431074325      0.65027299501961      1.65760033505102
  H   -0.39085146120181     -0.88455897557897     -1.19573587254365
  C   1.89046998142931      0.16240482331136      0.03656069145811
  H   2.13869450540732     -0.46542284325896     -0.82125413756150
  H   2.65911521606612      0.03688337593144      0.79991206847234
  H   1.87050734928035      1.20899793962328     -0.26684450333741
  C   0.61940153895136     -1.58263497281015      1.19007305184195
  N   0.74282501631443     -2.66097665237205      1.63822076430887
  C   -0.76906999958867      1.25200759282700     -0.99604867288039
  H   0.06417196814060      1.50485037373635     -1.65275681868716
  H   -0.84531025623957      1.98863450497084     -0.19825368804883
  H   -1.68554964991303      1.28851109520441     -1.58659122892930
  N   -1.85912927147192     -0.59582129540893      0.23319420636070
  O   -2.51360276355924      0.24656949951983      0.84057653227963
  O   -2.13436912376744     -1.78955843556342      0.12298970818394
