17
Coordinates from ORCA-job run
  C   0.95966226697831      0.15611241060069      0.01979019718745
  C   -0.40361837320619      0.44683334341227     -0.63014050714602
  F   1.88230876929014      0.04708770850810     -1.01419518261278
  H   -0.28746159667927      1.34777260537096     -1.23527202454704
  C   1.05512957977774     -1.09360042454265      0.87250068532018
  H   2.08118732785253     -1.18487375743912      1.23144917176776
  H   0.80122666395620     -1.96891604236525      0.27738256440685
  H   0.38669176165459     -1.03627718551185      1.73193648086759
  C   1.31558336086079      1.34574079278052      0.81596664802554
  N   1.57207170963602      2.29141622355012      1.46340536871120
  C   -1.55262919718835      0.56228439644834      0.35056835489858
  H   -1.71904756475090     -0.38188555921534      0.86692918402023
  H   -1.34623013270158      1.34659908195852      1.08137228400427
  H   -2.46677020180122      0.82808818973884     -0.18311035170238
  N   -0.68863649504731     -0.63452867530939     -1.63407393187379
  O   -1.05297312158848     -1.72512017144841     -1.19690418910004
  O   -0.53649475704301     -0.34773293653637     -2.81760475222760
