17

C	-0.173176	0.06554	-1.522688
C	0.0	0.0	0.0
F	0.120121	-1.25114	-2.006597
H	1.095832	0.0	0.0
N	-1.507245	0.37735	-1.952314
H	-1.541242	0.370848	-2.973237
H	-2.104443	-0.38227	-1.624086
N	0.81931	0.968276	-1.996717
H	1.688152	0.769038	-1.418658
H	1.011806	0.751259	-2.988817
C	-0.612956	-1.184016	0.562691
N	-1.157155	-2.11785	1.025648
C	-0.477056	1.278888	0.685249
H	-1.562459	1.400303	0.631231
H	-0.006203	2.126214	0.185935
H	-0.162727	1.270655	1.733788
F	2.635712	0.0	0.0
