16

C	-0.453137	-0.11904	-1.432064
C	0.0	0.0	0.0
F	0.183076	0.707888	-2.287617
H	1.093052	0.0	0.0
C	-0.282501	-1.503785	-1.910632
N	-0.167864	-2.559438	-2.411762
N	-1.970056	0.170812	-1.59492
O	-2.348536	0.605005	-2.673184
O	-2.675211	-0.112889	-0.631481
N	-0.362764	-1.138805	0.77331
H	0.368125	-1.308027	1.450215
H	-1.255963	-1.028716	1.232578
N	-0.462956	1.291266	0.568899
O	-0.518321	1.380803	1.795333
O	-0.724301	2.211344	-0.211636
F	2.472837	0.0	0.0
