16

C	-0.52103	0.055017	-1.421959
C	0.0	0.0	0.0
F	-1.892191	0.086264	-1.464197
H	1.089735	0.0	0.0
C	0.008809	1.098267	-2.304018
N	0.376542	1.894261	-3.085013
N	-0.11325	-1.284266	-2.065468
O	-0.960701	-2.169434	-2.072206
O	1.032589	-1.355646	-2.481158
N	-0.415768	-1.153075	0.711234
H	0.360231	-1.789051	0.81602
H	-1.246044	-1.608154	0.36423
N	-0.447712	1.254941	0.697035
O	-0.542809	1.239258	1.915952
O	-0.619768	2.257621	-0.004184
F	2.480908	0.0	0.0
