16

C	-0.526002	0.053005	-1.418734
C	0.0	0.0	0.0
F	-1.897628	0.028901	-1.45873
H	1.090066	0.0	0.0
C	-0.042241	1.128986	-2.286756
N	0.292239	1.941712	-3.066115
N	-0.064951	-1.260889	-2.080712
O	-0.874094	-2.181067	-2.090901
O	1.079163	-1.277776	-2.507056
N	-0.400581	-1.164461	0.705152
H	-1.214091	-1.637966	0.341928
H	0.388951	-1.783375	0.811487
N	-0.457912	1.241566	0.710857
O	-0.706962	2.234397	0.019038
O	-0.487895	1.224465	1.934051
F	2.481454	0.0	0.0
