16

C	-0.624253	-0.009913	-1.381746
C	0.0	0.0	0.0
F	-0.162006	-1.096467	-2.062413
H	1.090137	0.0	0.0
C	-2.091537	-0.091739	-1.310572
N	-3.246964	-0.219137	-1.142469
N	-0.241595	1.173236	-2.267578
O	0.952581	1.409364	-2.336467
O	-1.143698	1.716434	-2.89922
N	-0.351221	-1.217399	0.665914
H	0.459621	-1.514348	1.190084
H	-1.128013	-1.100578	1.303963
N	-0.454069	1.211108	0.725948
O	-0.749068	2.208851	0.05864
O	-0.474145	1.170245	1.954974
F	2.469623	0.0	0.0
