15

C	-0.539055	-0.021591	-1.417478
C	0.0	0.0	0.0
Br	-2.489208	0.138715	-1.489315
H	1.095756	0.0	0.0
N	0.103938	1.097725	-2.306267
O	1.298227	0.929698	-2.483875
O	-0.606264	1.977514	-2.753108
C	-0.177976	-1.277864	-2.061462
N	0.074407	-2.288027	-2.60815
C	-0.458623	-1.16439	0.7242
N	-0.79865	-2.146158	1.275288
N	-0.376541	1.239156	0.709721
O	-0.327604	2.276708	0.049894
O	-0.629382	1.168015	1.90986
F	2.391947	0.0	0.0
