15

C	-0.507364	-0.024521	-1.432225
C	0.0	0.0	0.0
Br	-2.451594	0.165601	-1.557846
H	1.095748	0.0	0.0
N	0.176329	1.078707	-2.312131
O	1.367616	0.877333	-2.479699
O	-0.503908	1.983383	-2.759266
C	-0.146583	-1.292672	-2.054244
N	0.098233	-2.310094	-2.591339
C	-0.48527	-1.154863	0.720208
N	-0.85446	-2.127599	1.269142
N	-0.381509	1.249612	0.687375
O	-0.282838	2.282445	0.025505
O	-0.6916	1.190139	1.875412
F	2.39588	0.0	0.0
