15

C	-0.444284	0.062376	-1.467345
C	0.0	0.0	0.0
Br	0.389148	1.534884	-2.392154
H	1.091605	0.0	0.0
N	0.029765	-1.273496	-2.108249
O	1.166657	-1.3286	-2.53535
O	-0.801981	-2.174875	-2.068339
C	-1.885593	0.153117	-1.665374
N	-3.044217	0.277526	-1.824874
C	-0.542852	-1.168205	0.660954
N	-0.909145	-2.127999	1.234316
N	-0.505971	1.2278	0.702347
O	0.249316	2.193249	0.741072
O	-1.643019	1.189669	1.182213
F	2.432792	0.0	0.0
