15

C	-0.452055	0.014278	-1.439682
C	0.0	0.0	0.0
Br	-0.128381	-1.740192	-2.223207
H	1.096004	0.0	0.0
N	-1.974826	0.252767	-1.6182
O	-2.690477	-0.082909	-0.68815
O	-2.335402	0.700705	-2.697593
C	0.25492	1.001357	-2.244067
N	0.844393	1.786233	-2.890379
C	-0.467597	-1.118454	0.786797
N	-0.788027	-2.030685	1.455564
N	-0.402167	1.266535	0.662346
O	-0.227266	1.346984	1.872083
O	-0.83688	2.171007	-0.058164
F	2.397273	0.0	0.0
