15
Coordinates from ORCA-job run
  C   -0.50112428308828      0.51056553934057     -0.34547081262734
  C   0.93836485075470      0.36277444279355      0.14054270327887
  F   -0.51336785732449      0.30360855658122     -1.72797554611993
  H   1.53651745322734      1.09038618554536     -0.41609790047197
  H   0.97764049863191      0.65629598376189      1.19438839567228
  C   -0.95241370118535      1.89645082026206     -0.11065980685636
  N   -1.30741139934764      2.99324217342124      0.11098334616872
  C   -1.48270887613691     -0.46678434822702      0.27409856872667
  H   -2.48647974690333     -0.27355786794670     -0.10633200269534
  H   -1.19992042299916     -1.48502409271220      0.00680508567125
  H   -1.48994300506967     -0.36719889171390      1.36134138171197
  C   1.50385830354106     -1.03993112729215     -0.05625352736844
  H   1.36415092613270     -1.37055213159419     -1.08659952287948
  H   1.03785751507934     -1.76811492174726      0.60966826966361
  H   2.57497974468779     -1.04116032047247      0.15456136812548
