14

C	0.0	0.0	0.0
C	-0.60773	-0.022268	-1.397008
Cl	1.793093	0.0	0.0
H	-1.719533	0.017323	-1.119499
H	-0.368066	-0.975933	-1.876307
C	-0.394034	1.236005	0.692788
N	-0.577512	2.241747	1.270581
C	-0.490616	-1.2134	0.781361
H	-0.130449	-2.121789	0.289784
H	-0.108182	-1.187802	1.803948
H	-1.585634	-1.12979	0.743997
C	-0.187252	1.076444	-2.24666
N	0.13807	1.961579	-2.94821
F	-2.844436	0.0	0.0
