14

C	0.0	0.0	0.0
C	-0.608546	0.021297	-1.40019
Cl	1.793827	0.0	0.0
H	-1.722103	0.008028	-1.116382
H	-0.346555	0.944096	-1.924001
C	-0.404894	1.233865	0.688159
N	-0.597017	2.241885	1.259436
C	-0.478786	-1.217392	0.782961
H	-1.573052	-1.13728	0.760391
H	-0.124628	-2.124309	0.287034
H	-0.084477	-1.189455	1.801144
C	-0.218954	-1.127574	-2.195628
N	0.074699	-2.056908	-2.853336
F	-2.836709	0.0	0.0
