17

C	0.0	0.0	0.0
C	-0.562202	0.072561	-1.423104
F	1.385123	0.0	0.0
H	-1.679612	0.042019	-1.243818
C	-0.428463	1.248419	0.752213
H	-0.08458	1.157569	1.787105
H	-1.524091	1.283209	0.731184
H	0.009253	2.149053	0.31455
N	-0.481193	-1.22876	0.553076
H	-1.513135	-1.153422	0.476904
H	-0.264114	-1.225891	1.544692
N	-0.150832	-1.134758	-2.207999
O	-0.942693	-2.070239	-2.258257
O	0.963621	-1.109274	-2.734087
C	-0.142655	1.26234	-2.141289
N	0.146131	2.246551	-2.713721
H	-3.005913	0.0	0.0
