17

C	0.0	0.0	0.0
C	-0.332426	0.133899	-1.507168
F	1.384357	0.0	0.0
H	0.135008	-0.729392	-1.991629
C	-0.441789	1.181774	0.830706
H	0.063308	2.090167	0.501502
H	-0.18079	0.967507	1.86887
H	-1.526084	1.278502	0.734612
N	-0.533596	-1.202567	0.537181
H	-1.564617	-1.012663	0.52145
H	-0.363844	-1.969745	-0.109365
N	0.415611	1.304133	-2.105447
O	-0.032789	2.432459	-1.924343
O	1.448084	1.044829	-2.722761
C	-1.7539	0.217166	-1.939719
N	-2.450525	0.309752	-2.901535
H	-2.831539	0.0	0.0
