17

C	0.0	0.0	0.0
C	-0.3911	-0.022283	-1.506929
F	1.379861	0.0	0.0
H	0.439169	-0.543031	-1.989492
C	-0.421934	1.262505	0.728179
H	0.061745	2.147201	0.307835
H	-0.117477	1.162099	1.77466
H	-1.512659	1.319061	0.664356
N	-0.501143	-1.221021	0.545559
H	-1.537029	-1.07315	0.482056
H	-0.269698	-1.231175	1.535738
N	-0.334267	1.371212	-2.079078
O	0.793766	1.855533	-2.179053
O	-1.377993	1.93951	-2.376113
C	-1.63846	-0.687357	-1.91152
N	-2.253768	-1.363649	-2.662985
H	-2.847447	0.0	0.0
