17

C	0.0	0.0	0.0
C	-0.56283	0.094184	-1.408549
F	1.399244	0.0	0.0
H	-1.658383	0.191526	-1.23761
H	-0.297634	-0.788607	-1.988796
C	-0.470829	1.141509	0.879798
H	-1.565222	1.102453	0.849574
H	-0.099032	0.979056	1.89651
H	-0.099843	2.099928	0.515057
C	-0.492371	-1.321754	0.560396
H	-0.13539	-1.439055	1.587897
H	-1.587812	-1.257614	0.528623
H	-0.117333	-2.158595	-0.03802
N	-0.020611	1.236739	-2.178896
O	0.758757	0.987235	-3.104509
O	-0.370059	2.37607	-1.867341
F	-2.988317	0.0	0.0
