17

C	0.0	0.0	0.0
C	-0.563418	-0.031799	-1.412282
F	1.399191	0.0	0.0
H	-0.186668	-0.896381	-1.959822
H	-1.662613	-0.023125	-1.251679
C	-0.479258	1.245914	0.719519
H	-1.573114	1.215874	0.648057
H	-0.151652	1.209614	1.76139
H	-0.07219	2.14789	0.255617
C	-0.499732	-1.244132	0.707516
H	-1.594965	-1.154239	0.698064
H	-0.1657	-2.145177	0.184765
H	-0.107551	-1.265403	1.728697
N	-0.138899	1.159309	-2.181521
O	0.948234	1.109193	-2.763433
O	-0.872732	2.149261	-2.17876
F	-2.99578	0.0	0.0
