15

C	-0.487467	-0.010683	-1.428639
C	0.0	0.0	0.0
F	-1.844699	-0.444552	-1.478153
H	1.088264	0.0	0.0
H	0.085485	-0.788262	-1.932335
N	-0.303548	1.224471	-2.085053
H	-0.490982	1.12513	-3.072138
H	-0.912838	1.920117	-1.678846
N	-0.445066	-1.256078	0.652079
O	-0.102559	-2.286864	0.078147
O	-1.101655	-1.212377	1.69045
N	-0.486247	1.131275	0.817919
O	-1.397496	1.8487	0.38259
O	0.069172	1.302272	1.898545
F	2.473244	0.0	0.0
