15

C	-0.522275	-0.020084	-1.425068
C	0.0	0.0	0.0
F	0.040901	-1.08375	-2.098031
H	1.088228	0.0	0.0
H	-0.14763	0.884335	-1.917105
N	-1.951829	-0.201417	-1.486576
H	-2.385566	0.548289	-0.964221
H	-2.25099	-0.122703	-2.452645
N	-0.555518	-1.148068	0.752794
O	-1.493836	-0.958982	1.529992
O	-0.056313	-2.239531	0.499878
N	-0.39667	1.239277	0.701363
O	-0.007478	1.364947	1.858161
O	-1.033174	2.104729	0.079632
F	2.472766	0.0	0.0
