15

C	-0.420814	-0.110564	-1.447443
C	0.0	0.0	0.0
F	-1.735498	-0.64117	-1.556012
H	1.089577	0.0	0.0
H	0.237821	-0.857768	-1.888028
N	-0.290292	1.113597	-2.14046
H	-0.402015	0.961712	-3.131684
H	-0.987696	1.765936	-1.810105
N	-0.432047	-1.213576	0.727299
O	-0.116673	-2.27791	0.20156
O	-1.03444	-1.103757	1.793806
N	-0.548133	1.172083	0.711207
O	0.038413	1.530539	1.727633
O	-1.559532	1.725521	0.258064
F	2.474445	0.0	0.0
