15

C	-0.460137	0.024608	-1.445356
C	0.0	0.0	0.0
F	-0.035354	-1.188202	-2.018971
H	1.087959	0.0	0.0
H	0.111204	0.809579	-1.93933
N	-1.850695	0.245521	-1.625474
H	-2.066505	0.326049	-2.610749
H	-2.360347	-0.528877	-1.222109
N	-0.515357	-1.154163	0.769612
O	0.097606	-1.451847	1.78943
O	-1.515611	-1.757	0.358355
N	-0.462028	1.235301	0.663818
O	-0.154718	2.280541	0.096775
O	-1.08929	1.16349	1.719145
F	2.479209	0.0	0.0
