15

C	-0.286033	-0.144675	-1.495412
C	0.0	0.0	0.0
F	-0.396734	1.185242	-2.006162
H	1.087081	0.0	0.0
H	-1.249987	-0.602336	-1.722865
N	0.800958	-0.855387	-2.014932
H	0.823059	-0.877804	-3.022722
H	1.683755	-0.557047	-1.573785
N	-0.504208	-1.138578	0.797339
O	-1.016762	-2.097164	0.220316
O	-0.342116	-1.051445	2.013648
N	-0.635525	1.220721	0.540752
O	-1.844208	1.154241	0.779511
O	0.059585	2.220382	0.672187
F	2.570939	0.0	0.0
