15

C	-0.459094	0.045604	-1.445157
C	0.0	0.0	0.0
F	-0.025063	-1.151822	-2.040523
H	1.087956	0.0	0.0
H	0.105816	0.844083	-1.923595
N	-1.851394	0.25889	-1.619362
H	-2.353385	-0.527071	-1.227853
H	-2.068787	0.350423	-2.601984
N	-0.513946	-1.166638	0.751342
O	0.087681	-1.465012	1.777652
O	-1.499126	-1.778652	0.318453
N	-0.46445	1.22401	0.681117
O	-1.113451	1.134764	1.724074
O	-0.141736	2.279036	0.139085
F	2.478402	0.0	0.0
