15

C	-0.512403	-0.030838	-1.428807
C	0.0	0.0	0.0
F	0.040125	-1.115508	-2.080445
H	1.088285	0.0	0.0
H	-0.115256	0.857531	-1.931194
N	-1.942774	-0.189938	-1.501355
H	-2.234239	-0.095929	-2.467346
H	-2.372037	0.55735	-0.970649
N	-0.561101	-1.143088	0.757718
O	-1.518987	-0.950073	1.509163
O	-0.047222	-2.233983	0.533408
N	-0.397168	1.243282	0.691211
O	-0.043832	1.362956	1.858981
O	-0.995774	2.120031	0.049812
F	2.472479	0.0	0.0
