15

C	-0.253972	-0.09209	-1.495393
C	0.0	0.0	0.0
F	0.115385	1.149068	-2.051978
H	1.087767	0.0	0.0
H	-1.300146	-0.237651	-1.775138
N	0.590908	-1.140469	-1.920422
H	1.519033	-0.963865	-1.515448
H	0.63328	-1.183125	-2.929089
N	-0.536485	-1.215673	0.666261
O	-1.7622	-1.266438	0.811877
O	0.250126	-2.087084	1.012131
N	-0.643019	1.139254	0.681383
O	-0.36658	1.266103	1.875246
O	-1.414369	1.864698	0.056228
F	2.546471	0.0	0.0
