15

C	-0.299165	0.172568	-1.486865
C	0.0	0.0	0.0
F	-1.497303	0.892206	-1.671074
H	1.090767	0.0	0.0
H	-0.509899	-0.805762	-1.920302
N	0.796154	0.866583	-2.065462
H	0.956541	0.557437	-3.012686
H	1.640773	0.725326	-1.494949
N	-0.50436	-1.250638	0.607156
O	-0.360982	-1.353001	1.822401
O	-0.960575	-2.133667	-0.121776
N	-0.538342	1.155833	0.753304
O	-1.62724	1.035974	1.314222
O	0.128501	2.185293	0.700061
F	2.552583	0.0	0.0
