15

C	-0.300929	-0.186549	-1.485037
C	0.0	0.0	0.0
F	-0.374098	1.129429	-2.03867
H	1.087133	0.0	0.0
H	-1.279653	-0.622144	-1.692163
N	0.762861	-0.944301	-1.987676
H	1.653602	-0.640194	-1.569215
H	0.775425	-0.994345	-2.994827
N	-0.505295	-1.11192	0.834516
O	-0.310056	-1.000935	2.043709
O	-1.056931	-2.070359	0.293724
N	-0.630058	1.238097	0.512268
O	0.067918	2.238875	0.61341
O	-1.837369	1.180376	0.76092
F	2.565618	0.0	0.0
