18

C	0.0	0.0	0.0
C	-0.295223	0.014814	-1.529055
Cl	1.772937	0.0	0.0
H	0.269172	-0.845657	-1.896174
N	-0.485896	1.216356	0.754366
O	-0.711373	2.245224	0.129607
O	-0.517267	1.114751	1.973192
C	-0.430286	-1.27179	0.703488
H	0.033134	-1.305078	1.689487
H	-1.521851	-1.219754	0.743661
H	-0.087602	-2.124017	0.113545
N	0.178473	1.182315	-2.20017
H	0.101194	1.025139	-3.196743
H	-0.417276	1.959503	-1.952124
N	-1.711309	-0.365513	-2.002476
O	-1.939352	-1.570938	-2.057974
O	-2.370044	0.5082	-2.55017
F	-2.558012	0.0	0.0
