18

C	0.0	0.0	0.0
C	-0.311444	0.136565	-1.533807
Cl	1.77435	0.0	0.0
H	0.41778	-0.537356	-1.987919
N	-0.465009	1.120499	0.903305
O	-0.665667	2.230662	0.428509
O	-0.484483	0.865428	2.099793
C	-0.36127	-1.353838	0.599827
H	0.127886	-1.452082	1.568981
H	0.004788	-2.132139	-0.070383
H	-1.445875	-1.373749	0.674054
N	-0.163767	1.420834	-2.157999
H	-0.858841	2.035851	-1.753407
H	0.749311	1.782915	-1.905073
N	-1.608683	-0.47045	-2.039973
O	-2.413068	0.25383	-2.60062
O	-1.640666	-1.69957	-2.03047
F	-2.438397	0.0	0.0
