12
Coordinates from ORCA-job run
  C   0.93890661411973     -0.04180478944618     -0.05249810748586
  C   -0.43079648796632     -0.04105872670721      0.03346096398065
  C   1.83769740259161      0.68661574200849      0.77546317642365
  N   2.66315651257351      1.25737102529155      1.39154647112796
  C   1.49192451571239     -0.82806770136196     -1.10648298326567
  N   1.85821853310953     -1.49651175184555     -2.00480805655134
  N   -1.12461321663768      0.76417105132428      1.06626356155450
  O   -0.46311584406024      1.15942916936234      2.01895322469420
  O   -2.32289371781428      0.96647963114717      0.87390300164340
  N   -1.27874490277391     -0.75511536280218     -0.72590426821168
  H   -0.92496379980672     -1.20369061157914     -1.55753876857284
  H   -2.24577560904762     -0.46881767539161     -0.71235821533699
