12
Coordinates from ORCA-job run
  C   0.93948663653194      0.01146673199784     -0.05411365899805
  C   -0.43286178888441      0.01497141019165     -0.02693172168678
  C   1.80624841144533      0.70734441581208      0.83354507957715
  N   2.61044226839727      1.22781760535744      1.51854529283208
  C   1.53541617824310     -0.80091627315143     -1.06403571296948
  N   1.93922298509953     -1.49732805849298     -1.92420653576777
  N   -1.17033417317381      0.79689001779503      0.99355794873793
  O   -2.36178294216246      0.51882029025339      1.12554170146706
  O   -0.54808762760551      1.64747974770462      1.61855189739831
  N   -1.24798056730460     -0.61184632042606     -0.89185829903472
  H   -0.85619793006271     -1.30071374812413     -1.51613505901865
  H   -2.21157145052364     -0.71398581891745     -0.61146093253708
