12
Coordinates from ORCA-job run
  C   0.94196028045366      0.05033855690479     -0.02153463914884
  C   -0.42975684892452     -0.00423044375348     -0.04453747621538
  C   1.74503181971193      0.87804676298000      0.81077572026984
  N   2.50606636186727      1.50905147593822      1.45094622107553
  C   1.60457285062565     -0.85425511957100     -0.90339052307600
  N   2.05058799179494     -1.64432132090030     -1.65457367656995
  N   -1.24088626209827      0.85423840982848      0.85258621157273
  O   -0.67221816471944      1.77445762012929      1.42746167477491
  O   -2.43160017005297      0.55995210395680      0.94619801931439
  N   -1.18134858189215     -0.76205677680394     -0.86050903606936
  H   -0.73825767766826     -1.49846199610072     -1.38871275125673
  H   -2.15415159909784     -0.86375927260814     -0.61570974467115
