12
Coordinates from ORCA-job run
  C   0.93797177525413      0.00479866294833     -0.06059039378072
  C   -0.42895057500025     -0.05943353461091      0.04160069351462
  C   1.80584167240751      0.83515764035714      0.70173269146362
  N   2.61018549054577      1.48806959389156      1.26193952734973
  C   1.52386063234854     -0.82919645036202     -1.05872835808350
  N   1.92036944817258     -1.54488948616595     -1.90630396565328
  N   -1.15617764507359      0.78313466775578      1.01985744181310
  O   -0.50816841576466      1.28641914985188      1.92997395392568
  O   -2.36572955866414      0.90427646089207      0.82946791115195
  N   -1.24364341073757     -0.87176708087355     -0.65295132859374
  H   -2.22410405341331     -0.63477960248965     -0.65142768276081
  H   -0.87245536007501     -1.36079002119467     -1.45357049034666
