12
Coordinates from ORCA-job run
  C   0.94000846555474      0.02893702244833      0.00461383717123
  C   -0.43020280107470     -0.02307783525520      0.05617444273256
  C   1.72835711359835      1.13095368219587     -0.42929520240020
  N   2.47082802764529      1.97484078387035     -0.78065054690862
  C   1.61974552937949     -1.16097707248263      0.40025859138454
  N   2.09595611728302     -2.18492427442785      0.73558484823744
  N   -1.24920524054169      1.13807677510438     -0.36319697738258
  O   -0.69513939929897      2.22849806839251     -0.43761938512275
  O   -2.43289583365719      0.90150982169364     -0.60153629509727
  N   -1.17281279698281     -1.04937895949819      0.50493580369774
  H   -2.14967188192377     -1.04385278223040      0.25354008373113
  H   -0.72496729998176     -1.94060522981082      0.65719079995679
