12
Coordinates from ORCA-job run
  C   0.93680934026779      0.06012443983282     -0.07400190210615
  C   -0.43292646442493     -0.00962485646449     -0.02247210558798
  C   1.77360010865323      0.86811277483291      0.74480927098701
  N   2.55405472116691      1.48295979636654      1.37695184540080
  C   1.56320815276864     -0.79683916110609     -1.02700590435877
  N   1.99135196730720     -1.53907545293732     -1.83542611171683
  N   -1.19815646690834      0.80788938290407      0.94841405688169
  O   -0.62308634409088      1.75358246099072      1.47413851389821
  O   -2.36254569939182      0.46079909874894      1.14262046812538
  N   -1.22418502994631     -0.74654670487673     -0.82017225935176
  H   -2.17515575463511     -0.88248253996802     -0.51249392888891
  H   -0.80296853076637     -1.45889923832335     -1.39736194328270
