12
Coordinates from ORCA-job run
  C   0.92898952547044      0.08359030084851     -0.11509018491012
  C   -0.43537676871436     -0.00948907199404     -0.00481976083982
  C   1.51516686716040     -0.64073379593098     -1.19523068650714
  N   1.91465495501616     -1.26846343429513     -2.10861653943877
  C   1.80139395952013      0.78563085264377      0.76240263487051
  N   2.61160767134266      1.31575802461645      1.43289186119291
  N   -1.15358355185031      0.67169145151175      1.09696200910644
  O   -2.29174225490071      0.26554415336412      1.32820452529120
  O   -0.56868734131235      1.57456120052580      1.68395966552883
  N   -1.26290573771427     -0.65002440242406     -0.84877890132764
  H   -2.19204800227795     -0.84228521179409     -0.50562631905294
  H   -0.86746932173984     -1.28478006707210     -1.52625830391347
