12
Coordinates from ORCA-job run
  C   0.93207616962671     -0.02144193530812     -0.09677625710383
  C   -0.43114294248117     -0.02792869850903      0.04422385675762
  C   1.58913213885979     -1.27917666259403      0.04668804494196
  N   2.05166090039553     -2.35212853762454      0.19707639193626
  C   1.72575668055292      1.12488499991390     -0.38209716662905
  N   2.45396683730685      2.01229714327927     -0.64387351207972
  N   -1.19388382267723      1.23254968441472     -0.06723049233634
  O   -2.34540840382222      1.13295935751550     -0.48633627020776
  O   -0.62744496655549      2.26120100316034      0.28745206868923
  N   -1.21252912871905     -1.11574980769742      0.18363744544361
  H   -0.77569346559252     -1.99003013832033      0.43726235517387
  H   -2.16648999689413     -0.97743640823026      0.47997353541414
