12
Coordinates from ORCA-job run
  C   0.94005870502555      0.00689367347018     -0.02145557625393
  C   -0.42920177330691     -0.02336054370196      0.06438860522041
  C   1.59855191320237     -1.24857889852782      0.13669247878834
  N   2.05792202913254     -2.32447391818983      0.27571562228929
  C   1.74566071362352      1.15025106194542     -0.28088764412359
  N   2.50213858859244      2.02459464647514     -0.50468833763913
  N   -1.22743929758183      1.21186549754090     -0.11360212713019
  O   -0.64377039289939      2.28515788494870     -0.01818795559717
  O   -2.42529548418609      1.04885316817173     -0.34299563640883
  N   -1.18690029504986     -1.09660353025621      0.34818970171850
  H   -2.17018950920216     -1.02396092133562      0.13500847820135
  H   -0.76053519735020     -2.01063812054063      0.32182239093493
