12
Coordinates from ORCA-job run
  C   0.93325302369258     -0.11237734192197      0.06285538528642
  C   -0.43271971497999     -0.01372255045985     -0.02661034872765
  C   1.75114207233438      0.41542390012116      1.10068949998616
  N   2.51806803746381      0.82224647138489      1.89655689253236
  C   1.57682691144128     -0.77973783109404     -1.02102262642737
  N   2.02013862301542     -1.33840072056703     -1.95881351660352
  N   -1.21074230542280      0.69528760293512      1.01742653362068
  O   -0.66825485584038      0.88801852368063      2.09956661787979
  O   -2.35332833752270      1.02703868021170      0.70300839046759
  N   -1.20925802085768     -0.53406787406178     -0.99098123409333
  H   -2.15217322609767     -0.18190350869327     -1.05452502984814
  H   -0.77295220722623     -0.88780535153555     -1.82915056407300
