12
Coordinates from ORCA-job run
  C   0.92452488997524     -0.09928003742317     -0.18110714528779
  C   -0.41033991717697     -0.02338861156499      0.10335569548867
  C   1.55557416992505     -1.37262289400481     -0.05743051950522
  N   1.99999917699153     -2.45552317528681      0.07305187407446
  C   1.70218564926360      1.02580661111098     -0.57406889380056
  N   2.35170454462791      1.94794691167997     -0.90920329081524
  N   -1.09195792477903      1.28009602840878      0.00576597397385
  O   -0.63086787852783      2.19508185723151      0.68222590251660
  O   -2.07994672206629      1.31647101727876     -0.72400097313138
  N   -1.23781396980597     -1.02019308414078      0.43065972914787
  H   -0.88842766417401     -1.96241659002418      0.49000725096555
  H   -2.19563435425324     -0.83097803326524      0.66074439637319
