12
Coordinates from ORCA-job run
  C   0.93763640698065      0.01303823322644     -0.07077210429500
  C   -0.42831055452446     -0.06038898952912      0.05140681356029
  C   1.83169416546566      0.74844751245648      0.75465338794878
  N   2.67418074045178      1.31279725416307      1.35429366862832
  C   1.48750988856015     -0.68803930161528     -1.18534486162166
  N   1.82720817229168     -1.29254482502489     -2.13741645654954
  N   -1.13599361900358      0.67304019448724      1.12783400535814
  O   -2.35937203544314      0.73441337619767      1.02039464176707
  O   -0.45820369850840      1.14422581468873      2.03295909527580
  N   -1.25042928120892     -0.78340459797494     -0.72222948136706
  H   -0.89187142644388     -1.21959485756928     -1.55827637830922
  H   -2.23604875861753     -0.58098981350611     -0.66850233039592
