12
Coordinates from ORCA-job run
  C   0.90720334314203     -0.08107511929037     -0.25467065509276
  C   -0.42340347397456     -0.02674743005240      0.06946765790354
  C   1.65624477354863      0.95556674228743     -0.87614972464452
  N   2.35975162511604      1.76863639404886     -1.35613711095999
  C   1.59105621518801     -1.26368327757686      0.15802468440847
  N   2.07117185905154     -2.28505082160889      0.49313514023631
  N   -1.22559594903771      1.17344227941881     -0.25468708319531
  O   -2.23086937937318      1.35049191377832      0.43364217754813
  O   -0.83979218612678      1.88241976684009     -1.17735934699902
  N   -1.15853970792363     -0.99436802868064      0.64543334603452
  H   -0.68804858877678     -1.79278170189178      1.04423759874649
  H   -2.01717853083361     -0.68785071727259      1.07706331601413
