12
Coordinates from ORCA-job run
  C   0.93789551909990     -0.02808337372252     -0.08101744793144
  C   -0.42295049761018     -0.01300783794911      0.09596927184198
  C   1.54173928867394     -1.32014654579688     -0.11047604398778
  N   1.95108109722425     -2.42479568351744     -0.12908918077403
  C   1.77488468113771      1.10563165520583     -0.27641810765272
  N   2.55080210070643      1.97162864001237     -0.46317932168761
  N   -1.17082479853651      1.26369439294067      0.10886106459285
  O   -2.38264411093067      1.17928621157967     -0.08704046716607
  O   -0.53535699411492      2.29257781099879      0.30998839867766
  N   -1.21141054947214     -1.08040034451902      0.31441454251522
  H   -0.83194680191874     -2.00079450742035      0.14968661205281
  H   -2.20026893425908     -0.94559041781200      0.16830067951912
