12
Coordinates from ORCA-job run
  C   0.93988131242464      0.01811097962430      0.03522380027072
  C   -0.43151710065238     -0.02544961980401      0.04542115320401
  C   1.60170820524205     -1.21725759597910      0.30104435712269
  N   2.06273455138924     -2.27771225906442      0.52608958907509
  C   1.74526108340689      1.15504926404696     -0.25257789373361
  N   2.49967854833185      2.02687367638740     -0.49227501806251
  N   -1.22960926081194      1.18670596648040     -0.25061663974571
  O   -2.40405473959171      0.99297855986548     -0.56213377500928
  O   -0.66871751493339      2.27261413475081     -0.16186990466776
  N   -1.19442141484781     -1.08986514021552      0.34875289717774
  H   -2.16222813711752     -1.04332166404033      0.06761782745653
  H   -0.75871553283993     -1.99872630205198      0.39432360691209
