12
Coordinates from ORCA-job run
  C   0.93758618706472      0.04224908814214      0.05765515739463
  C   -0.43237224914012     -0.03396166770102      0.02966279181021
  C   1.61822725428812     -1.16424811226651      0.39824498788944
  N   2.09660292313400     -2.20203466968331      0.68469651669347
  C   1.72734641343812      1.18547779215843     -0.24741212638934
  N   2.47308574947950      2.06325047294197     -0.49293485157142
  N   -1.24999761376805      1.14493592788719     -0.34066561856959
  O   -2.41888310692104      0.91279236169363     -0.64711232587071
  O   -0.70906425927491      2.24409126595515     -0.31328838650211
  N   -1.17807708781252     -1.10342621504815      0.35505838980644
  H   -0.72385041197281     -1.99825969388711      0.45925851410773
  H   -2.14160379851499     -1.08986655019241      0.05683695120124
