12
Coordinates from ORCA-job run
  C   0.93656392382398      0.06590547878027     -0.04958201361321
  C   -0.43132185058571     -0.01788082326195     -0.03458105784337
  C   1.73094842132201      0.87823200641960      0.80697745627903
  N   2.46570430065917      1.48785913077830      1.49785038412693
  C   1.60828515760257     -0.77713689206755     -0.98269963226789
  N   2.07142942912267     -1.48365194307303     -1.80500807431501
  N   -1.22463125065950      0.79598119506736      0.91117954129433
  O   -2.32245411284776      0.33531020349428      1.22274850849638
  O   -0.73896181351426      1.85755230426349      1.29007312400430
  N   -1.19848896113895     -0.75820697526961     -0.85399120007317
  H   -2.14269638325577     -0.94546187012414     -0.55041974854813
  H   -0.75437686052846     -1.43850181500700     -1.45154728754018
