12
Coordinates from ORCA-job run
  C   0.93506438413727     -0.03790106890469     -0.09757888627106
  C   -0.42033829674966     -0.00594994664894      0.11212479971183
  C   1.55524662851327     -1.31604889084434      0.03395364890646
  N   1.98442617589295     -2.40549998097269      0.16191517157980
  C   1.75293060699054      1.06178971648667     -0.48139836518347
  N   2.51351881405208      1.89688328772767     -0.81481553022758
  N   -1.17569012989907      1.26295315657747     -0.03338850203448
  O   -2.38798729524375      1.14615298287991     -0.20824044471789
  O   -0.54522240304951      2.31117059693428      0.02900247252309
  N   -1.19831575219648     -1.03279151941941      0.49569446750194
  H   -2.19023102231369     -0.91312499718757      0.35188426555597
  H   -0.82340171013394     -1.96863333662836      0.44984690265542
