12
Coordinates from ORCA-job run
  C   0.94026868510888     -0.00233695838407     -0.01448807250436
  C   -0.42961759213169     -0.02092664422405      0.06531407246638
  C   1.58472230371737     -1.26954110045027      0.10226421854775
  N   2.03142465628469     -2.35492912044286      0.20358293292571
  C   1.75843659839404      1.13949848669237     -0.24026083908534
  N   2.52426257073118      2.01164529968410     -0.43948288189740
  N   -1.21352792648143      1.22865864442964     -0.07262583539175
  O   -0.61894855063893      2.29139067096504      0.06430237416820
  O   -2.41162426417959      1.08698091428332     -0.31443390669135
  N   -1.19990720936636     -1.09512230188418      0.30686018921476
  H   -0.78383393261805     -2.01226333712158      0.24607643123277
  H   -2.18165533882010     -1.00305455354746      0.09389131701462
