12
Coordinates from ORCA-job run
  C   0.93164854214068     -0.07656869881761      0.09759489256068
  C   -0.43194750052714     -0.02734691489092     -0.04692219508139
  C   1.68656654923743      0.44827880885440      1.18305700118780
  N   2.40516494088524      0.85828825875148      2.02110549581042
  C   1.64705085780974     -0.68733426492361     -0.97504237978501
  N   2.15573049256097     -1.20284321305605     -1.90417305003091
  N   -1.27961647501730      0.61398350178575      0.98627267746726
  O   -0.78676141650530      0.79744907956657      2.09298147552113
  O   -2.42185431565917      0.90828215296052      0.63624634831922
  N   -1.14801251176408     -0.55428043709989     -1.05489604447461
  H   -2.09608824715120     -0.22362563633746     -1.15253847277858
  H   -0.66188091600988     -0.85428263679318     -1.88668574871600
