12
Coordinates from ORCA-job run
  C   0.93791035243566      0.00378018644838     -0.06710915939731
  C   -0.42817873789198     -0.05915430969253      0.04784822372040
  C   1.80746367993971      0.87693914342175      0.64364478902658
  N   2.61223713100095      1.56237315170804      1.16291025323732
  C   1.51946768865150     -0.87912037595245     -1.02437411789699
  N   1.91244078117646     -1.63554616796907     -1.83750983798493
  N   -1.15184153118770      0.82734103186952      0.98929286901899
  O   -0.49898737899967      1.38021416929971      1.86674085885336
  O   -2.36359374293140      0.93325153482310      0.80303086961782
  N   -1.24442103524071     -0.90864901888961     -0.59937089037127
  H   -2.22572547666533     -0.67474323134143     -0.60124933646103
  H   -0.87777173028747     -1.42668611372540     -1.38385452136292
