12
Coordinates from ORCA-job run
  C   0.93996146627390      0.01474167034153     -0.02750040231675
  C   -0.42839577777732     -0.01950360696175      0.07130663384156
  C   1.61344542282931     -1.20527691202772      0.27738496630739
  N   2.08410614665400     -2.25197933590537      0.54341492499416
  C   1.73054098424010      1.12575222639762     -0.43301775185207
  N   2.47470121807650      1.97439874290854     -0.76894693086222
  N   -1.24171067485956      1.17550387271260     -0.25308561242442
  O   -0.67022402817636      2.25866254648942     -0.29442111906034
  O   -2.43823697575278      0.97181394656758     -0.45487369468570
  N   -1.17185104369677     -1.05794461456706      0.48940174760787
  H   -0.73514044061619     -1.96367390148267      0.57299988915671
  H   -2.15719629719485     -1.02249463447273      0.27633734929379
