12
Coordinates from ORCA-job run
  C   0.93591434748623     -0.01320808934641     -0.07102432060173
  C   -0.42660662072609     -0.01233865327469      0.09070708149378
  C   1.58980916358292     -1.26095264311047      0.15315885395240
  N   2.05477230469948     -2.32567876073036      0.34611394718878
  C   1.74169503317341      1.09006126807076     -0.46862024368318
  N   2.49613254022535      1.92875162666369     -0.80662907388297
  N   -1.21633691524916      1.21987310536653     -0.14809169505843
  O   -2.42717904415598      1.06072476175108     -0.29832712483167
  O   -0.61334867180110      2.28596644313633     -0.17399950986488
  N   -1.18302317501369     -1.04288145187478      0.50425787957773
  H   -2.17507107247842     -0.96558069221345      0.33825551288273
  H   -0.77675788974294     -1.96573691443824      0.53519869282743
