12
Coordinates from ORCA-job run
  C   0.93706716850050      0.04773462470049     -0.10859964048801
  C   -0.42804268719633     -0.03073684173614      0.03189090662287
  C   1.47948338007616     -0.66701317919144     -1.21741457106612
  N   1.83294434863817     -1.28453881519149     -2.15657324724858
  C   1.84305600372105      0.75721451027093      0.72668676538758
  N   2.68222311224884      1.30422450391807      1.34637069170294
  N   -1.12496761733943      0.66131380559418      1.14393272642381
  O   -0.44180201335893      1.30893301791335      1.92839610469078
  O   -2.34689972842765      0.52268845560648      1.18457576007610
  N   -1.26569675481477     -0.69545574702897     -0.77300119514705
  H   -2.24792465961105     -0.69712908129194     -0.55142547190741
  H   -0.91744055243658     -1.22723525356353     -1.55483882904694
