12
Coordinates from ORCA-job run
  C   0.90769117642250     -0.02643768277720     -0.24186047640998
  C   -0.42911170822855     -0.02770954936635      0.06754065239337
  C   1.57678484024106     -1.27920932309097     -0.10756152539436
  N   2.04928260891899     -2.34936132761015      0.03216920782296
  C   1.68260969691878      1.09824472170041     -0.63973523995350
  N   2.41777051082478      1.96137597019237     -0.95830830797846
  N   -1.22483360286849      1.21983491336241     -0.00628930413236
  O   -2.30312998609024      1.20501413140235      0.58631246034774
  O   -0.75684250561815      2.15639238119524     -0.64320464357554
  N   -1.16777313593815     -1.09676108972708      0.41136682964935
  H   -2.05884520993242     -0.90652827843889      0.84453498875792
  H   -0.69460268465011     -1.95385486684214      0.65503535847286
