12
Coordinates from ORCA-job run
  C   0.93320023494429      0.11894430473312     -0.06012361818490
  C   -0.43025305506120     -0.03571704685130     -0.03274336532900
  C   1.69665008160096      1.02535084276544      0.72686040666776
  N   2.42227086322859      1.72409328898266      1.33695210326736
  C   1.63409351185870     -0.75707905734854     -0.94112329144252
  N   2.11654399927286     -1.53043296206461     -1.68722797050595
  N   -1.26854506950011      0.78787117016591      0.86904397416367
  O   -2.40673105843399      0.36885756177696      1.07674148008211
  O   -0.77215395697205      1.80758236965574      1.33329174671241
  N   -1.15349576160465     -0.86979559319513     -0.79923308371294
  H   -2.09954987790800     -1.05184363054804     -0.50001848539128
  H   -0.67302991142541     -1.58783124807221     -1.32041989632673
