12
Coordinates from ORCA-job run
  C   0.93737711226999      0.04648901041984      0.05412925087112
  C   -0.43245094391545     -0.02965601775905      0.03638131429943
  C   1.61761675803444     -1.11869174730002      0.51695257977521
  N   2.09536940182870     -2.12205781517786      0.90774854744522
  C   1.72740303330312      1.14971410197229     -0.37342798492741
  N   2.47214873613762      1.99545111269793     -0.71548461285362
  N   -1.24761798043552      1.10561950121868     -0.45534217547965
  O   -2.41097492468225      0.84066872891814     -0.75578948643781
  O   -0.70995008650628      2.20468321387788     -0.52264712894768
  N   -1.18053294166041     -1.05723274135240      0.47348294325831
  H   -2.14157664246515     -1.07622109748023      0.16714287459655
  H   -0.72681152190880     -1.93776625003520      0.66585387840033
