12
Coordinates from ORCA-job run
  C   0.89927555833645     -0.11657220582145     -0.28668845597939
  C   -0.42589413387263     -0.05945290832158      0.04111941326834
  C   1.62507646598648      0.99841800207638     -0.79693956176219
  N   2.26332202275602      1.92788691751068     -1.13916511625462
  C   1.57754281747777     -1.33804437403156     -0.00030816018940
  N   2.02415382828813     -2.37281861904735      0.33796781518228
  N   -1.15430109515722      1.21142878620488     -0.17071908046633
  O   -0.91242624372608      1.83007318261339     -1.20196176824011
  O   -1.92108680139260      1.54234456226447      0.73077000222660
  N   -1.20817261051012     -1.04152932469380      0.53270653873709
  H   -2.01944294478379     -0.72488129371031      1.04401971389551
  H   -0.74804686340240     -1.85685272504376      0.91019865958222
