12
Coordinates from ORCA-job run
  C   0.91696811869022     -0.02498663360849     -0.21013339391540
  C   -0.42937741061753     -0.02785201209879      0.05553338507417
  C   1.58493587788300     -1.27258466787245     -0.03009235475158
  N   2.05289594583602     -2.33904399384549      0.14717561308713
  C   1.69885319261176      1.09493679580826     -0.60798651401584
  N   2.43973363647341      1.95479376941145     -0.92214023725571
  N   -1.23023958942436      1.21302704638839     -0.06920968266427
  O   -2.33333091965556      1.19794680371225      0.47535861467625
  O   -0.74153494151034      2.14386758935949     -0.69858626887237
  N   -1.17182344438893     -1.09395291715135      0.39854516429834
  H   -2.08243428350685     -0.90260428899277      0.78784411490687
  H   -0.70364618239084     -1.94454749111051      0.67269155943240
