12
Coordinates from ORCA-job run
  C   0.92618821887675     -0.01920725153790     -0.14699506054072
  C   -0.43227332627636     -0.06827620458315      0.02922866049146
  C   1.67958082762823     -1.03554202530927      0.51109304184261
  N   2.24215471884698     -1.88848115941083      1.09678263865646
  C   1.63638342123138      0.96952007259376     -0.88372754051062
  N   2.30281652342319      1.76347349033370     -1.44208237953386
  N   -1.30537195280157      0.96746704293985     -0.57219910369335
  O   -2.37835705524553      1.15454872645801      0.00132965944018
  O   -0.89465882017582      1.55292778048220     -1.56699570091141
  N   -1.13032106303028     -1.01900531621661      0.68400500865504
  H   -0.60765501504363     -1.64829643732860      1.27428512166416
  H   -2.04048647743334     -0.72912871842118      1.01727565444002
