12
Coordinates from ORCA-job run
  C   0.90723302334818     -0.03357980092611     -0.24509244098290
  C   -0.42812219933182     -0.02262207612473      0.07097597318156
  C   1.56246408757824     -1.29498570944231     -0.12437233693393
  N   2.02286201761278     -2.37146195859753      0.00640354388560
  C   1.69111369533044      1.08463983411766     -0.64414949613498
  N   2.43164140085513      1.94151454675198     -0.96710187435757
  N   -1.21058793748921      1.23420631320055      0.01379805750001
  O   -0.73271838749795      2.17396514372857     -0.61076200816624
  O   -2.28919783204414      1.22264645408180      0.60554220137552
  N   -1.17628801463140     -1.08644204649351      0.40969384631909
  H   -2.06488114274215     -0.89340035820997      0.84630125154500
  H   -0.71151871098810     -1.95248034208638      0.63776328276884
