12
Coordinates from ORCA-job run
  C   0.93283843229226     -0.05498854632887      0.10291958521083
  C   -0.43211623651655     -0.03876147487638     -0.03458931561283
  C   1.69402061117058      0.69055836887773      1.04569241237016
  N   2.41731911965198      1.27538514390572      1.76801916906945
  C   1.63986077947725     -0.87493058215510     -0.82592918008517
  N   2.13973013723322     -1.57461817200677     -1.63114955078373
  N   -1.27034892787161      0.80321762818318      0.85021269733286
  O   -2.40417328974921      1.04820042355521      0.44034948615124
  O   -0.77749955554919      1.18717625315770      1.90419597167451
  N   -1.15765580540670     -0.76793487327850     -0.90056636767242
  H   -2.10405155387771     -0.45857044307425     -1.06383850136977
  H   -0.67792371085433     -1.23573372595966     -1.65531640628512
