13

C	-0.533375	-0.05317	-1.415623
C	0.0	0.0	0.0
Cl	-0.091336	1.421246	-2.356968
H	1.093176	0.0	0.0
H	-1.628471	-0.072444	-1.435872
H	-0.378284	0.92564	0.446828
C	-0.068461	-1.230058	-2.155638
N	0.259203	-2.187885	-2.751564
C	-0.462131	-1.217133	0.791728
H	-0.119157	-1.121343	1.82705
H	0.004678	-2.121952	0.390653
H	-1.553796	-1.360291	0.805432
F	2.654929	0.0	0.0
