13

C	-0.37297	0.047989	-1.470539
C	0.0	0.0	0.0
Cl	0.025785	-1.50097	-2.295749
H	1.093396	0.0	0.0
H	0.247067	0.805267	-1.957212
H	-0.415902	-0.904645	0.454231
C	-1.785621	0.337097	-1.732697
N	-2.921288	0.593276	-1.894536
C	-0.458126	1.26019	0.723992
H	-1.544649	1.406772	0.740102
H	0.005874	2.139941	0.267055
H	-0.09787	1.221321	1.754964
F	2.662579	0.0	0.0
