13

C	-0.394923	0.049133	-1.464897
C	0.0	0.0	0.0
Cl	0.075666	-1.464682	-2.317825
H	1.093252	0.0	0.0
H	0.170975	0.848802	-1.951303
H	-0.403708	-0.910215	0.454006
C	-1.826994	0.260567	-1.694651
N	-2.979416	0.45344	-1.828388
C	-0.467644	1.25203	0.732869
H	-1.556258	1.377834	0.770275
H	-0.086225	1.218594	1.756131
H	-0.029781	2.14037	0.266534
F	2.670366	0.0	0.0
