13

C	-0.263331	0.028901	-1.457389
C	0.022358	-0.109754	0.041857
Cl	-0.021387	-1.673896	-2.201564
H	1.076345	-0.384415	0.147098
H	-0.09384	0.881763	0.488885
C	-1.67968	0.32486	-1.722535
N	-2.803811	0.597654	-1.928208
N	0.561094	1.024069	-1.988803
H	0.518521	1.065526	-2.998102
H	1.533143	0.931674	-1.651828
C	-0.854957	-1.058288	0.714962
N	-1.565171	-1.796114	1.28845
Cl	3.34063	0.510334	-0.559177
