13

C	-0.567202	-0.062733	-1.464059
C	0.065424	-0.09828	-0.072765
Cl	0.255152	1.295161	-2.378192
H	1.155495	-0.147177	-0.110225
H	-0.146748	0.854493	0.423606
C	-0.293655	-1.28887	-2.224539
N	-0.116348	-2.267192	-2.849461
N	-1.981266	0.109392	-1.377662
H	-2.39531	0.194888	-2.298161
H	-2.192265	0.941565	-0.839478
C	-0.491187	-1.192777	0.715341
N	-0.948584	-2.06202	1.358169
Cl	3.252732	0.513956	0.407629
