13

C	-0.390776	0.221868	-1.401546
C	0.209361	0.476481	-0.014649
Cl	-1.902734	-0.854051	-1.135249
H	1.102439	1.085996	-0.154292
H	0.543936	-0.491439	0.378584
C	-0.940119	1.449926	-1.996532
N	-1.344545	2.438665	-2.485637
N	0.588495	-0.336649	-2.226531
H	1.107726	-1.087913	-1.743726
H	0.217976	-0.648344	-3.114092
C	-0.706362	1.144667	0.900591
N	-1.416278	1.699212	1.653029
Cl	2.101428	-2.365263	-0.3208
