13

C	-0.586616	-0.005888	-1.439747
C	0.04959	0.070136	-0.049956
Cl	0.047308	1.411987	-2.426175
H	1.138354	0.125092	-0.097602
H	-0.196854	-0.852883	0.483338
C	-0.150673	-1.215656	-2.147303
N	0.114703	-2.195448	-2.737433
N	-2.010845	-0.023723	-1.359507
H	-2.338933	0.796687	-0.861678
H	-2.423816	-0.039125	-2.284028
C	-0.509699	1.201928	0.678501
N	-1.018944	2.1031	1.233397
Cl	3.291057	-0.278085	0.24958
