13

C	-0.499928	-0.061873	-1.445838
C	0.0	0.0	0.0
Cl	-0.181209	1.527212	-2.229243
H	1.094032	0.0	0.0
H	-1.586966	-0.177924	-1.472505
H	-0.345063	0.912185	0.492919
C	0.191219	-1.164223	-2.224428
H	-0.061465	-2.133335	-1.783125
H	1.273309	-1.026574	-2.165989
H	-0.12661	-1.161767	-3.268914
C	-0.500104	-1.156253	0.737262
N	-0.932063	-2.099876	1.286972
Br	3.569662	0.0	0.0
