13

C	-0.541813	0.020619	-1.425375
C	0.0	0.0	0.0
Cl	-0.039971	-1.460738	-2.297996
H	1.092672	0.0	0.0
H	-0.050256	0.842971	-1.947049
H	-0.301754	0.937138	0.485101
C	-2.049715	0.146708	-1.503776
H	-2.524375	-0.709003	-1.022464
H	-2.385629	0.191755	-2.541448
H	-2.37074	1.057142	-0.991414
C	-0.543287	-1.104383	0.782144
N	-1.029701	-1.973329	1.403609
Br	3.560815	0.0	0.0
