19

C	0.0	0.0	0.0
C	-0.43008	-0.079358	-1.482708
F	1.373054	0.0	0.0
H	0.328677	-0.736007	-1.921858
C	-0.578692	1.101112	0.831643
H	-0.250493	1.00998	1.866817
H	-1.670442	1.040895	0.800065
H	-0.248869	2.059955	0.431083
N	-0.321725	-1.35965	0.635587
O	0.106486	-2.340427	0.028928
O	-0.931565	-1.39504	1.698916
C	-0.32823	1.297435	-2.127506
H	0.625505	1.784541	-1.905459
H	-0.425025	1.17799	-3.207223
H	-1.146804	1.937564	-1.789333
N	-1.718394	-0.65364	-1.772715
H	-2.50072	-0.186352	-1.31102
H	-1.757095	-1.624789	-1.492587
Br	-4.521322	0.0	0.0
