19

C	0.0	0.0	0.0
C	-0.603177	0.172131	-1.388417
F	1.368686	0.0	0.0
H	-1.687215	0.168199	-1.209417
C	-0.504686	1.014295	0.98831
H	-1.593969	0.959104	1.039359
H	-0.195934	1.996414	0.634719
H	-0.076805	0.814452	1.972165
N	-0.316785	-1.412066	0.52638
O	-1.17619	-1.538808	1.389541
O	0.357466	-2.327872	0.052535
C	-0.247624	-0.922162	-2.389776
H	-0.650563	-0.634099	-3.364737
H	0.837033	-1.038631	-2.474118
H	-0.674037	-1.887251	-2.119592
N	-0.215531	1.511341	-1.849756
H	-0.972634	1.894547	-2.401174
H	0.601112	1.439185	-2.445128
Br	-4.088872	0.0	0.0
