13

C	0.0	0.0	0.0
C	-0.492824	0.309469	-1.431009
Br	1.942316	0.0	0.0
H	0.370172	0.364249	-2.110159
H	-0.306197	0.811065	0.651077
C	-0.445569	-1.246641	0.613111
N	-0.55142	-2.238338	1.23738
C	-1.191544	1.589002	-1.471148
N	-1.575889	2.692413	-1.581762
N	-1.328876	-0.770274	-2.064456
O	-0.932217	-1.91624	-1.892753
O	-2.213764	-0.422	-2.831324
F	-2.288703	0.0	0.0
