13

C	0.0	0.0	0.0
C	-0.491293	0.262698	-1.440511
Br	1.942553	0.0	0.0
H	0.36724	0.261258	-2.126034
H	-0.31215	0.824959	0.630144
C	-0.434896	-1.237614	0.639491
N	-0.536918	-2.219941	1.278084
C	-1.132495	1.569281	-1.523188
N	-1.455231	2.688495	-1.671961
N	-1.380442	-0.798464	-2.034755
O	-1.031817	-1.956812	-1.84405
O	-2.258699	-0.426919	-2.798955
F	-2.287987	0.0	0.0
