13

C	0.0	0.0	0.0
C	-0.490948	0.29721	-1.435337
Br	1.942357	0.0	0.0
H	0.375026	0.36404	-2.109387
H	-0.306624	0.819375	0.640297
C	-0.450933	-1.239314	0.623234
N	-0.53086	-2.250254	1.220148
C	-1.203805	1.568018	-1.48702
N	-1.58035	2.672215	-1.621185
N	-1.307824	-0.796757	-2.069335
O	-0.888766	-1.934836	-1.896898
O	-2.205853	-0.46711	-2.82896
F	-2.286907	0.0	0.0
