13

C	0.0	0.0	0.0
C	-0.250657	0.092012	-1.537392
Br	1.942352	0.0	0.0
H	0.241019	-0.772722	-1.991031
H	-0.364099	0.879305	0.514754
C	-0.50889	-1.222172	0.60215
N	-0.611283	-2.257649	1.150955
C	0.358298	1.306091	-2.093649
N	0.85707	2.252131	-2.579188
N	-1.664762	0.02375	-2.097618
O	-2.210286	1.077435	-2.388416
O	-2.03535	-1.100065	-2.409226
F	-2.27214	0.0	0.0
