13

C	0.0	0.0	0.0
C	-0.492611	0.293778	-1.436582
Br	1.942332	0.0	0.0
H	0.374534	0.363846	-2.109823
H	-0.312003	0.818544	0.639659
C	-0.447553	-1.243125	0.617164
N	-0.523156	-2.258921	1.205873
C	-1.216754	1.558201	-1.493185
N	-1.587375	2.664551	-1.631475
N	-1.291962	-0.813913	-2.06849
O	-2.224485	-0.507983	-2.794655
O	-0.824266	-1.937235	-1.922971
F	-2.283745	0.0	0.0
