15

C	-0.458122	-0.001565	-1.480087
C	0.0	0.0	0.0
Br	0.351163	1.510493	-2.440663
H	1.096	0.0	0.0
C	-0.053012	-1.22731	-2.169723
N	0.240397	-2.204066	-2.755117
C	-1.912317	0.147389	-1.580706
N	-3.08044	0.277433	-1.616822
C	-0.496989	-1.225178	0.621581
N	-0.919961	-2.188138	1.146737
C	-0.478457	1.226349	0.774957
H	-1.56898	1.295953	0.80829
H	-0.062306	2.129602	0.328863
H	-0.095283	1.152406	1.794174
Br	3.379105	0.0	0.0
