15

C	-0.45287	0.013399	-1.477575
C	0.0	0.0	0.0
Br	0.262378	-1.550254	-2.421988
H	1.095926	0.0	0.0
C	-1.914001	-0.032127	-1.58374
N	-3.089024	-0.053603	-1.62677
C	0.03019	1.214701	-2.161245
N	0.399628	2.17138	-2.736108
C	-0.501879	-1.204461	0.651635
N	-0.920404	-2.144894	1.218822
C	-0.469995	1.2559	0.738759
H	-1.559816	1.342961	0.758028
H	-0.099224	1.207734	1.763936
H	-0.034325	2.141022	0.271324
Br	3.376636	0.0	0.0
