17

C	-0.305696	-0.111167	-1.49868
C	0.0	0.0	0.0
F	-1.588077	-0.671016	-1.699953
H	1.09189	0.0	0.0
C	-0.420356	1.244308	-2.097892
N	-0.475279	2.284804	-2.641042
N	0.678519	-0.891177	-2.142716
H	0.814786	-0.622518	-3.107188
H	1.560267	-0.841893	-1.617215
N	-0.422616	-1.255431	0.657835
O	0.086442	-2.302368	0.259718
O	-1.223457	-1.187095	1.599026
C	-0.56694	1.21082	0.696382
H	-1.651852	1.283379	0.590334
H	-0.32593	1.159125	1.758262
H	-0.09604	2.107082	0.288111
H	2.676333	0.0	0.0
