17

C	-0.275564	0.157276	-1.492448
C	0.0	0.0	0.0
F	-0.078704	-1.09892	-2.107011
H	1.092718	0.0	0.0
C	-1.65581	0.560015	-1.85562
N	-2.719205	0.953363	-2.16111
N	0.647439	1.126442	-1.942465
H	1.580143	0.891733	-1.567926
H	0.657869	1.176329	-2.953343
N	-0.569268	-1.256375	0.527355
O	0.03933	-1.805128	1.444569
O	-1.650008	-1.642105	0.067935
C	-0.500792	1.151413	0.84656
H	-0.150752	1.012955	1.872136
H	-1.593077	1.220508	0.835988
H	-0.073947	2.07669	0.459581
H	2.774739	0.0	0.0
