17

C	-0.316132	-0.163988	-1.493668
C	0.0	0.0	0.0
F	-1.57489	-0.786832	-1.663738
H	1.091899	0.0	0.0
C	-0.506526	1.168317	-2.129496
N	-0.620556	2.193511	-2.692624
N	0.696312	-0.913363	-2.127567
H	0.827334	-0.654162	-3.094852
H	1.576686	-0.83673	-1.602432
N	-0.41132	-1.230305	0.70695
O	-1.144671	-1.124863	1.697904
O	0.050063	-2.296132	0.300656
C	-0.554733	1.236364	0.660204
H	-0.288892	1.226816	1.717013
H	-1.64213	1.303776	0.575958
H	-0.096147	2.116672	0.206203
H	2.671194	0.0	0.0
