17

C	-0.278018	0.084819	-1.499231
C	0.0	0.0	0.0
F	-0.137089	-1.216033	-2.034284
H	1.092357	0.0	0.0
C	-1.649512	0.506048	-1.871534
N	-2.722903	0.878288	-2.169192
N	0.674327	0.989504	-2.008249
H	0.693628	0.974987	-3.019889
H	1.5992	0.760782	-1.608402
N	-0.567044	-1.246524	0.56361
O	0.134837	-1.914476	1.320396
O	-1.739618	-1.505817	0.276944
C	-0.519881	1.180238	0.79122
H	-0.100966	2.092564	0.366224
H	-0.17327	1.095847	1.823809
H	-1.611694	1.233347	0.773487
H	2.806268	0.0	0.0
