17

C	-0.316871	-0.135938	-1.498914
C	0.0	0.0	0.0
F	-1.54604	-0.814401	-1.681143
H	1.091743	0.0	0.0
C	-0.579905	1.20076	-2.099442
N	-0.752852	2.227453	-2.645155
N	0.728234	-0.815542	-2.155496
H	0.857373	-0.513417	-3.110077
H	1.602967	-0.741107	-1.618038
N	-0.404718	-1.247772	0.679981
O	-1.128576	-1.16817	1.680822
O	0.051642	-2.301833	0.239532
C	-0.554779	1.219724	0.689719
H	-0.10668	2.111905	0.248114
H	-1.64338	1.282846	0.618661
H	-0.276972	1.190979	1.743211
H	2.674238	0.0	0.0
