17

C	-0.472103	0.004186	-1.455558
C	0.0	0.0	0.0
F	-0.243078	1.292962	-1.932417
H	1.090825	0.0	0.0
C	0.323533	-0.900778	-2.318918
N	0.878598	-1.587651	-3.09191
N	-1.870358	-0.27661	-1.696157
H	-2.008061	-1.259152	-1.487852
H	-2.408926	0.257831	-1.021468
N	-0.384816	-1.207622	0.649256
O	-0.358583	-1.245471	1.896956
O	-0.565938	-2.230556	-0.060103
C	-0.368493	1.231053	0.795813
H	-0.009829	2.114456	0.268695
H	-1.44552	1.320116	0.977485
H	0.140207	1.172621	1.757643
H	2.416671	0.0	0.0
