17

C	-0.563066	0.010038	-1.434198
C	0.0	0.0	0.0
Cl	0.432956	-1.079333	-2.449786
H	1.090328	0.0	0.0
C	-2.033896	-0.38065	-1.585189
H	-2.319728	-0.259386	-2.630851
H	-2.654301	0.261046	-0.959963
H	-2.165615	-1.420628	-1.296944
C	-0.389835	1.368234	-1.964169
N	-0.366366	2.45311	-2.415388
N	-0.38634	-1.198822	0.807928
O	-0.620947	-2.24535	0.211103
O	-0.341358	-1.058131	2.024308
N	-0.519748	1.194155	0.738918
O	0.270265	2.097993	0.974193
O	-1.718974	1.18715	1.018696
Br	3.312919	0.0	0.0
