17

C	-0.455891	0.012584	-1.460845
C	0.0	0.0	0.0
Cl	-2.229449	0.299771	-1.602918
H	1.090767	0.0	0.0
C	0.288456	1.095866	-2.242102
H	-0.01435	2.082807	-1.899192
H	0.052953	0.989385	-3.301332
H	1.36094	0.971817	-2.072446
C	-0.155004	-1.282395	-2.076039
N	0.145098	-2.273157	-2.631759
N	-0.461413	-1.174819	0.794455
O	-1.248816	-1.968825	0.282976
O	0.009705	-1.243526	1.924261
N	-0.48166	1.222238	0.71636
O	0.112793	2.2621	0.453966
O	-1.437724	1.106	1.478078
Br	3.311423	0.0	0.0
