21

C	0.0	0.0	0.0
C	-0.373209	-0.092551	-1.504277
Br	1.990344	0.0	0.0
H	0.317726	0.582287	-2.024615
C	-0.438592	1.322873	0.609888
H	-1.530833	1.334734	0.676561
H	-0.025295	1.436234	1.615173
H	-0.108408	2.168071	0.00112
C	-0.51098	-1.159327	0.83372
H	-0.116703	-2.11777	0.495311
H	-0.236038	-1.023629	1.882718
H	-1.605008	-1.172218	0.76335
C	-1.79303	0.387366	-1.798384
H	-1.903576	1.461068	-1.636046
H	-2.024312	0.190477	-2.850021
H	-2.564314	-0.098788	-1.198259
C	-0.174146	-1.498063	-2.070896
H	0.801197	-1.916133	-1.811144
H	-0.247748	-1.464653	-3.161822
H	-0.957126	-2.170607	-1.712784
Br	-4.884523	0.0	0.0
