21

C	0.0	0.0	0.0
C	-0.520433	0.006328	-1.450857
Br	1.985744	0.0	0.0
H	-1.613324	0.00784	-1.316874
C	-0.4574	1.235954	0.760289
H	-0.056989	2.156439	0.334522
H	-0.139612	1.177286	1.804495
H	-1.552835	1.251235	0.718703
C	-0.45771	-1.242901	0.748583
H	-1.553086	-1.258645	0.705047
H	-0.142285	-1.193	1.793831
H	-0.055302	-2.159234	0.31549
C	-0.154064	-1.243258	-2.249058
H	-0.551818	-2.150354	-1.79223
H	0.930079	-1.347541	-2.354726
H	-0.588907	-1.170883	-3.25027
C	-0.149807	1.260392	-2.240132
H	-0.542855	2.166249	-1.77648
H	-0.586104	1.197463	-3.241419
H	0.934641	1.360723	-2.346152
Br	-4.05752	0.0	0.0
