15
Coordinates from ORCA-job run
  C   0.68888370632801     -0.15768439144042     -0.33085329664749
  C   -0.53331943434229     -0.04364911626896      0.23432661167012
  C   1.72305158781315      0.92411441470835     -0.49313100545016
  H   2.48537053839122      0.82581391329887      0.28402466577623
  H   1.29225774073924      1.91958889057430     -0.41435172360429
  H   2.21292460978734      0.81864591463528     -1.46232946951585
  C   1.05993846847611     -1.45346783927114     -0.81899371282955
  N   1.39675774085168     -2.50529074929805     -1.22730077983317
  N   -0.94011937066248      1.27116591153754      0.74803247270371
  O   -2.05223011037118      1.66725363660523      0.40151778978005
  O   -0.16383120546520      1.86590335655071      1.49499727302035
  C   -1.58707725191820     -1.08943733524350      0.36694016240398
  H   -1.91953613758808     -1.15563292726164      1.40666254931490
  H   -2.45384251264412     -0.82342731834502     -0.24130276132523
  H   -1.20922836939521     -2.06189636078154      0.05276122453642
