15
Coordinates from ORCA-job run
  C   0.80056474967574      0.03225891873547     -0.03748681277510
  C   -0.48497567235455      0.03108838488139      0.37654883044871
  C   1.23974375621586      0.01465219311425     -1.47789071232903
  H   0.40205924571602     -0.03877444521090     -2.16983064915850
  H   1.82228199043871      0.91337069999439     -1.69674630855216
  H   1.88998978698468     -0.84580692040403     -1.65345817485997
  C   1.88699149236975      0.02224505923237      0.89886422035214
  N   2.85857057377877     -0.00835240738312      1.56291149535413
  N   -0.75724760252277     -0.00240236088592      1.82560759599663
  O   -1.61852457870297     -0.80520878863936      2.18333753824567
  O   -0.13746657433908      0.76703377760881      2.55529394409234
  C   -1.72880637404614     -0.01249850091501     -0.44494211272757
  H   -1.52965987690656      0.21471396576853     -1.48973504883874
  H   -2.44884096369937      0.71534011913604     -0.06292708825454
  H   -2.19367995260809     -0.99765969503291     -0.37154671699401
