15
Coordinates from ORCA-job run
  C   0.64038887454557      0.15017803665210     -0.42393383436137
  C   -0.54891818932880     -0.02591476710006      0.19014556826909
  C   2.00166491432233     -0.17499282405786      0.12458062664404
  H   2.62033317589240      0.72553444010496      0.12868122012288
  H   1.95132434788294     -0.54973178122575      1.14375463692556
  H   2.49451463369756     -0.91240591461992     -0.51311602945549
  C   0.60723517688444      0.67511475804174     -1.75769452007094
  N   0.60192949347569      1.10080934778055     -2.85526415912596
  N   -0.54790401329668     -0.59309398451081      1.54585972526290
  O   0.03199009016423      0.03167342619008      2.43241013635796
  O   -1.14591748581672     -1.65872572847160      1.68497720069818
  C   -1.91504950805084      0.25620281169942     -0.33260545577617
  H   -2.52319496640962     -0.64921790180181     -0.27759609475638
  H   -1.87420490154530      0.59828710508773     -1.36732914184210
  H   -2.39319164241719      1.02728297623122      0.27813012110779
