15
Coordinates from ORCA-job run
  C   0.77503693795116      0.19171082323123     -0.07905966600576
  C   -0.46722069942740     -0.03849388408851      0.39818488009198
  C   1.15540686650429      0.16006909285541     -1.53570730224986
  H   0.31899109781235     -0.10159064671786     -2.18009723495386
  H   1.95420007439086     -0.56909352341907     -1.69127370134374
  H   1.54225998788371      1.13672569877151     -1.83759617730487
  C   1.87483260951200      0.46114507623955      0.80120372194322
  N   2.85827302664480      0.66209111241645      1.41647633239855
  N   -0.67383516755445     -0.02453034712784      1.85814085033079
  O   -1.33842538663807     -0.95786314657922      2.30704781578046
  O   -0.19945321772110      0.90406916902419      2.50718349859962
  C   -1.70515014245514     -0.38841651321316     -0.35658417888367
  H   -1.95389901750663     -1.44051351496837     -0.20328807001151
  H   -1.59564107339961     -0.19581857085621     -1.42128461166199
  H   -2.54537589599677      0.20150917443189      0.01765384327064
