15
Coordinates from ORCA-job run
  C   0.76324619867879      0.23442179379181     -0.08117550306811
  C   -0.46044973480146     -0.07377514643908      0.40028310342776
  C   1.13379468825386      0.24773348882933     -1.54082254444435
  H   1.99008847313787     -0.40961461239478     -1.70912532087950
  H   1.43263107435857      1.25673392191993     -1.83667151730094
  H   0.31728514193159     -0.07847802896296     -2.18150584489040
  C   1.85031668809462      0.56024100793299      0.79595028336207
  N   2.82227688726648      0.81644586510633      1.40885592284406
  N   -0.65775380046168     -0.09239183441738      1.86174908492334
  O   -1.26689839885649     -1.06727884889407      2.30090285416153
  O   -0.23046742191616      0.85131397668092      2.52165506391236
  C   -1.68166747742949     -0.48262165167636     -0.35142521378153
  H   -1.58794781342720     -0.27690611738401     -1.41529119453429
  H   -2.54957521357370      0.05968274572782      0.03153840404653
  H   -1.87387929125560     -1.54750655982048     -0.20591757777853
