15
Coordinates from ORCA-job run
  C   0.70383660982327     -0.16692269428133     -0.30072568570564
  C   -0.55185244881437     -0.03894813734494      0.18332298424691
  C   1.72266274002272      0.92916333288791     -0.47447312450362
  H   2.72607912976842      0.51899113323986     -0.35370442966852
  H   1.64321687309288      1.35758251860732     -1.47648581380520
  H   1.57988717866710      1.73588944499764      0.24273567313242
  C   1.11065755981980     -1.47850926780606     -0.70991353369117
  N   1.47474130275065     -2.54325825273401     -1.05716499577833
  N   -0.99341153399151      1.29699238614972      0.60710549678643
  O   -0.79356256719020      2.24078365536633     -0.15669017217695
  O   -1.55238845955153      1.36176578860196      1.70126130839310
  C   -1.56832585854061     -1.10601806437041      0.40427759992182
  H   -2.51091931754434     -0.83069327831515     -0.07678964639042
  H   -1.22618387305463     -2.05641312777887     -0.00405745512154
  H   -1.76343733525765     -1.21940543721995      1.47230179436070
