15
Coordinates from ORCA-job run
  C   0.80379916626010      0.16706573362635     -0.05613238568204
  C   -0.43690387700149     -0.04469123993068      0.43471755067342
  C   1.07046214566535      0.24002767174590     -1.54359425336904
  H   2.12952675781813      0.41089561852387     -1.73107177892024
  H   0.50820270842592      1.05772984764194     -1.99980629790056
  H   0.78293881921939     -0.69098407958632     -2.03727350442861
  C   1.94830000763371      0.28995067625767      0.79433257136453
  N   2.96420762641437      0.37475448413739      1.38380867215849
  N   -0.63406840773907     -0.15504282037729      1.88980165282917
  O   -0.01363843221540      0.60902876337778      2.62465524541283
  O   -1.43649235466049     -1.01513767866052      2.25303990036641
  C   -1.67842018570719     -0.26554669231159     -0.35860760663954
  H   -1.99000193794065     -1.30976930169228     -0.28555597850821
  H   -1.52522649251696     -0.01113346020660     -1.40601492098568
  H   -2.49368554365573      0.34385247745439      0.03870113362906
