13

C	0.0	0.0	0.0
C	-0.602611	-0.035264	-1.387199
Cl	1.779302	0.0	0.0
H	-1.708633	-0.082161	-1.090811
H	-0.337566	-0.86316	0.571105
H	-0.350916	0.897062	0.508109
C	-0.230779	-1.234554	-2.117285
N	0.048095	-2.197031	-2.73442
C	-0.323245	1.225195	-2.197313
H	0.748848	1.388336	-2.344713
H	-0.743185	2.08319	-1.66371
H	-0.803382	1.168715	-3.177075
H	-2.9682	0.0	0.0
