16

C	0.0	0.0	0.0
C	-0.587685	0.209728	-1.38828
Cl	1.793566	0.0	0.0
H	-1.638115	0.457495	-1.188076
H	-0.27231	0.886481	0.574324
C	-0.519483	-1.24558	0.684402
H	-0.19269	-1.275343	1.725952
H	-0.145713	-2.141295	0.183698
H	-1.612991	-1.21543	0.654425
N	-0.464928	-1.013736	-2.198179
H	-0.848087	-0.790275	-3.111493
H	-1.103369	-1.702331	-1.80807
N	0.027051	1.351538	-2.035056
H	-0.560809	1.652216	-2.80304
H	0.922577	1.06182	-2.412391
Cl	-3.905323	0.0	0.0
