16

C	0.0	0.0	0.0
C	-0.408003	-0.124553	-1.48584
Cl	1.803842	0.0	0.0
H	0.169383	0.652374	-2.015302
H	-0.282904	0.998645	0.341049
C	-0.574186	-1.056153	0.911557
H	-1.664964	-0.963552	0.899894
H	-0.296405	-2.050584	0.565986
H	-0.226546	-0.91172	1.937241
N	-1.793058	0.114481	-1.791099
H	-2.43877	-0.439414	-1.232121
H	-2.055757	1.073605	-1.604705
N	-0.094058	-1.470736	-1.956388
H	0.908405	-1.586347	-2.044677
H	-0.517615	-1.556079	-2.872643
Cl	-4.492881	0.0	0.0
