16

C	0.0	0.0	0.0
C	-0.552561	0.215961	-1.41456
Cl	1.790858	0.0	0.0
H	-1.632171	0.059253	-1.30148
H	-0.299227	0.848432	0.619145
C	-0.507235	-1.286538	0.617215
H	-0.167603	-2.147383	0.035859
H	-1.60035	-1.251292	0.627578
H	-0.1356	-1.398688	1.638316
N	-0.070167	-0.700214	-2.430737
H	-0.487308	-1.61148	-2.293132
H	0.937601	-0.786914	-2.356886
N	-0.227086	1.568632	-1.866031
H	-0.569738	1.628387	-2.819031
H	-0.779736	2.219625	-1.315391
Cl	-3.855482	0.0	0.0
