16

C	0.0	0.0	0.0
C	-0.40377	-0.115553	-1.503497
Cl	1.798098	0.0	0.0
H	0.271995	0.566076	-2.034466
H	-0.279742	0.999476	0.341914
C	-0.588912	-1.045613	0.914772
H	-1.680376	-0.969694	0.859122
H	-0.283565	-0.877392	1.949678
H	-0.278564	-2.04985	0.62172
N	-1.745564	0.295794	-1.813133
H	-2.468388	-0.070465	-1.190183
H	-1.830667	1.302509	-1.765203
N	-0.196288	-1.456845	-2.047219
H	0.574576	-1.9181	-1.576911
H	-1.042059	-1.994988	-1.894941
Cl	-4.401744	0.0	0.0
