14

C	0.0	0.0	0.0
C	-0.547415	-0.053145	-1.40719
F	1.376037	0.0	0.0
H	-0.368608	0.898387	-1.900166
H	-1.648927	-0.219847	-1.257845
N	-0.533148	1.191227	0.577402
H	-0.330367	1.180657	1.573535
H	-1.570023	1.038388	0.484556
C	-0.339186	-1.217109	0.804828
N	-0.485626	-2.099823	1.566528
N	0.048623	-1.102115	-2.246084
O	0.265127	-0.823229	-3.429894
O	0.253092	-2.207677	-1.744224
H	-2.91747	0.0	0.0
