14

C	0.0	0.0	0.0
C	-0.43588	0.070188	-1.443621
F	1.417368	0.0	0.0
H	-1.552581	0.014524	-1.433057
H	-0.078926	1.037544	-1.790443
N	-0.510445	1.166458	0.62679
H	-1.485505	1.263096	0.26546
H	-0.654187	0.977665	1.617231
C	-0.318882	-1.260014	0.73429
N	-0.529327	-2.194642	1.423637
N	0.152724	-0.943472	-2.337942
O	0.283114	-0.624005	-3.521613
O	0.424281	-2.053355	-1.879178
H	-2.907003	0.0	0.0
