14

C	0.0	0.0	0.0
C	-0.505499	0.008885	-1.433448
F	1.388463	0.0	0.0
H	-1.609008	-0.025709	-1.349391
H	-0.066804	-0.818595	-1.988999
N	-0.545251	1.094737	0.703586
H	-1.584621	0.956627	0.571846
H	-0.347832	0.985782	1.693929
C	-0.32465	-1.348479	0.573611
N	-0.446953	-2.42831	1.021279
N	-0.0832	1.253121	-2.119568
O	1.000139	1.226225	-2.7126
O	-0.83376	2.224649	-2.074644
H	-2.93309	0.0	0.0
