13

C	-0.519076	0.019675	-1.384622
C	0.0	0.0	0.0
Cl	-2.289978	0.263862	-1.520638
H	1.089064	0.0	0.0
H	-0.348082	0.903448	0.505014
H	-0.357001	-0.884144	0.526345
N	0.190624	1.1474	-2.134303
O	1.18639	0.826888	-2.768672
O	-0.221834	2.28027	-1.919684
N	-0.21349	-1.252878	-2.165778
O	0.304903	-2.175026	-1.54923
O	-0.527279	-1.250008	-3.350359
H	2.80641	0.0	0.0
