13

C	-0.522851	-0.035105	-1.388965
C	0.0	0.0	0.0
Cl	0.072677	1.286322	-2.364031
H	1.08812	0.0	0.0
H	-0.369044	-0.865468	0.551576
H	-0.343084	0.925038	0.470988
N	-0.199145	-1.349865	-2.109067
O	-0.588266	-1.428646	-3.269857
O	0.388562	-2.211274	-1.473797
N	-2.064027	-0.035971	-1.396678
O	-2.659859	1.01291	-1.597858
O	-2.571818	-1.1121	-1.090378
H	2.821319	0.0	0.0
