13

C	-0.497454	0.01658	-1.384437
C	0.0	0.0	0.0
Cl	-2.3135	0.036502	-1.564962
H	1.085217	0.0	0.0
H	-0.352224	-0.898074	0.508172
H	-0.348351	0.889187	0.526524
N	0.038958	1.226125	-2.132894
O	0.900432	1.881855	-1.533526
O	-0.346246	1.406507	-3.288927
N	0.0118	-1.191487	-2.152784
O	-0.381833	-1.347612	-3.309136
O	0.860662	-1.874359	-1.566879
H	2.736473	0.0	0.0
