15
Coordinates from ORCA-job run
  C   -0.60316047851276     -0.42461911599853     -0.50923106067959
  C   0.55435725539874      0.37613199852893      0.10502574957971
  H   -0.49667257076893     -1.47338282230198     -0.21147142635713
  H   0.45255237617969      1.42346803855615     -0.20615665517373
  H   -0.48386901883257     -0.38978153309590     -1.59770580858883
  C   -1.97842603731253      0.10042681727656     -0.11328695337130
  H   -2.76852658855790     -0.47633911172772     -0.59901185069782
  H   -2.13050248799359      0.03460345244130      0.96625794208842
  H   -2.09827518676646      1.14635505899502     -0.40869983932237
  C   1.92235125669181     -0.14571491952038     -0.34548728568566
  H   2.73361477540310      0.44280662360035      0.08684092212633
  H   2.05264823458490     -1.18634277269514     -0.04067886525072
  H   1.99752600213789     -0.09185250175273     -1.43398787640059
  C   0.46123148736980      0.35484470619123      1.56833336570549
  N   0.38415098097880      0.31039608150284      2.73925964202778
