15
Coordinates from ORCA-job run
  C   -0.68693669742952      0.30593535017416     -0.79962273005876
  C   0.67518056790451      0.61343802590999     -0.15164367454306
  H   -0.49029619362102     -0.16247796976200     -1.77047193071196
  H   1.22308769147373      1.28667450277594     -0.82163110516007
  H   -1.19416266113412      1.25416796336439     -1.00412622283533
  C   -1.58934285675334     -0.58897279584326      0.04353213558057
  H   -1.76298800763442     -0.15454528269934      1.03098827575318
  H   -2.56027088121151     -0.71131154239207     -0.44134422654795
  H   -1.16351936694791     -1.58506746288316      0.17793564898026
  C   1.52930596498403     -0.63737828682797      0.08366602800579
  H   2.52387441071889     -0.36500690514918      0.44147498109274
  H   1.07373825846765     -1.29514154884619      0.82459074843880
  H   1.63863421244298     -1.18988872090120     -0.85289010909643
  C   0.47974458127631      1.33576048669356      1.11022503182694
  N   0.30395097746374      1.89381418638630      2.12831714927529
