15
Coordinates from ORCA-job run
  C   -0.69697080330937      0.29754553975251     -0.79362317213132
  C   0.65602731159326      0.63553193614792     -0.14194163152900
  H   -1.23197285770074      1.23327592218672     -0.98468729151550
  H   1.18152160336409      1.33821866079912     -0.79953517934570
  H   -0.48752402655563     -0.15117310037040     -1.77112881269550
  C   -1.57237455785202     -0.63507424498458      0.03707229469936
  H   -1.11730471503153     -1.61986930837792      0.15840204487520
  H   -1.75877155869456     -0.21934871387370      1.03029445457811
  H   -2.53938287820357     -0.77944330614841     -0.44964989962055
  C   1.54928383047552     -0.59222162660017      0.06869201775816
  H   1.67643830194991     -1.12197119017886     -0.87869641849082
  H   1.11431477397597     -1.27886801868663      0.79567291987325
  H   2.53463283699176     -0.29595265084639      0.43300761073379
  C   0.44121502858100      1.32766685078369      1.13360727444370
  N   0.25086771041591      1.86068325039709      2.16251378836683
