18

C	-0.501606	0.009709	-1.453693
C	0.0	0.0	0.0
Br	0.142413	1.685756	-2.284872
H	1.094664	0.0	0.0
C	0.13804	-1.142016	-2.212511
H	-0.100996	-1.08722	-3.277765
H	1.221745	-1.108433	-2.071121
H	-0.238486	-2.091892	-1.817345
C	-2.01659	0.030682	-1.546627
H	-2.343543	0.117369	-2.586324
H	-2.417181	-0.899279	-1.127825
H	-2.408129	0.87623	-0.978318
C	-0.43581	-1.241014	0.632851
N	-0.805044	-2.227447	1.159297
N	-0.442068	1.170383	0.767769
H	0.404963	1.607196	1.123169
H	-1.006369	0.894321	1.560813
H	2.74231	0.0	0.0
