18

C	-0.488863	-0.017877	-1.455881
C	0.0	0.0	0.0
Br	0.085632	1.691762	-2.298221
H	1.101586	0.0	0.0
C	0.225133	-1.132894	-2.202328
H	-0.003189	-1.094	-3.270658
H	1.303503	-1.043604	-2.040989
H	-0.10892	-2.098768	-1.808161
C	-2.00178	-0.072154	-1.578492
H	-2.310331	0.005573	-2.624423
H	-2.454309	0.735637	-1.002356
H	-2.355122	-1.028222	-1.177071
C	-0.451589	-1.232958	0.640386
N	-0.794432	-2.22918	1.164266
N	-0.539683	1.148643	0.75792
H	-0.23366	1.013443	1.717436
H	-0.002616	1.948282	0.42622
H	2.79406	0.0	0.0
