14

C	-0.60242	-0.015207	-1.395423
C	0.0	0.0	0.0
Br	-0.005972	1.742514	-2.216388
H	1.088275	0.0	0.0
H	-0.370216	0.868605	0.544172
C	-0.083065	-1.043734	-2.297407
N	0.236351	-1.827928	-3.111288
N	-2.016658	-0.130748	-1.327589
H	-2.440162	-0.114779	-2.246532
H	-2.408263	0.607455	-0.755584
N	-0.480066	-1.193041	0.746815
O	-1.043875	-0.996079	1.824366
O	-0.276772	-2.293141	0.242144
Cl	3.268351	0.0	0.0
