14

C	-0.33019	0.118408	-1.488207
C	0.0	0.0	0.0
Br	-0.296125	-1.883552	-2.153885
H	1.088707	0.0	0.0
H	-0.450883	-0.868182	0.464676
C	-1.710129	0.496701	-1.791025
N	-2.823608	0.795721	-2.022132
N	0.593627	0.927832	-2.116593
H	1.548302	0.781695	-1.784216
H	0.511294	0.980503	-3.120896
N	-0.501677	1.197017	0.728737
O	0.021065	2.282566	0.488062
O	-1.429286	1.009797	1.524547
Cl	3.289474	0.0	0.0
