14

C	-0.326393	0.15017	-1.48477
C	0.0	0.0	0.0
Br	-0.472073	-1.878577	-2.139945
H	1.088674	0.0	0.0
H	-0.420605	-0.886108	0.459609
C	-1.670181	0.62266	-1.80865
N	-2.73646	1.045583	-2.069705
N	0.663408	0.858275	-2.124662
H	1.605334	0.646534	-1.790084
H	0.577609	0.942459	-3.12619
N	-0.460687	1.167565	0.801327
O	-0.680959	0.946758	1.99091
O	-0.573541	2.257859	0.247767
Cl	3.270504	0.0	0.0
