14

C	-0.325044	0.136694	-1.486824
C	0.0	0.0	0.0
Br	-0.463071	-1.899901	-2.135703
H	1.088666	0.0	0.0
H	-0.447781	-0.871855	0.457517
C	-1.671445	0.609974	-1.795909
N	-2.751783	1.004116	-2.036638
N	0.649668	0.846223	-2.141741
H	1.601466	0.66724	-1.810499
H	0.547169	0.919857	-3.142861
N	-0.485554	1.187497	0.75731
O	-0.157456	2.301008	0.360254
O	-1.193735	0.961751	1.740539
Cl	3.285991	0.0	0.0
