14

C	-0.383087	0.048668	-1.485966
C	0.0	0.0	0.0
Br	-0.198667	-1.762859	-2.24692
H	1.088905	0.0	0.0
H	-0.366709	0.916784	0.471682
C	-1.764795	0.471641	-1.727897
N	-2.844546	0.882983	-1.938903
N	0.515017	0.918012	-2.212135
H	1.47312	0.695297	-1.92828
H	0.327358	1.88016	-1.946039
N	-0.615356	-1.120312	0.746805
O	0.114901	-1.914381	1.328715
O	-1.8485	-1.161812	0.730797
Cl	3.323609	0.0	0.0
