14

C	-0.503571	0.017088	-1.429975
C	0.0	0.0	0.0
Br	-2.652492	-0.174285	-1.26318
H	1.093122	0.0	0.0
H	-0.392373	0.844014	0.560321
C	-0.424618	1.360361	-1.994059
N	-0.34663	2.440807	-2.450623
N	0.05845	-0.92159	-2.256066
H	-0.265733	-0.923547	-3.210275
H	0.167363	-1.830601	-1.829617
N	-0.417457	-1.220792	0.729275
O	-0.300566	-2.303478	0.15171
O	-0.806522	-1.082963	1.884015
Cl	3.232409	0.0	0.0
