14

C	-0.511564	-0.001367	-1.424894
C	0.0	0.0	0.0
Br	-2.606088	0.144724	-1.300506
H	1.092067	0.0	0.0
H	-0.367547	-0.885607	0.517526
C	-0.159968	1.150705	-2.251337
N	0.139779	1.992334	-3.013763
N	-0.113572	-1.175896	-2.063407
H	-0.413733	-1.243425	-3.025285
H	-0.319089	-2.013211	-1.53618
N	-0.463522	1.160764	0.787019
O	-0.412957	2.265932	0.253476
O	-0.828018	0.941994	1.941842
Cl	3.254626	0.0	0.0
