16

C	-0.399097	-0.156921	-1.478426
C	0.0	0.0	0.0
Cl	0.274882	-1.635642	-2.1591
H	1.101255	0.0	0.0
N	-1.939428	-0.223103	-1.564297
O	-2.506467	0.853741	-1.717405
O	-2.469183	-1.30981	-1.385716
C	0.033182	0.977021	-2.287623
N	0.406742	1.861169	-2.964192
C	-0.476277	-1.131754	0.908918
H	-0.005036	-0.990298	1.883049
H	-0.145822	-2.0916	0.514781
H	-1.560401	-1.144501	1.033479
C	-0.483581	1.290032	0.482022
N	-0.91306	2.305743	0.886452
Cl	3.206246	0.0	0.0
