16

C	-0.44382	-0.079723	-1.459681
C	0.0	0.0	0.0
Cl	-2.222084	0.017084	-1.631168
H	1.095908	0.0	0.0
N	0.148897	1.10645	-2.251802
O	-0.266654	2.210671	-1.938613
O	0.98915	0.836212	-3.096917
C	0.002608	-1.317566	-2.089923
N	0.305806	-2.347811	-2.567384
C	-0.423322	-1.242874	0.790757
H	0.019557	-2.13398	0.343016
H	-0.025475	-1.149107	1.80214
H	-1.509073	-1.350338	0.840196
C	-0.504331	1.200392	0.65475
N	-0.915091	2.109825	1.275399
Cl	3.193223	0.0	0.0
