16

C	-0.483413	0.072222	-1.458075
C	0.0	0.0	0.0
Cl	0.219379	1.456373	-2.284816
H	1.108216	0.0	0.0
N	-0.037556	-1.228994	-2.1686
O	1.067512	-1.250047	-2.676878
O	-0.844541	-2.152399	-2.098292
C	-1.940669	0.133623	-1.563146
N	-3.11107	0.222585	-1.632456
C	-0.466942	-1.262123	0.731578
H	-1.552113	-1.387205	0.700587
H	0.013836	-2.142191	0.305232
H	-0.144723	-1.183076	1.77088
C	-0.486093	1.194299	0.682618
N	-0.914574	2.132127	1.246605
Cl	3.227924	0.0	0.0
