15
Coordinates from ORCA-job run
  C   0.32459293032487     -0.81094474750833      0.21874958044422
  C   -0.47131868804084      0.35196435489290     -0.35714329061181
  H   -0.06153165589074     -1.73792251864630     -0.21350701762711
  H   -0.36850212165767      0.39467860453330     -1.44355761998851
  H   0.13341578234284     -0.85139809420713      1.29794680827433
  C   1.81605002651211     -0.66695239051650     -0.05878995611980
  H   2.00753624724200     -0.63251330654834     -1.13435827668280
  H   2.36610114792181     -1.51621354321744      0.35218068003756
  H   2.20755868139292      0.24939048729309      0.38155006892785
  N   -0.11197066368167      1.59322805963943      0.22759683956547
  H   -0.31523512177239      1.58868319094068      1.21935389232451
  H   -0.60961490647752      2.36410900923066     -0.19805511936515
  N   -1.95169068774713     -0.00804872977719     -0.15408504049020
  O   -2.50863862771019      0.43817840812772      0.84636724744600
  O   -2.45675234275840     -0.75723878423653     -0.98524879613458
