15
Coordinates from ORCA-job run
  C   0.57718621476475     -0.47721394915636     -0.78508733438069
  C   -0.58260054857562      0.48095752928523     -0.54157671883799
  H   1.22645996773442      0.00410920084143     -1.52118615358254
  H   -1.14327354769551      0.63641760478381     -1.46550021626541
  H   0.17609081561299     -1.38628465897694     -1.23919044823591
  C   1.37000737639924     -0.81674869249431      0.47357471436260
  H   1.85547732976575      0.06614956083991      0.89496333565911
  H   2.15836834124544     -1.53325575383740      0.23528426042100
  H   0.73941885688902     -1.26498180945559      1.24450443913429
  N   -0.17588239842833      1.72645622667831      0.00116007658812
  H   -0.95549079963525      2.36731933483367      0.06914853758273
  H   0.21110251779711      1.60875493400342      0.92784399481660
  N   -1.58466911387502     -0.27538167252633      0.35270614270165
  O   -1.66447479975232      0.05609465681342      1.53370332888783
  O   -2.20572021224668     -1.19139251163228     -0.17834795885140
