17

C	0.0	0.0	0.0
C	-0.615544	0.028153	-1.386021
Br	1.957508	0.0	0.0
H	-1.69447	0.12472	-1.139524
H	-0.264467	-0.956014	0.458988
C	-0.522755	1.116956	0.881531
H	-0.150333	1.013548	1.903836
H	-0.222923	2.097535	0.505226
H	-1.620082	1.022167	0.868449
N	-0.344566	-1.241652	-2.083925
H	-0.869863	-1.957813	-1.5847
H	-0.793118	-1.178289	-2.994213
C	-0.171282	1.184153	-2.260457
H	-0.766391	1.194336	-3.180874
H	0.884309	1.086474	-2.530367
H	-0.328424	2.144112	-1.762888
H	-3.383659	0.0	0.0
