14

C	-0.501336	-0.264619	-1.418642
C	0.0	0.0	0.0
Br	-0.674566	1.491872	-2.313284
H	1.088653	0.0	0.0
H	-1.524453	-0.649419	-1.410361
H	-0.35658	0.93497	0.427385
C	0.430466	-1.143342	-2.235621
H	0.430406	-2.139941	-1.788496
H	0.103043	-1.210882	-3.275755
H	1.44475	-0.74456	-2.17435
N	-0.408794	-1.054855	0.918666
O	-0.529286	-2.208199	0.478639
O	-0.517356	-0.764925	2.114567
H	2.704251	0.0	0.0
