14

C	-0.541652	-0.003769	-1.415193
C	0.0	0.0	0.0
Br	0.004604	-1.582743	-2.444441
H	1.088092	0.0	0.0
H	-0.031316	0.822964	-1.91664
H	-0.347365	0.925458	0.468464
C	-2.051239	0.140533	-1.51035
H	-2.375748	0.216246	-2.550737
H	-2.362237	1.042166	-0.972573
H	-2.552458	-0.714528	-1.053066
N	-0.569901	-1.081273	0.815952
O	-0.105654	-2.213927	0.692475
O	-1.495198	-0.794512	1.593072
H	2.775686	0.0	0.0
