14

C	-0.541368	-0.003623	-1.415294
C	0.0	0.0	0.0
Br	0.006973	-1.581742	-2.4447
H	1.088109	0.0	0.0
H	-0.031744	0.823704	-1.91645
H	-0.347764	0.925075	0.468774
C	-2.051093	0.139071	-1.510549
H	-2.363184	1.040038	-0.972315
H	-2.551333	-0.716803	-1.053713
H	-2.375657	0.214852	-2.550922
N	-0.570261	-1.081806	0.814832
O	-0.106618	-2.214625	0.690553
O	-1.495071	-0.79505	1.592589
H	2.77525	0.0	0.0
