14
Coordinates from ORCA-job run
  C   0.73364536121495     -0.16228073808945     -0.26198979246547
  C   -0.47966024514758     -0.08767482656267      0.67752632608866
  Cl  1.73951562915474     -1.54664288296979      0.16298870362608
  H   -0.12400014725872     -0.04773649036351      1.70702371376573
  C   0.37449324573020     -0.18945517458878     -1.66854681186643
  N   0.08853301174810     -0.20664043491845     -2.80944486513869
  N   1.59132729523940      1.11131175618120     -0.00165909180373
  O   2.25260621309404      1.51367732025729     -0.94269064791842
  O   1.55466075567168      1.54637504730723      1.13926246231081
  N   -1.29416085818539     -1.36103639768219      0.54628481317111
  O   -1.91544843156012     -1.50604322863400     -0.49872649138206
  O   -1.23942772309403     -2.12453024619123      1.50199311259846
  C   -1.31122352276758      1.06120032801432      0.35299564181677
  N   -1.97086058383969      1.99947596824004      0.09698292719719
