14
Coordinates from ORCA-job run
  C   0.77915215183828      0.06883135125380      0.03803105797582
  C   -0.69677251851235     -0.36461783416847      0.08232994497428
  Cl  1.28996070777694      0.74861963793300      1.56190419579653
  H   -1.01370326219895     -0.59698685413867     -0.93981534442377
  C   1.60489912151452     -1.07233326221613     -0.33349734036130
  N   2.26660145844829     -1.99618284614057     -0.63805713188899
  N   0.95185920057514      1.10030534276460     -1.13614221411918
  O   0.49264229472103      0.69396329902924     -2.19146005125192
  O   1.53528993309039      2.13642579917483     -0.90669951238879
  N   -1.56961310872361      0.80168259112713      0.52762676584729
  O   -2.44716376100003      0.57041467055048      1.34405634568229
  O   -1.32014765156000      1.86580581667632     -0.02281917093572
  C   -0.87724337463326     -1.50631373349492      0.96305760478413
  N   -0.99576119133639     -2.44961397835065      1.65348485030932
