13

C	0.0	0.0	0.0
C	-0.493174	-0.299613	-1.420044
Br	2.02482	0.0	0.0
H	-1.594803	-0.21988	-1.356641
H	-0.224247	-1.33022	-1.672241
C	-0.330618	1.372075	0.395832
N	-0.574966	2.469046	0.738412
N	-0.549106	-0.912354	0.886628
H	-0.382546	-1.88447	0.685796
H	-0.529819	-0.674867	1.863694
C	0.045932	0.602353	-2.429322
N	0.462888	1.31342	-3.265009
Br	-3.79665	0.0	0.0
