13

C	0.0	0.0	0.0
C	-0.462022	-0.282161	-1.436718
Br	2.031014	0.0	0.0
H	-1.562773	-0.182063	-1.403527
H	-0.025797	0.447968	-2.122933
C	-0.325409	1.386091	0.356954
N	-0.468091	2.524981	0.608147
N	-0.54498	-0.898704	0.882955
H	-0.646901	-0.658023	1.851196
H	-0.53633	-1.87609	0.648421
C	-0.093784	-1.631475	-1.845986
N	0.190247	-2.730763	-2.146266
Br	-3.734123	0.0	0.0
