13

C	0.0	0.0	0.0
C	-0.500919	0.122055	-1.442892
Br	1.955278	0.0	0.0
H	-0.19097	-0.783877	-1.969819
H	-1.601673	0.142305	-1.383605
C	-0.339687	1.210165	0.777708
N	-0.573392	2.165043	1.423147
N	-0.505747	-1.227689	0.539977
H	-1.532256	-1.160824	0.472828
H	-0.264269	-1.29006	1.523255
C	-0.012731	1.303685	-2.14111
N	0.364271	2.246367	-2.73051
Br	-3.663588	0.0	0.0
