13

C	0.0	0.0	0.0
C	-0.210067	0.144991	-1.550116
Br	1.966821	0.0	0.0
H	0.330996	-0.700047	-1.988282
H	0.325819	1.044657	-1.863205
C	-0.385386	1.227539	0.705826
N	-0.599941	2.242928	1.256219
N	-0.522339	-1.147235	0.647546
H	-1.540724	-0.994793	0.726744
H	-0.37031	-1.962131	0.062364
C	-1.509497	0.179709	-2.234659
N	-2.245279	0.217957	-3.153087
Br	-3.570704	0.0	0.0
