15
Coordinates from ORCA-job run
  C   -0.89703631115156      0.09401969439106     -0.08187291794242
  C   0.56269193701817      0.32182388723329      0.32883923192781
  F   -1.12646422884157      0.57037738858060     -1.32190983519526
  H   0.67286247491174     -0.07797547726224      1.34216392458622
  N   -1.11274034382377     -1.42760246713054     -0.10958532523832
  O   -0.99686759778876     -1.97162261722992      0.98027683540224
  O   -1.33089050878753     -1.94021404029844     -1.19364594419255
  C   -1.85498295562925      0.65866882946738      0.87022514303131
  N   -2.60916836584320      1.13357947447064      1.63598355858656
  C   0.80531676152137      1.76455488443686      0.36560899470728
  N   1.02289001275992      2.91833160821633      0.37930424864393
  C   1.53128640765154     -0.38222812893706     -0.62717751434983
  H   1.35996301958071     -0.06375096190947     -1.65543182414356
  H   1.41737498585708     -1.46544462500299     -0.56239397846698
  H   2.55576471256513     -0.13251744902549     -0.35038459735643
