15
Coordinates from ORCA-job run
  C   -0.83254176849744     -0.15906176988552      0.31589747428559
  C   0.47759756682257      0.55721940816228     -0.02082057438140
  F   -1.17518667622135      0.13977727224331      1.59483710850317
  H   0.27388249888441      1.61941943112289      0.16059401100137
  N   -1.93376287713141      0.41337838191623     -0.58574688778985
  O   -2.30657022177211     -0.28185389783231     -1.52098153361848
  O   -2.29188742163882      1.54471889847480     -0.29341907011701
  C   -0.76227078320946     -1.60910515773360      0.14118212559264
  N   -0.64012660474555     -2.77476297208721      0.05693692185168
  C   0.78850658268057      0.37242346048469     -1.43788901847466
  N   1.06875812571623      0.21837823424157     -2.56794350852924
  C   1.62035568454283      0.07328917384342      0.87602674989155
  H   1.35319860632777      0.20687900671358      1.92452714075347
  H   2.51736523656059      0.65726815806333      0.66673608354175
  H   1.84168205168118     -0.97896762772746      0.69006297748943
