15
Coordinates from ORCA-job run
  C   -0.84249393472074     -0.18901365969170      0.26902223060216
  C   0.45633370906814      0.57529184143894      0.00083998300060
  F   -1.27042436901240      0.10723617930347      1.52263274281667
  H   0.20093350379035      1.63011947596656      0.15811671450241
  N   -1.91054376642834      0.33199858214193     -0.70126252460980
  O   -2.32711538978539      1.45156265360060     -0.44298210651311
  O   -2.20250769288239     -0.38561656482880     -1.64818432085405
  C   -0.70603961325523     -1.63664184754126      0.11453136948495
  N   -0.53425696137214     -2.79729634224062      0.05028645153334
  C   0.85547063419433      0.39017275591812     -1.39393602714866
  N   1.20567554877021      0.23688795540434     -2.50439793752380
  C   1.56296798002511      0.14483564712878      0.96736428660256
  H   1.83308013645526     -0.90047763193439      0.80842409844436
  H   1.23164292604586      0.28015447621676      1.99722196210222
  H   2.44827728910736      0.75978647911726      0.80132307756015
