15
Coordinates from ORCA-job run
  C   -0.82912368847509     -0.13353469146039      0.33271815572189
  C   0.51836861292778      0.52046847758727      0.01811354109568
  F   -1.10518915098642      0.05086135319173      1.64920802884155
  H   0.40109578435397      1.56764241747791      0.32198229429179
  N   -1.91514619883012      0.60880776844204     -0.45732593664518
  O   -2.37896688333006      0.04272947307363     -1.43780203294286
  O   -2.17005180571327      1.72825867820919     -0.03796225542195
  C   -0.87386880367675     -1.55812545028447      0.00661541258699
  N   -0.84414006725178     -2.71541270465408     -0.19416827382040
  C   0.75936716727034      0.47460825131778     -1.42364847898888
  N   0.97694799232549      0.43434786483439     -2.57718623634650
  C   1.65337523598001     -0.13909250613692      0.80551838937130
  H   1.78394665239519     -1.17953834044789      0.50276046626904
  H   1.43773888834107     -0.09793189738333      1.87362893135514
  H   2.58464626466962      0.39591130623313      0.61554799463240
