15
Coordinates from ORCA-job run
  C   -0.88950046136794      0.10629660154533     -0.13295368917969
  C   0.55115350155674      0.32519985344806      0.34510308044076
  F   -1.04381615428849      0.53499531607688     -1.40184612385588
  H   0.60057596591103     -0.03270650577322      1.37874508376906
  N   -1.13264143581828     -1.41106241540706     -0.11106788406352
  O   -1.30227010666426     -1.96373003273284     -1.18384907433930
  O   -1.08307017988041     -1.91219040716030      1.00404700727096
  C   -1.88496251847856      0.72752815807227      0.74221467959663
  N   -2.66963344461612      1.24484934630859      1.44746546666724
  C   0.81918692264860      1.76399329610362      0.33519666859068
  N   1.05601199834745      2.91383846625315      0.31542074054322
  C   1.55413249499867     -0.43540429888575     -0.52852412382769
  H   2.56782037287972     -0.19110215787986     -0.21014620018771
  H   1.44123798938544     -0.15870943942079     -1.57674245294552
  H   1.41677505538643     -1.51279578054808     -0.42406317847923
