15
Coordinates from ORCA-job run
  C   -0.95557157500291      0.24862693682402      0.27955309954333
  C   0.53881986197737      0.60231626865900      0.24987402827368
  F   -1.68416427937718      1.38171217475357      0.38485619050554
  H   0.69545753676019      1.18096831780986      1.16883721961711
  N   -1.34877173871585     -0.43527578613365     -1.03701950005984
  O   -1.02476243342430     -1.61342147885409     -1.12227108078197
  O   -1.89886926784819      0.26191423326143     -1.87212398233740
  C   -1.28115439912428     -0.66343623788675      1.37742855886923
  N   -1.51894344665264     -1.35841083129640      2.29440387516943
  C   0.79280055663785      1.49341635690784     -0.88446115342496
  N   1.03504604398933      2.18844589338311     -1.79939310355807
  C   1.48240139416983     -0.60379171069650      0.23846994229681
  H   1.38721678005247     -1.17354296820128     -0.68433544591646
  H   1.27235747826879     -1.26170326460312      1.08316325870580
  H   2.50913748828952     -0.24581790392698      0.32401809309779
