15
Coordinates from ORCA-job run
  C   -0.89252920313268      0.14008026169444     -0.06298139102708
  C   0.57455388321210      0.25147871800490      0.36980100007377
  F   -1.10145010689684      0.79740216645434     -1.22158239472183
  H   0.66799780635479     -0.28748021004937      1.31834467663225
  N   -1.16560738933749     -1.35219643277713     -0.30737131188350
  O   -1.39931462742807     -1.69587048800347     -1.45300025411438
  O   -1.07238678631955     -2.05071239133660      0.69295384152493
  C   -1.82960892228584      0.59967398475773      0.96332036433508
  N   -2.56453675052129      0.98273744570552      1.79634336911026
  C   0.87203161109801      1.66550449842773      0.60294627988320
  N   1.13095795361554      2.79842515694510      0.77043018591110
  C   1.51568927363855     -0.35139481478311     -0.67853302397550
  H   2.54938513128919     -0.17027510301672     -0.38286421275155
  H   1.34754949050176      0.10268849316160     -1.65525650215926
  H   1.36826863621183     -1.43006128518488     -0.75255062683750
