15
Coordinates from ORCA-job run
  C   -0.89896083290804      0.06342671880854     -0.08366820648341
  C   0.54893011879184      0.33367796995197      0.34383557525305
  F   -1.13928823518773      0.57055701527465     -1.30952009587982
  H   0.66820838831962     -0.08921475231661      1.34679813151919
  N   -1.05489047235305     -1.46328286382665     -0.16188431071877
  O   -1.24196228774278     -1.94889590896546     -1.26381833587057
  O   -0.92692874473490     -2.03710789277990      0.91125723532080
  C   -1.88403002485465      0.56057153027394      0.87822838676217
  N   -2.66667577785855      0.97765009483268      1.64911980981174
  C   0.73571265527303      1.78322748406717      0.42134361396961
  N   0.90473485320320      2.94436995770233      0.46355270102883
  C   1.54861869912531     -0.30667846129439     -0.62506746512556
  H   2.56124143809026     -0.01771537997475     -0.34253690220533
  H   1.36309935887463      0.02545636186944     -1.64669963231937
  H   1.48219086396189     -1.39504187362293     -0.58294050506253
