15
Coordinates from ORCA-job run
  C   -0.89204182298848      0.07600175034953     -0.13669559714553
  C   0.53530874958688      0.33723074290127      0.35955061264431
  F   -1.05383313500447      0.53554532200733     -1.39390035474422
  H   0.59113303318407     -0.04684843544063      1.38342946595670
  N   -1.07563059767220     -1.44955876890481     -0.16104917451235
  O   -1.21454623080255     -1.97696843866593     -1.25084818806463
  O   -1.01685174565275     -1.98050571088215      0.93978592581567
  C   -1.91768563726836      0.63146154411316      0.74774277198378
  N   -2.72589065231970      1.09578771200905      1.46327743052161
  C   0.74750652027558      1.78501600040223      0.39016059021232
  N   0.94086599542784      2.94310229138010      0.39736935648901
  C   1.57335843750185     -0.36007605121088     -0.52621815853632
  H   1.48066475678341     -1.44442212551915     -0.44681600149981
  H   2.57459522207614     -0.08062439241903     -0.19729346738946
  H   1.45304710687278     -0.06414144012010     -1.56849521173107
