15
Coordinates from ORCA-job run
  C   -0.95037108912921      0.27949286803499      0.27026792550931
  C   0.55309461117423      0.59303102830070      0.23977810549174
  F   -1.64915972357247      1.43314371189013      0.34835751601114
  H   0.72144279065232      1.18619957036974      1.14731307383410
  N   -1.35661236141072     -0.42184104417616     -1.03304182379800
  O   -1.88377650207142      0.27174585938991     -1.88571317636848
  O   -1.06474392867820     -1.61003886071297     -1.09125013602540
  C   -1.30321434615830     -0.59972867257127      1.38647661812572
  N   -1.55951594401714     -1.26306687929440      2.32181515065013
  C   0.83495650722018      1.45272585087690     -0.91218712253568
  N   1.10157899895089      2.11614709997517     -1.84360659082156
  C   1.46450605819485     -0.63746527946801      0.25617079023499
  H   1.23482980739513     -1.27237354601535      1.11324083537171
  H   1.35691210287568     -1.22298556281566     -0.65530943471724
  H   2.50007301857422     -0.30498614378371      0.33768826903754
