15
Coordinates from ORCA-job run
  C   -0.88168621234168      0.14582385635394     -0.14602914902037
  C   0.55111709599689      0.28032053970422      0.38414804684000
  F   -0.98725193854423      0.67469196453166     -1.38164203804927
  H   0.55983338082212     -0.15382279157728      1.38936745506128
  N   -1.17192392125078     -1.35972632910561     -0.24693092560839
  O   -1.32391628297370     -1.82456653143336     -1.36317671923773
  O   -1.17444213365722     -1.94430377704616      0.82801743287563
  C   -1.88180810854025      0.73101654068912      0.74848506312045
  N   -2.67127891135292      1.22273455532570      1.46662595964047
  C   0.86505511229984      1.70617959625255      0.48696685092085
  N   1.14072065027008      2.84578118419166      0.54963663792747
  C   1.55368957354868     -0.44756296402729     -0.51766780907742
  H   1.47312534471247     -0.09658009283378     -1.54662932013916
  H   2.56591142453203     -0.25486348469741     -0.16129594073831
  H   1.38385492647868     -1.52512226632797     -0.49087554451558
