15
Coordinates from ORCA-job run
  C   -0.85221268448072     -0.14636496977898      0.26372837913306
  C   0.51861411650013      0.51211589461832      0.09056591075865
  F   -1.21603280560551     -0.05730284202343      1.56839250265608
  H   0.38821870584935      1.53784596534227      0.45595968199986
  N   -1.87562550158330      0.66580704350412     -0.54053530917990
  O   -2.26777191747156      0.18316993713937     -1.59421809694988
  O   -2.15713858262690      1.75086541904491     -0.05362336833976
  C   -0.88468355191051     -1.54174488581986     -0.17219422598692
  N   -0.85071295833699     -2.67878593412006     -0.46658319636096
  C   0.86469856107824      0.55803038022011     -1.32970730647691
  N   1.17279741363887      0.58303545058521     -2.46278339658410
  C   1.58963575228377     -0.21328521126897      0.90967441510877
  H   1.73776376190988     -1.23018445533576      0.54239878833990
  H   1.29671062516659     -0.24698814460716      1.95928435991896
  H   2.53473906558862      0.32478635249991      0.82764086196312
