15
Coordinates from ORCA-job run
  C   -0.95926149275040      0.25300878652195      0.26395480104618
  C   0.53720708356198      0.59982185253855      0.25919595939440
  F   -1.68411353316871      1.38952622350014      0.35676666199573
  H   0.68118347534023      1.17719752268153      1.18100540747611
  N   -1.33384053712188     -0.42948989542275     -1.05859862184515
  O   -1.86509993879093      0.27043691142657     -1.90346167566183
  O   -1.01563139815727     -1.60962225978555     -1.13738781615396
  C   -1.30674093366694     -0.65686594632948      1.35695273293268
  N   -1.55890630384245     -1.34828453487923      2.27284486584652
  C   0.81354394651223      1.49015431880070     -0.87060428381444
  N   1.07483115890716      2.18059515266379     -1.78372710620111
  C   1.47520641108413     -0.61057031264778      0.26174469782201
  H   2.50221903664527     -0.25774325132824      0.36350926822445
  H   1.24879883373809     -1.26791918246049      1.10263398113773
  H   1.39160419170951     -1.17924538527970     -0.66282887219924
