15

C	-0.185172	0.000633	-1.492718
C	0.0	0.0	0.0
Br	-2.09994	0.266912	-2.075233
H	1.097827	0.0	0.0
H	0.037885	-0.993569	-1.88824
H	-0.348013	0.953208	0.41625
C	0.712765	1.032163	-2.144939
H	1.704769	0.840934	-1.707776
H	0.724209	0.945945	-3.234171
H	0.396286	2.042876	-1.873016
C	-0.598487	-1.18726	0.727853
H	-0.35091	-1.145681	1.792982
H	-0.177225	-2.119063	0.336519
H	-1.689537	-1.235938	0.630088
F	2.745923	0.0	0.0
