15

C	-0.168334	0.05204	-1.496516
C	0.0	0.0	0.0
Br	-2.083823	0.254794	-2.112416
H	1.098228	0.0	0.0
H	0.100536	-0.920966	-1.913158
H	-0.405114	-0.934116	0.40117
C	0.702689	1.123636	-2.124016
H	0.742834	1.031622	-3.211394
H	1.691683	0.954956	-1.670536
H	0.350046	2.126896	-1.872654
C	-0.507171	1.208074	0.769804
H	-1.581598	1.376397	0.638281
H	0.02624	2.110915	0.463617
H	-0.30862	1.073131	1.836946
F	2.737896	0.0	0.0
