13

C	-0.509731	-0.15291	-1.399515
C	0.0	0.0	0.0
F	-1.883942	-0.155233	-1.43522
H	1.089649	0.0	0.0
H	-0.13539	-1.037296	-1.905782
H	-0.395313	0.897247	0.469104
N	-0.080902	1.036228	-2.216323
O	0.508617	0.808876	-3.268945
O	-0.407478	2.139686	-1.786938
N	-0.450476	-1.160443	0.807404
O	-0.746628	-0.947526	1.980433
O	-0.465736	-2.263902	0.262642
Cl	3.249017	0.0	0.0
