13

C	-0.50957	-0.065198	-1.406333
C	0.0	0.0	0.0
F	-1.883218	-0.067731	-1.442799
H	1.089626	0.0	0.0
H	-0.132909	-0.914931	-1.967339
H	-0.395586	0.865942	0.524123
N	-0.080697	1.17409	-2.145773
O	0.519626	1.013706	-3.205104
O	-0.412087	2.248128	-1.650469
N	-0.450276	-1.208733	0.733217
O	-0.742947	-1.069893	1.918092
O	-0.468269	-2.275528	0.119995
Cl	3.247876	0.0	0.0
