13

C	-0.578122	-0.149814	-1.383901
C	0.0	0.0	0.0
F	-0.521102	1.043617	-2.034872
H	1.087326	0.0	0.0
H	-1.606888	-0.508896	-1.384351
H	-0.332181	0.959812	0.402508
N	0.189333	-1.171781	-2.194353
O	0.354298	-0.94132	-3.383573
O	0.503627	-2.186661	-1.587429
N	-0.518379	-1.027181	0.945587
O	0.003455	-1.052851	2.052739
O	-1.460349	-1.74053	0.592982
Cl	3.287371	0.0	0.0
