13

C	-0.598411	-0.111158	-1.370424
C	0.0	0.0	0.0
F	-1.954501	-0.24781	-1.293229
H	1.089516	0.0	0.0
H	-0.178761	-0.977584	-1.883579
H	-0.334944	-0.858925	0.580866
N	-0.29682	1.054264	-2.286383
O	-1.238719	1.700347	-2.721977
O	0.886078	1.198004	-2.547342
N	-0.493021	1.195807	0.725707
O	-0.76607	1.058101	1.915402
O	-0.566026	2.250049	0.099022
Cl	3.295625	0.0	0.0
