13

C	-0.594538	-0.082879	-1.375165
C	0.0	0.0	0.0
F	-1.955483	-0.190202	-1.308935
H	1.089506	0.0	0.0
H	-0.191831	-0.952461	-1.896722
H	-0.339968	-0.866031	0.567705
N	-0.259171	1.08903	-2.276063
O	-1.182022	1.763372	-2.711736
O	0.930672	1.20974	-2.52393
N	-0.486165	1.189033	0.742458
O	-0.5471	2.253056	0.130323
O	-0.765532	1.036129	1.929102
Cl	3.294569	0.0	0.0
