13

C	-0.55523	0.023021	-1.399761
C	0.0	0.0	0.0
F	0.113698	0.857665	-2.217291
H	1.089086	0.0	0.0
H	-1.619289	0.263378	-1.436058
H	-0.351604	-0.873926	0.544754
N	-0.464065	-1.383467	-1.973497
O	-1.104397	-2.232924	-1.358431
O	0.17604	-1.554285	-2.998704
N	-0.471618	1.183075	0.765065
O	-0.292817	1.154372	1.977795
O	-0.999536	2.110936	0.148739
Cl	3.262147	0.0	0.0
