14
Coordinates from ORCA-job run
  C   -0.56791790408604     -0.24469815133842     -0.40877951568730
  C   0.56917556694553      0.32528246954664      0.41500036874976
  F   -0.48320134501681     -1.64391160974952     -0.36438935992358
  H   0.42574538531854      0.00890225873102      1.45397710427723
  H   -0.44156352105838      0.03126641431090     -1.46259069415162
  H   0.48950312307659      1.41789976310955      0.39816767470157
  C   -1.94147566685375      0.15399513989430      0.08163225873277
  H   -2.07439745133150      1.23643535081870      0.01634122719210
  H   -2.07122626858259     -0.15366212289249      1.12149161333017
  H   -2.71377374870776     -0.32820281126379     -0.52007798610492
  C   1.94015738119698     -0.11606021973552     -0.08569197559992
  H   2.02431128072301     -1.20288199241569     -0.06036003002151
  H   2.10536694949175      0.21183185695414     -1.11560614706644
  H   2.73829621888443      0.30280365403019      0.53088546157168
