13

C	-0.139214	0.109002	-0.011676
C	-0.416177	-0.266449	-1.488681
Cl	1.255517	-0.798532	0.67109
H	0.457108	-0.003719	-2.100162
H	-1.113749	-0.152849	0.499706
C	0.139923	1.532779	0.06749
N	0.354261	2.688666	0.100413
N	-1.610918	0.383532	-1.992499
H	-1.43517	1.38228	-2.031528
H	-2.312401	0.19146	-1.24166
C	-0.583051	-1.725483	-1.595634
N	-0.669655	-2.886926	-1.737674
F	-2.677151	-0.387234	0.270571
