13

C	-0.135953	0.116918	-0.003517
C	-0.41138	-0.095316	-1.512907
Cl	1.264827	-0.851811	0.575228
H	0.46002	0.238989	-2.091201
H	-1.108644	-0.205284	0.475995
C	0.135294	1.524871	0.231963
N	0.344152	2.670861	0.393654
N	-1.610552	0.598474	-1.94203
H	-2.309984	0.321672	-1.216002
H	-1.441172	1.596604	-1.872364
C	-0.569034	-1.534697	-1.77997
N	-0.65028	-2.673974	-2.048552
F	-2.671233	-0.420626	0.223068
