13

C	-0.129099	0.12082	0.006222
C	-0.401913	0.221628	-1.514997
Cl	1.28736	-0.924914	0.375668
H	0.463724	0.682414	-2.008777
H	-1.096067	-0.308758	0.406461
C	0.12101	1.453394	0.528811
N	0.31377	2.544005	0.924316
N	-1.61254	0.97012	-1.794236
H	-1.459852	1.934417	-1.51741
H	-2.306639	0.537285	-1.143072
C	-0.536684	-1.133183	-2.075392
N	-0.599256	-2.19311	-2.574774
F	-2.655542	-0.491503	0.110387
