18

C	-0.418878	0.006014	-1.478535
C	0.0	0.0	0.0
F	-1.818724	-0.066842	-1.548456
H	1.09204	0.0	0.0
C	0.020506	1.277523	-2.174011
H	-0.522549	2.139638	-1.785774
H	1.090566	1.43337	-2.021721
H	-0.192741	1.184943	-3.241597
C	0.159926	-1.228449	-2.140242
H	-0.117835	-1.230956	-3.197286
H	1.248943	-1.218874	-2.043135
H	-0.233056	-2.134941	-1.675059
C	-0.51848	-1.168452	0.699155
N	-0.899325	-2.137795	1.241574
N	-0.493405	1.235793	0.690665
O	-1.579195	1.177776	1.266505
O	0.209222	2.23671	0.588596
Br	3.398915	0.0	0.0
