18

C	-0.408614	0.017211	-1.481722
C	0.0	0.0	0.0
F	-1.81045	-0.039032	-1.559735
H	1.092065	0.0	0.0
C	0.051194	1.285961	-2.172513
H	-0.485545	2.154219	-1.788572
H	-0.154092	1.196224	-3.242763
H	1.123249	1.42935	-2.011424
C	0.160434	-1.223416	-2.141756
H	-0.248178	-2.126426	-1.682489
H	-0.107537	-1.218776	-3.201649
H	1.249204	-1.228058	-2.035316
C	-0.51945	-1.177502	0.684332
N	-0.901336	-2.152909	1.2156
N	-0.495453	1.230062	0.69977
O	0.193447	2.240429	0.584747
O	-1.567883	1.157737	1.300914
Br	3.407849	0.0	0.0
