18

C	-0.48801	-0.003808	-1.464631
C	0.0	0.0	0.0
F	0.021265	1.155049	-2.049482
H	1.092192	0.0	0.0
C	0.136702	-1.192459	-2.168134
H	1.217767	-1.179882	-2.010034
H	-0.076511	-1.120129	-3.23754
H	-0.274028	-2.130983	-1.789433
C	-1.99628	0.063553	-1.604859
H	-2.378474	0.994203	-1.183309
H	-2.252091	0.032406	-2.666738
H	-2.479513	-0.772496	-1.096384
C	-0.513412	-1.161576	0.710605
N	-0.91212	-2.129483	1.243561
N	-0.479653	1.248099	0.68381
O	-1.582311	1.206467	1.236729
O	0.240331	2.234694	0.598004
Br	3.414128	0.0	0.0
