18

C	-0.477574	0.035417	-1.474157
C	0.0	0.0	0.0
F	-0.131914	-1.226988	-1.970659
H	1.091473	0.0	0.0
C	-1.982138	0.154265	-1.598072
H	-2.469474	-0.661897	-1.063861
H	-2.257794	0.094922	-2.653667
H	-2.342502	1.10214	-1.196425
C	0.291269	1.057087	-2.281064
H	1.35977	0.956476	-2.07959
H	-0.019433	2.072023	-2.037182
H	0.094447	0.865374	-3.338913
C	-0.521145	-1.173158	0.687451
N	-0.928149	-2.139702	1.214582
N	-0.469706	1.239349	0.699437
O	-1.422171	1.149346	1.473258
O	0.113415	2.278879	0.415827
Br	3.40504	0.0	0.0
