18

C	-0.487237	-0.006251	-1.465457
C	0.0	0.0	0.0
F	0.01996	1.152759	-2.05249
H	1.09221	0.0	0.0
C	0.139133	-1.19474	-2.169197
H	-0.270048	-2.134805	-1.791697
H	1.220983	-1.180463	-2.012977
H	-0.075129	-1.121323	-3.238409
C	-1.99628	0.058486	-1.604013
H	-2.477994	-0.779405	-1.09621
H	-2.379815	0.988634	-1.181355
H	-2.252849	0.028509	-2.665816
C	-0.510492	-1.162735	0.71187
N	-0.907121	-2.129168	1.249196
N	-0.484351	1.248503	0.680519
O	-1.578306	1.198772	1.25081
O	0.222622	2.243008	0.573531
Br	3.416775	0.0	0.0
