18

C	-0.393848	0.029807	-1.485436
C	0.0	0.0	0.0
F	-1.796724	0.042062	-1.573364
H	1.092081	0.0	0.0
C	0.137581	1.263376	-2.185307
H	-0.055256	1.166961	-3.256513
H	-0.35502	2.163993	-1.82066
H	1.212118	1.351727	-2.009083
C	0.117956	-1.242419	-2.133166
H	1.199773	-1.312786	-1.991698
H	-0.11012	-1.218059	-3.201157
H	-0.361328	-2.119158	-1.693996
C	-0.522225	-1.182043	0.672619
N	-0.902688	-2.167144	1.18618
N	-0.49082	1.223655	0.713812
O	0.147495	2.255569	0.530212
O	-1.503193	1.12317	1.406312
Br	3.385352	0.0	0.0
