18

C	-0.396879	0.01141	-1.484453
C	0.0	0.0	0.0
F	-1.799926	-0.031689	-1.572418
H	1.092056	0.0	0.0
C	0.081716	1.267118	-2.182519
H	-0.111196	1.167981	-3.253757
H	1.152423	1.399367	-2.010075
H	-0.44785	2.145304	-1.812971
C	0.16425	-1.238685	-2.132734
H	1.250564	-1.258645	-2.005995
H	-0.26672	-2.134272	-1.680569
H	-0.08178	-1.232058	-3.197756
C	-0.523311	-1.172437	0.688155
N	-0.904878	-2.145699	1.222632
N	-0.496469	1.233422	0.691444
O	-1.557677	1.159938	1.310237
O	0.182548	2.247246	0.555982
Br	3.395697	0.0	0.0
