18

C	-0.487926	-0.001419	-1.464897
C	0.0	0.0	0.0
F	0.008736	1.166487	-2.043168
H	1.092136	0.0	0.0
C	0.150356	-1.178948	-2.175577
H	-0.064673	-1.102319	-3.244309
H	1.231629	-1.154909	-2.018613
H	-0.248876	-2.124886	-1.802556
C	-1.997205	0.04983	-1.602926
H	-2.389695	0.972747	-1.173285
H	-2.253951	0.024107	-2.664674
H	-2.470106	-0.796051	-1.100571
C	-0.508591	-1.166873	0.706111
N	-0.903041	-2.139598	1.23343
N	-0.48443	1.243791	0.687544
O	0.227711	2.235803	0.597286
O	-1.583473	1.193561	1.247366
Br	3.420555	0.0	0.0
