18

C	-0.403012	0.005712	-1.481266
C	0.0	0.0	0.0
F	-1.805209	-0.046776	-1.563208
H	1.092037	0.0	0.0
C	0.063685	1.265102	-2.180757
H	1.134458	1.403296	-2.016261
H	-0.468657	2.138897	-1.805317
H	-0.13734	1.167198	-3.250128
C	0.163442	-1.242921	-2.127536
H	-0.252746	-2.139463	-1.663149
H	-0.096841	-1.246624	-3.18892
H	1.250909	-1.251139	-2.013379
C	-0.520595	-1.169828	0.694781
N	-0.901685	-2.135029	1.244325
N	-0.492807	1.236209	0.688883
O	-1.566084	1.172927	1.289898
O	0.201763	2.242255	0.570291
Br	3.407342	0.0	0.0
