15

C	0.0	0.0	0.0
C	-0.319132	0.032795	-1.518141
Br	1.961265	0.0	0.0
H	0.456303	-0.589273	-1.990674
H	-0.331606	0.933905	0.450667
C	-0.520637	-1.221775	0.717333
H	-0.174051	-1.24022	1.753062
H	-1.614449	-1.158273	0.695241
H	-0.188867	-2.137688	0.220157
N	-0.266471	1.418948	-1.993328
H	0.708043	1.694788	-2.045455
H	-0.659697	1.471953	-2.925256
C	-1.543355	-0.626018	-2.009388
N	-2.224291	-1.250873	-2.737347
Cl	-3.691369	0.0	0.0
