15

C	0.0	0.0	0.0
C	-0.401237	0.136694	-1.499318
Br	1.958302	0.0	0.0
H	0.279868	0.876649	-1.933052
H	-0.275624	0.936836	0.489404
C	-0.608941	-1.181055	0.714458
H	-1.699085	-1.077549	0.663421
H	-0.308124	-2.120946	0.246871
H	-0.310255	-1.196937	1.764988
N	-1.743804	0.572009	-1.795384
H	-1.842442	1.542422	-1.520677
H	-2.480134	0.073167	-1.287952
C	-0.114609	-1.131906	-2.195098
N	0.115397	-2.153213	-2.726113
Cl	-4.284722	0.0	0.0
