15

C	0.0	0.0	0.0
C	-0.43041	-0.319534	-1.45279
Br	1.953044	0.0	0.0
H	0.360177	0.032277	-2.121479
H	-0.273604	1.043068	0.163265
C	-0.598226	-0.897579	1.058611
H	-1.690801	-0.848302	0.974172
H	-0.30994	-0.559028	2.055836
H	-0.273497	-1.931876	0.928748
N	-1.634778	0.409839	-1.789484
H	-1.950173	0.13092	-2.711837
H	-2.413177	0.226446	-1.144596
C	-0.479074	-1.789445	-1.658821
N	-0.509789	-2.938697	-1.903739
Cl	-4.233251	0.0	0.0
