17
Coordinates from ORCA-job run
  C   0.49732395800039      0.18797589774966      0.43360598781810
  C   -0.66347004406761     -0.20838061739734     -0.48567234643630
  Cl  -0.04806641757405      0.17248865072896      2.11114668566188
  H   -0.37956891345557      0.04002843429795     -1.50999058679653
  C   1.69427621895230     -0.72649718351643      0.25863984238869
  H   1.99299012071277     -0.73795857192165     -0.79017271608910
  H   1.43223803322473     -1.73566828444396      0.56625523350526
  H   2.52045280408125     -0.35728807263451      0.86941330306133
  N   0.98127572960926      1.59543059629985      0.04764607850502
  O   1.27083921214048      1.70306698470682     -1.13883802097336
  O   1.10757126852177      2.44503595649965      0.91132060957011
  N   -1.85609382759696      0.72404027826407     -0.18887223527395
  O   -2.92212079044513      0.19816220304364      0.10863167754962
  O   -1.63946795897254      1.92640561049001     -0.28952101714743
  N   -0.97449486076005     -1.57988664756698     -0.36073007257633
  H   -1.61932524620700     -1.87129350546698     -1.08245375802251
  H   -1.39535928616405     -1.77466172913276      0.53959133525551
