17
Coordinates from ORCA-job run
  C   0.43335100426166      0.20752309992776      0.43382328157224
  C   -0.73571433566503     -0.18293803719276     -0.50334349197164
  Cl  -0.09997050374346      0.18664690511514      2.11156175995071
  H   -0.42277800623389      0.05918281929238     -1.52043353106951
  C   1.61963092234500     -0.71955762515780      0.25160579530512
  H   1.91671045100776     -0.74519236126825     -0.79752537660918
  H   2.45830813284521     -0.36081926677862      0.85079164339986
  H   1.35964156823807     -1.72144279702852      0.59061198512861
  N   0.91401873235940      1.61415046316615      0.04514446196954
  O   0.89774939774651      2.51140155029916      0.86964195993796
  O   1.31378820926737      1.68459434877638     -1.11271261256501
  N   -1.89084033827062      0.75516006193171     -0.20495213585254
  O   -2.86835867058286      0.29779799414849      0.37005077217125
  O   -1.71735020003163      1.92373461141882     -0.54193024046573
  N   -1.19554159443008     -1.52005814765106     -0.43348734178699
  H   -1.39310982012693     -1.82645256660087      0.50871280544578
  H   -0.58753494898648     -2.16273105239810     -0.91755973456045
