17
Coordinates from ORCA-job run
  C   0.65647198777229     -0.17393560255056      0.36223814126430
  C   -0.86418998204710     -0.44019444641321      0.23779635683375
  Cl  1.47000965952414     -1.61619570090606      0.99607863189841
  H   -1.19846161950076     -0.91652719053105      1.15688808281548
  C   1.35793587448153      0.31014825417651     -0.88100479966152
  H   0.87106455356955      1.19776980880051     -1.28527667727905
  H   1.34969189304931     -0.47517505048429     -1.63425664394976
  H   2.38859361538165      0.56583500083816     -0.64129616547847
  N   0.73686503010668      0.89323190484328      1.46291185013594
  O   1.36899190784641      1.91505815578331      1.22232670238565
  O   0.12974579755888      0.64756086042976      2.49950856649618
  N   -1.07336306601137     -1.45371774362514     -0.85566971362743
  O   -1.04979662336652     -1.02006835890390     -2.00539482816117
  O   -1.25331703878798     -2.61993766005805     -0.52085584145452
  N   -1.68059660055567      0.68930215326134     -0.05078971922342
  H   -1.35288135158605      1.24207796828757     -0.82912752491573
  H   -1.85576403743499      1.25376764705181      0.76692358192137
