17
Coordinates from ORCA-job run
  C   0.65592111277185     -0.13798064630141      0.46669749062909
  C   -0.71864807883860     -0.65520762549747     -0.00302116748175
  Cl  1.13050340296160     -1.03885752880852      1.91204599868181
  H   -0.57000092709104     -1.66657282300386     -0.38603905217427
  C   1.72764557465169     -0.27521602245311     -0.59154851803889
  H   2.68418104106262      0.05267172365269     -0.18698924767795
  H   1.50152202197684      0.32194914239827     -1.47216796625443
  H   1.80485023577762     -1.32476700316792     -0.87826254377946
  N   0.51471780657436      1.33777444087592      0.87335875390729
  O   1.13176396796562      2.15966389628950      0.20646336821521
  O   -0.20703313979788      1.58263194283751      1.83239892377582
  N   -1.05689642707807      0.15827357625537     -1.26956344974211
  O   -1.56701357405423      1.26119588982434     -1.08872606055835
  O   -0.80885331935702     -0.36212149420154     -2.35452026155223
  N   -1.73312698376559     -0.63514489961515      0.96877301939967
  H   -1.91195675580146      0.28823295287774      1.33658067791913
  H   -2.58257595795834     -1.06652552196237      0.63352003473137
