17
Coordinates from ORCA-job run
  C   0.54043463024996      0.24133105327161      0.34710100424299
  C   -0.71086415559654     -0.26998795612512     -0.37576470516749
  Cl  0.20104634596311      0.40000084604388      2.07103767856438
  H   -0.55891844147985     -0.13018368542992     -1.44764969591024
  C   1.73301892044650     -0.66852481922215      0.12494389393690
  H   1.53866414665497     -1.64158671646884      0.56888389653834
  H   1.90316685209276     -0.79056700750649     -0.94532461460989
  H   2.61611493520682     -0.22213401208864      0.58624327646986
  N   0.93432548637240      1.60571171837994     -0.24221830644263
  O   1.13836336833139      2.54639057443892      0.50431945095279
  O   1.07766310279569      1.58761159819239     -1.45977866216399
  N   -1.88460348233720      0.67123480342547     -0.03579820941188
  O   -1.71613626089228      1.85829249361447     -0.29131426213485
  O   -2.89134439623042      0.16535655943037      0.44606548601951
  N   -0.96586554406396     -1.62439358675850     -0.06907018151947
  H   -1.27190219079781     -1.72620745921515      0.89095938026926
  H   -1.68316331671555     -2.00234440398223     -0.67263542963359
