17
Coordinates from ORCA-job run
  C   0.61090210321155     -0.16063372578812      0.49526637535979
  C   -0.89409196279557     -0.20077810436389      0.19215776402295
  Cl  1.10449812050434     -1.63230282380847      1.35110743180734
  H   -1.43097484490364     -0.36672199389136      1.12378982158690
  C   1.50602245300980      0.08077056753519     -0.69287248222995
  H   2.54178806009878      0.13697791166720     -0.36322622008475
  H   1.39844377822594     -0.73705147561602     -1.40373561643735
  H   1.25171292113381      1.02560769187688     -1.17256858068029
  N   0.74781392951304      0.99401071664328      1.50318099007784
  O   1.60453181586592      1.83793411203774      1.27742969345592
  O   -0.01230718451694      0.96930818512684      2.46173512366264
  N   -1.19642410460891     -1.42825967044905     -0.66018730304299
  O   -1.65864722033721     -2.41128712708960     -0.09043403969774
  O   -0.97151084202512     -1.32602850705421     -1.86603619901650
  N   -1.28573341263142      1.01684015483989     -0.42420463188027
  H   -1.03792215309010      1.02613545082855     -1.40584084441485
  H   -2.27910145665429      1.17747863750514     -0.32656128248870
