17
Coordinates from ORCA-job run
  C   0.68828809679853     -0.15514630002601      0.38226110143161
  C   -0.82232449351261     -0.38478437935335      0.22906867886861
  Cl  1.49895842453451     -1.66813320955907      0.82516287273050
  H   -1.20101615734191     -0.82951439442900      1.14691223075756
  C   1.37072520184385      0.47887083756105     -0.80242387315839
  H   0.92249159505930      1.44724623283699     -1.02336636762121
  H   1.28368740851124     -0.17626236540368     -1.66791654860754
  H   2.42333281660843      0.63690638855826     -0.57537065500461
  N   0.79421286727491      0.76749210890319      1.60903692880866
  O   0.17575877998142      0.41807127468492      2.60535150611851
  O   1.49175717341305      1.76698909255576      1.50121751690371
  N   -1.05757391513737     -1.44055873805819     -0.84572907559915
  O   -1.29122923349924     -2.58494240537454     -0.47121308063501
  O   -1.01539144091204     -1.05204754015907     -2.01292410374061
  N   -1.46259587418539      0.85084570534887     -0.05287753839305
  H   -2.44586125805037      0.81870156925199      0.18005244747839
  H   -1.35521999138627      1.10426612266187     -1.02724204033799
