17
Coordinates from ORCA-job run
  C   0.59390526832864     -0.15048860506077      0.51878456046675
  C   -0.89980639035079     -0.20093553700756      0.16489423453462
  Cl  1.06335462720214     -1.60551240218680      1.41543490399759
  H   -1.46796921938669     -0.35434152329005      1.07993924448333
  C   1.52783574726653      0.07488874011489     -0.64225056606266
  H   1.44762684562204     -0.75535392584880     -1.34231097799532
  H   1.28624299743255      1.01032281414756     -1.14628468766297
  H   2.55171347085126      0.14106932397681     -0.27906799181596
  N   0.69290862721959      1.02086291611526      1.51191355663823
  O   1.55737900020999      1.86153816180400      1.30418236245279
  O   -0.10141913206960      1.01091368833203      2.44253187649929
  N   -1.16820631273152     -1.44293182065522     -0.67813779339343
  O   -1.64168063127623     -2.42045751592174     -0.10822065975807
  O   -0.90646683874637     -1.35693863265887     -1.87780141488503
  N   -1.27355752835330      1.00554645004107     -0.48393757405684
  H   -0.99355778527533      0.99818965643925     -1.45696488703114
  H   -2.27030274594291      1.16362821165894     -0.42270418641118
