17
Coordinates from ORCA-job run
  C   0.54710870210951      0.20832984217352      0.35815816219743
  C   -0.71767375046528     -0.22799779683213     -0.38965208089475
  Cl  0.19174646632161      0.35674163508064      2.07976983813745
  H   -0.54392702188926     -0.07944904356429     -1.45702825191189
  C   1.69571766350687     -0.75656323029331      0.13692227581748
  H   1.87512826012750     -0.86933613232544     -0.93285875654583
  H   1.44627881243372     -1.72577478678360      0.56134566409762
  H   2.59327484709962     -0.36294420512273      0.61791609090009
  N   1.01701837959615      1.56054803336737     -0.20327937105436
  O   1.25752203586544      2.47776785361380      0.56129222149162
  O   1.17596751506792      1.55448902384700     -1.41900799553929
  N   -1.84821185940735      0.76508804061150     -0.05042315612079
  O   -1.61657840784950      1.94649517170138     -0.28156641592779
  O   -2.88681323685108      0.30217007582303      0.40629185051775
  N   -1.04433386948654     -1.57261870113592     -0.10850396694682
  H   -1.77310071175119     -1.90362698418288     -0.72574771416893
  H   -1.36612382442813     -1.67431879597796      0.84637160595102
