17
Coordinates from ORCA-job run
  C   0.57518188938406     -0.21091413163176      0.46699397901385
  C   -0.94021379919686     -0.29788231903675      0.15760724878374
  Cl  1.09314603411832     -1.65746822091209      1.35113200760215
  H   -1.45043755466098     -0.61839676583849      1.06336804953596
  C   1.48768369910776      0.03047742690472     -0.70835725612392
  H   1.18280368930306      0.91601455067526     -1.26611341482915
  H   1.46643833350227     -0.83286503536899     -1.37047929891958
  H   2.50521055141014      0.18475041643015     -0.35334528090631
  N   0.66355774363450      0.96153126783678      1.45347406230616
  O   -0.09172997445086      0.91420195931803      2.41828911498948
  O   1.44836233753816      1.86677149183998      1.19579666782312
  N   -1.14868889144078     -1.39818272096173     -0.84851130427148
  O   -0.92297935526003     -1.10746277389645     -2.02113755609102
  O   -1.52643439380843     -2.48675213627678     -0.42789810728717
  N   -1.54856690378465      0.88303462137959     -0.35321207537294
  H   -1.74132778378686      1.55843536575981      0.37117364047330
  H   -1.05300562160882      1.29370700377873     -1.13078047672617
