17
Coordinates from ORCA-job run
  C   0.59538925724344     -0.12572819392164      0.43941121720941
  C   -0.76334022229557     -0.62429270593712     -0.12871550679746
  Cl  0.95778067510461     -1.12935182258125      1.85726547102324
  H   -0.59031065184810     -1.64101802530353     -0.48336304604221
  C   1.72171968744922     -0.22232526364937     -0.56208578708725
  H   1.80284455423479     -1.25504127809274     -0.90453989649855
  H   2.66149550493782      0.07316638197430     -0.09690807655476
  H   1.54198394632909      0.42656028301141     -1.41770234090464
  N   0.44676118451875      1.31465037404322      0.93129396413049
  O   -0.33225292240551      1.50567580153953      1.85860685291667
  O   1.09441343454259      2.17341780455743      0.34470251734483
  N   -1.02074989535968      0.19132346062479     -1.37292254715344
  O   -0.81178834855276     -0.34348880555857     -2.45786234413867
  O   -1.40682787964974      1.34146801049332     -1.18460617369199
  N   -1.93367413183097     -0.58341822035911      0.67276217182320
  H   -1.96788787714310     -1.37616839707772      1.29733442834059
  H   -1.99555631527498      0.27357059623699      1.20632909608059
