17
Coordinates from ORCA-job run
  C   0.59192271766152     -0.12906174961900      0.44188227862140
  C   -0.77115287537442     -0.61438847310543     -0.12469742119022
  Cl  0.94088154687572     -1.13111210965780      1.86445603140017
  H   -0.61167452352078     -1.63717680318304     -0.46799926250552
  C   1.71651842548602     -0.24451301827962     -0.55961762686183
  H   2.66036149918967      0.03881758102050     -0.09517326318241
  H   1.54635778963436      0.40547448012589     -1.41649458527329
  H   1.78312873632678     -1.27884373024130     -0.90038464111396
  N   0.46432460559160      1.31524088797345      0.92885211040839
  O   1.13317244700791      2.16096985988932      0.34748429605283
  O   -0.31824373337667      1.52169399263672      1.84979629189318
  N   -1.01233733075187      0.19084165015802     -1.37931716544825
  O   -1.36129333177645      1.35484675600741     -1.20356956819376
  O   -0.82872929099757     -0.36491108829037     -2.45799376085962
  N   -1.94344164339822     -0.54842356687403      0.67175303914533
  H   -2.00333257134595     -1.34464257274180      1.28962193708732
  H   -1.98846246723164      0.30618790418107      1.21040131002022
