17
Coordinates from ORCA-job run
  C   0.63665309346257     -0.20708386522517      0.38036248348254
  C   -0.88370033155863     -0.42565039457124      0.18308815453756
  Cl  1.38487234351317     -1.69626566208942      0.98511470843319
  H   -1.26823316234484     -0.93015815285448      1.06686169309052
  C   1.40237598819958      0.30790592409294     -0.81156961477230
  H   1.40755015758238     -0.44620522033794     -1.59604389510825
  H   0.95600490997475      1.22359235592007     -1.19949621356754
  H   2.42770069250946      0.52669871289145     -0.51805966798160
  N   0.69629923081325      0.81176118736944      1.52690176200320
  O   0.05117499708355      0.53329286494770      2.53168882375795
  O   1.34822629835457      1.83401093531852      1.34853190422893
  N   -1.07362234011118     -1.38766908949126     -0.95989821011121
  O   -1.30081482870759     -2.56052132755420     -0.68160946404742
  O   -0.98827003764058     -0.90872202361738     -2.08844998287929
  N   -1.65724405115754      0.73715175188116     -0.08988881430243
  H   -1.27858894539777      1.31893474153844     -0.82257649585837
  H   -1.86038401457514      1.26592726178140      0.74504282909449
