17
Coordinates from ORCA-job run
  C   0.67051790548622     -0.17241115378279      0.33755558724278
  C   -0.83709387325761     -0.50181454117571      0.20532574041040
  Cl  1.56032802595590     -1.62477906224678      0.83006717064396
  H   -1.13289502236744     -1.07449975423627      1.08166589454251
  C   1.33079170749557      0.45543129690565     -0.86335587959055
  H   0.79680198655229      1.35124519180225     -1.18042609777775
  H   2.35123642069680      0.73837086082422     -0.61048499764108
  H   1.34973061083815     -0.25849486954013     -1.68431610215751
  N   0.71218922037357      0.79453913200448      1.52858056998261
  O   1.27199464526643      1.87298862520261      1.36859385789430
  O   0.14551859484909      0.42027257255086      2.54949272298164
  N   -1.01442539458386     -1.42331409573947     -0.97229168432582
  O   -1.02118605130985     -0.88950117243744     -2.07927305958272
  O   -1.14323325969344     -2.62094523644958     -0.74052795103256
  N   -1.71119749408720      0.60694036669024      0.02817311420823
  H   -1.41948743991331      1.24686423788491     -0.69578811020974
  H   -1.90859058230131      1.08210760174291      0.89600922441134
