17
Coordinates from ORCA-job run
  C   0.48292488681979      0.24559205185626      0.35394377492278
  C   -0.78690234588900     -0.20481771243111     -0.40882779327274
  Cl  0.08655644812194      0.61616347153701      2.02893884048646
  H   -0.53698347955927     -0.20293530078888     -1.47115690179772
  C   1.56608525991543     -0.81440670279848      0.29659113681160
  H   1.24995883524283     -1.69485702072334      0.85438123531214
  H   1.77235501452496     -1.08270916605087     -0.74029983235071
  H   2.47913809406016     -0.42787731602265      0.75268269349792
  N   1.05086389782101      1.48926570117926     -0.34652689006033
  O   1.17942392594605      2.53073857161236      0.27313925226579
  O   1.36023851056925      1.28518872397628     -1.51633745307054
  N   -1.82941565592427      0.88527609634656     -0.24022670162346
  O   -1.58368206957266      1.94007466274471     -0.82021330535161
  O   -2.79375069467535      0.65198163267964      0.47478288657984
  N   -1.35253951524517     -1.44780887160997     -0.03647550615782
  H   -0.84344168407254     -2.23209812844097     -0.41421364333172
  H   -1.49982942808321     -1.53877069306578      0.95881820714010
