17
Coordinates from ORCA-job run
  C   0.45209422101023      0.24717910944067      0.39126456721386
  C   -0.75560141729821     -0.21931408454617     -0.45727557342828
  Cl  -0.03726313660872      0.48396736107309      2.06593160811907
  H   -0.46069588343295     -0.13423434800774     -1.50459760332891
  C   1.59537722352694     -0.74658810266778      0.31733854925093
  H   1.30490949122704     -1.67900023067423      0.79955296393334
  H   1.86329995804101     -0.93172459453695     -0.72362363779825
  H   2.46314295932561     -0.34363057200747      0.84238484323054
  N   0.97858634571526      1.56336443508830     -0.20127123039435
  O   1.02155934932590      2.56649120009700      0.48950678766493
  O   1.34883603664147      1.45454894916153     -1.36600562885048
  N   -1.86471876794444      0.79965027516823     -0.26889656752668
  O   -1.65373040096721      1.90229763537309     -0.76775803272798
  O   -2.84494760971761      0.46779136989949      0.38266413986884
  N   -1.26541362572148     -1.51309542374591     -0.19171655702785
  H   -0.69707491650080     -2.24164919113937     -0.59575435552365
  H   -1.44735982662203     -1.67805378797579      0.78825572732492
