17
Coordinates from ORCA-job run
  C   0.59714686552647     -0.12735260028323      0.43606475157057
  C   -0.77435525036592     -0.61390101486072     -0.11197999104098
  Cl  0.95418788440982     -1.11040998936516      1.86926920195243
  H   -0.62077878763013     -1.63869399323920     -0.45204801505806
  C   1.71529572421412     -0.25860860597783     -0.57055750662935
  H   2.66127223543956      0.03495350183639     -0.11673200063088
  H   1.78185600304208     -1.29926578417670     -0.89140203442706
  H   1.53860181284497      0.37390025001624     -1.43883349186041
  N   0.47299308011297      1.32466308047182      0.90138070854155
  O   -0.29002764581617      1.54435842585929      1.83560494510675
  O   1.12143961864521      2.16325721493659      0.28708364308258
  N   -1.02954496667454      0.18638759909997     -1.36719242780496
  O   -0.82497393227878     -0.36444378456771     -2.44500992100863
  O   -1.40800653365783      1.34140548610176     -1.19413392434679
  N   -1.93437850675699     -0.54187998441229      0.70096218475279
  H   -1.98547439174432     -1.33350229861870      1.32545775338642
  H   -1.97325320931053      0.31713249717948      1.23306612441400
