17
Coordinates from ORCA-job run
  C   0.62675677345087      0.05164045251917      0.49869448658596
  C   -0.88529375998700     -0.10966647030696      0.28394102421908
  Cl  1.16613974730830     -0.95598637225479      1.85348589156041
  H   -1.39381618169312      0.10906917328582      1.22054688291663
  C   1.48482462669542     -0.19733013283461     -0.71489127338822
  H   1.20288182904412      0.47742128582592     -1.52277207752641
  H   1.36979812960372     -1.23090498708789     -1.03785677999155
  H   2.52838237269922     -0.01182829634592     -0.46757945246877
  N   0.77457280043261      1.51247181652694      0.95931993560329
  O   0.04067738148152      1.87020576147471      1.87076471387976
  O   1.61433885765975      2.19813225481898      0.39203069903101
  N   -1.19310984950385     -1.57627879024490      0.00229844053911
  O   -1.00223591227751     -1.96370731631515     -1.15033801248045
  O   -1.62590777555102     -2.25068357997855      0.93093310196598
  N   -1.31138182209870      0.75952551270075     -0.75490195781212
  H   -2.30389047412399      0.94357274688926     -0.69809097871427
  H   -1.09173674314033      0.37534694132722     -1.66558464391945
