17
Coordinates from ORCA-job run
  C   0.55860656443714      0.22462859944118      0.32913109587112
  C   -0.73071279871881     -0.24347728745638     -0.35489771597539
  Cl  0.24925931929331      0.49877534830592      2.04420729277229
  H   -0.58229478927082     -0.17248671907270     -1.43402010237248
  C   1.68781102131013     -0.77129992679258      0.14862583477983
  H   1.83931995668795     -0.96073379499967     -0.91463561746802
  H   1.43538823197113     -1.70477007894776      0.64526890578057
  H   2.60232143272695     -0.35942583758547      0.57982724618308
  N   1.03316848428129      1.52642338281541     -0.33754451907878
  O   1.30711650909987      2.49035837513932      0.35483334448777
  O   1.15976950735352      1.43324019818637     -1.55342046945761
  N   -1.83870227350274      0.78864821032210     -0.05931332943817
  O   -1.59570911094679      1.94763490627670     -0.37609550460173
  O   -2.87290058525226      0.37439947765848      0.45085697902328
  N   -1.06871240918898     -1.55951251453486      0.02861672963579
  H   -1.81677512908406     -1.92245191375015     -0.54611447377323
  H   -1.36795393119678     -1.58895042500596      0.99567430363172
