17
Coordinates from ORCA-job run
  C   0.71237997668866     -0.10838751197990      0.35415999532649
  C   -0.77448423674239     -0.47311459439978      0.23105797881896
  Cl  1.67471618973051     -1.55769912819712      0.69319347110787
  H   -1.07779387426468     -1.00014794713372      1.13323741285696
  C   1.29412940981926      0.64669664503183     -0.81315062769565
  H   1.24570355289499      0.02879601131523     -1.70851554308601
  H   2.33277993638333      0.89617829087732     -0.60441008783223
  H   0.74783060253457      1.57583044283610     -0.97333866972440
  N   0.76951989519426      0.75736687690678      1.62497704691677
  O   0.22613006718935      0.29602921026691      2.61952168276953
  O   1.35630876568623      1.82836042342990      1.54918337132312
  N   -0.94489938660134     -1.48826077834978     -0.89367344472798
  O   -1.05823434710662     -2.66783959599216     -0.57691165862544
  O   -0.97787992718237     -1.03664440451595     -2.03823039437347
  N   -1.53738214804558      0.70852838015817      0.03661382860056
  H   -1.48437356323333      1.02303690309589     -0.92431040447821
  H   -2.50545091294487      0.56927077665028      0.29259604282313
