17

C	0.0	0.0	0.0
C	-0.329256	-0.024606	-1.524996
Cl	1.815449	0.0	0.0
H	-1.41292	-0.207883	-1.531982
N	-0.395027	1.253819	0.610582
H	-0.851752	0.992969	1.480525
H	0.435374	1.785643	0.838886
N	-0.720281	-1.109762	0.687095
O	-0.723549	-2.212487	0.070413
O	-0.711776	-1.041031	1.95097
C	0.3882	-1.056587	-2.40264
H	-0.123031	-1.106705	-3.36992
H	0.333431	-2.02621	-1.91256
H	1.429487	-0.786165	-2.579658
C	-0.112546	1.309848	-2.077215
N	0.089304	2.341141	-2.603722
H	-2.163715	0.0	0.0
