17

C	0.0	0.0	0.0
C	-0.587058	-0.120113	-1.408522
Cl	1.755215	0.0	0.0
H	-1.695819	-0.122876	-1.176338
N	-0.430413	1.260566	0.528202
H	-1.455525	1.204294	0.520724
H	-0.151924	1.294001	1.504978
N	-0.585517	-1.148314	0.785037
O	-1.745187	-0.801837	1.268414
O	-0.262567	-2.317524	0.455413
C	-0.213415	-1.355587	-2.220873
H	-0.666643	-1.280518	-3.213554
H	-0.576079	-2.248456	-1.714547
H	0.869507	-1.439637	-2.333504
C	-0.319349	1.089163	-2.173059
N	-0.114091	2.00521	-2.881084
H	-2.864694	0.0	0.0
