17

C	0.0	0.0	0.0
C	-0.552648	-0.08071	-1.437005
Cl	1.770918	0.0	0.0
H	-1.653125	-0.20286	-1.200131
N	-0.555068	1.049052	0.759868
H	-0.339224	1.931163	0.308341
H	-1.59447	0.867715	0.672139
N	-0.365763	-1.304312	0.770916
O	-0.307616	-1.251507	1.989019
O	-0.61153	-2.308161	0.112216
C	-0.014706	-1.116423	-2.427493
H	-0.475508	-0.942593	-3.403727
H	-0.25938	-2.121659	-2.098385
H	1.068496	-1.02718	-2.543597
C	-0.391677	1.246464	-2.019418
N	-0.258967	2.299366	-2.52692
H	-2.925854	0.0	0.0
