16
Coordinates from ORCA-job run
  C   0.38616979363388      0.10908312803589     -0.26089847024850
  C   -1.13715917882659      0.01151970475494     -0.20847092908812
  Br  1.00516249380365     -0.81323693163915     -1.88607253013112
  H   -1.49436430969528      0.53171533458333      0.68393476838098
  H   -1.58402413286949      0.43308131384064     -1.10739194611867
  C   0.74796446251890      1.58330766015898     -0.39892253982431
  H   1.82816526638647      1.69834657586772     -0.50032008142495
  H   0.27190376046948      2.03183758417581     -1.27298577941599
  H   0.42561123430259      2.12414236245940      0.49715723490644
  C   1.08310269363892     -0.51634417151117      0.93692675989356
  H   0.71744583115944     -0.04928069404525      1.85691533237427
  H   0.90075361107884     -1.58701580354756      1.00568141649212
  H   2.15892224395864     -0.34832068112488      0.86124350587673
  N   -1.64420399936604     -1.38544440377141     -0.09987127909001
  O   -2.14253685491151     -1.88716870814240     -1.10423074122723
  O   -1.52391291528189     -1.93422227009488      0.99530527864478
