16
Coordinates from ORCA-job run
  C   0.42929988087282      0.10729786115305     -0.45920618736180
  C   -1.02138830831766     -0.32433949227493     -0.68896391988500
  Br  1.16344529566817      0.25116042659184     -2.28624494510579
  H   -1.56763467290649      0.43046338484508     -1.25289652722707
  H   -1.06545426855306     -1.29324548119963     -1.18437280923144
  C   0.53008742279212      1.47558903862050      0.19469147397916
  H   0.14217403209763      1.43033334304410      1.21558692247250
  H   -0.04264957576636      2.22340304253881     -0.35622229830142
  H   1.57291295377699      1.79471703043535      0.23449478537303
  C   1.23485660095724     -0.94333084066953      0.28733418172557
  H   0.86066054989239     -1.04314587307760      1.30946296494399
  H   1.16595286114740     -1.91769396983040     -0.19911198612138
  H   2.28469943349399     -0.64850905458059      0.33021739571640
  N   -1.72667074969571     -0.47793242839598      0.61902758740607
  O   -1.67384886427520     -1.58217917995889      1.15960118631889
  O   -2.28544259118425      0.51841219275883      1.07660217529828
