14

C	-0.430028	0.160462	-1.468243
C	0.0	0.0	0.0
Cl	0.022068	-1.352628	-2.327059
H	1.097819	0.0	0.0
H	-0.362806	-0.946506	0.407119
C	-1.883126	0.305716	-1.595722
N	-3.044661	0.450171	-1.698373
C	0.303116	1.331666	-2.111275
H	1.376123	1.175123	-1.975313
H	0.060187	1.40011	-3.172838
H	0.011927	2.259704	-1.613234
C	-0.497454	1.109464	0.804856
N	-0.917493	2.006559	1.435511
Br	3.484418	0.0	0.0
