14

C	-0.441498	0.015349	-1.472513
C	0.0	0.0	0.0
Cl	0.070319	-1.548298	-2.199771
H	1.094647	0.0	0.0
H	-0.356228	-0.905831	0.496285
C	-1.900717	0.085398	-1.596949
N	-3.069737	0.160972	-1.693346
C	0.237368	1.154494	-2.222058
H	-0.007946	1.113989	-3.284483
H	1.316515	1.059381	-2.077591
H	-0.097795	2.110465	-1.811171
C	-0.503644	1.176066	0.699597
N	-0.92846	2.125549	1.244973
Br	3.479669	0.0	0.0
