14

C	-0.400804	0.012645	-1.480324
C	0.0	0.0	0.0
Cl	-2.19928	-0.140873	-1.658157
H	1.095462	0.0	0.0
H	-0.364352	0.892226	0.514063
C	-0.045622	1.310897	-2.059145
N	0.214193	2.354721	-2.531818
C	0.282966	-1.118582	-2.234174
H	-0.045699	-2.0756	-1.824535
H	0.036857	-1.077733	-3.296392
H	1.36271	-1.01809	-2.087449
C	-0.487091	-1.194878	0.676338
N	-0.884651	-2.153537	1.225609
Br	3.452066	0.0	0.0
