13
Coordinates from ORCA-job run
  C   0.92986555569588      0.52924802518533      0.52847585508397
  C   -0.52039952838902      0.06197939885444      0.29204435369797
  Cl  1.53976138956405      1.50456411203617     -0.83371725113184
  H   -0.80123668365766     -0.51169693305929      1.18464161377706
  H   0.96673526120335      1.17438612977289      1.40945693227516
  C   1.79789964866133     -0.62442838220484      0.74977198149615
  N   2.46608935137580     -1.57085493993044      0.94285460601498
  C   -0.68350311011801     -0.82351739225690     -0.94429719012923
  H   -1.71353952754760     -1.17506848181997     -1.01164224486895
  H   -0.02533801775787     -1.69130327017265     -0.87374371285541
  H   -0.44696215123183     -0.27061734110524     -1.85261026446073
  C   -1.39934307365262      1.23191962157949      0.23235673907653
  N   -2.10902911414578      2.16538945312101      0.17740858202436
