13
Coordinates from ORCA-job run
  C   1.07901767402786     -0.11340020683671      0.26796135974220
  C   -0.43614021714225      0.14984392215882      0.15784462882780
  Cl  1.40141444021659     -1.40371910501555      1.45958789408342
  H   -0.79198965667219      0.44953234745683      1.14986146267152
  H   1.45883039187417     -0.46902544422134     -0.69356879503519
  C   1.80473097388983      1.09301639113382      0.65527863917168
  N   2.37851326768781      2.06958878708214      0.96596558689985
  C   -1.21324257587463     -1.07580374392070     -0.32892919449227
  H   -0.84041987332760     -1.40397294651336     -1.30166073527428
  H   -2.26967196211162     -0.82587731810107     -0.43448819630239
  H   -1.12035811586471     -1.89564144705666      0.38211566781247
  C   -0.63989244442223      1.27434510070764     -0.75975515470264
  N   -0.80979190228103      2.15211366312614     -1.52121316340216
