13
Coordinates from ORCA-job run
  C   0.88822983985051     -0.06383516477765      0.81994762792609
  C   -0.57369381326399      0.05238197395489      0.36092394743663
  Cl  1.18512333586986      0.95711010940255      2.24998294491038
  H   -1.19313544687299     -0.19312851465295      1.23052341758848
  H   1.07262620376374     -1.09591765524898      1.12908241088139
  C   1.81535660756840      0.27970977609558     -0.25397229239767
  N   2.54237094434305      0.52992429147091     -1.14190552080102
  C   -0.87010231352826     -0.92182325263041     -0.78343163392269
  H   -0.64437593910579     -1.94561749779928     -0.47569825299172
  H   -0.27676867748279     -0.67816554568232     -1.66634338331171
  H   -1.92564115444436     -0.86912810437970     -1.05354951404371
  C   -0.87923456700281      1.42914431160798     -0.03231578627719
  N   -1.13975501969457      2.51934527263938     -0.38124396499725
