13
Coordinates from ORCA-job run
  C   1.08004380301690     -0.12059862525130      0.26150214149112
  C   -0.43188224351098      0.16345531444644      0.15644561289832
  Cl  1.39485762390760     -1.37017894318878      1.49752657890572
  H   -0.77179575254069      0.50844807457164      1.13930704938662
  H   1.44412063542354     -0.51792652643707     -0.68960625247909
  C   1.82812501167518      1.08773244637251      0.59637305964585
  N   2.41713178408735      2.06730432622279      0.86663735009827
  C   -1.23453792874921     -1.06711027464730     -0.27353604820202
  H   -2.28861984421482     -0.80449631092767     -0.37176084352959
  H   -1.14266461482937     -1.86252356870263      0.46501413357325
  H   -0.88190403868646     -1.43520937993375     -1.23955143239124
  C   -0.62591309915986      1.25232506565862     -0.80517510634122
  N   -0.78696133641918      2.09777840181649     -1.60417624305599
