13
Coordinates from ORCA-job run
  C   1.05347351970139     -0.09976790345834      0.36014376435391
  C   -0.44504243858563      0.16445366717914      0.11072482498469
  Cl  1.26578522306066     -1.30008556838067      1.66496536128098
  H   -0.87359559947632      0.54217108384482      1.04578477731475
  H   1.50361009424958     -0.52780429824898     -0.53945042178664
  C   1.75985698387787      1.12790224469369      0.71462844615298
  N   2.31308066343277      2.12402809157614      0.99945428493145
  C   -1.19747843849508     -1.08958705890895     -0.34145817312644
  H   -1.17158467113501     -1.85333179135154      0.43478081983208
  H   -0.75360741615218     -1.49393855949793     -1.25383489246397
  H   -2.23887856285970     -0.84078885901149     -0.54907702997634
  C   -0.56054189263615      1.21557552471910     -0.90401757524694
  N   -0.65607746498220      2.03117342684501     -1.74364418625050
