13
Coordinates from ORCA-job run
  C   0.98113935434707      0.36181534846501      0.57941667934052
  C   -0.50180436775505      0.02073630120175      0.32942243501065
  Cl  1.57777683533605      1.59098157406538     -0.56561280783282
  H   -0.77399537045182     -0.71847973619886      1.09374640109413
  H   1.09418420917346      0.79052546435251      1.57799873699406
  C   1.79385588825969     -0.84845023891675      0.48798011637748
  N   2.41274147048506     -1.84452052255111      0.42234877975417
  C   -0.76778825202612     -0.56987581780867     -1.05615442290959
  H   -0.53103898123314      0.15139900749671     -1.83756112725527
  H   -0.16417801702099     -1.46722551304771     -1.20395558766015
  H   -1.82022002626054     -0.84238162796221     -1.14393859567852
  C   -1.31834088869781      1.21299634907944      0.56736519755876
  N   -1.98333185415587      2.16347941182451      0.74794419520658
