13
Coordinates from ORCA-job run
  C   0.90817710967966     -0.08875747735853      0.79523253559460
  C   -0.56253193343552      0.06366294864754      0.37643251227801
  Cl  1.26729447429123      0.91812827073574      2.22094637710352
  H   -1.16400054969047     -0.17044722907947      1.26163892762509
  H   1.07673979303334     -1.12628055460541      1.09492272924726
  C   1.81339111708929      0.23942598052618     -0.30195128366788
  N   2.51907675549975      0.48152983863734     -1.20901173499696
  C   -0.91241652012522     -0.89865472018580     -0.76282868618473
  H   -0.69687323666313     -1.92816667072269     -0.46702581663174
  H   -1.97452107814757     -0.82465413582120     -1.00018390620461
  H   -0.34180930442433     -0.66152593619635     -1.66230543097628
  C   -0.84553372156937      1.44896750446095     -0.00344917224532
  N   -1.08699290553765      2.54677218096171     -0.34241705094097
