13
Coordinates from ORCA-job run
  C   0.95858423821860      0.35090556647773      0.61925807092997
  C   -0.51105574756749     -0.00077504805908      0.31290883743147
  Cl  1.57189026644059      1.62735550279585     -0.46351133987861
  H   -0.79199587068917     -0.77708891948839      1.03620107324580
  H   1.03556372445780      0.74588432422572      1.63502485163419
  C   1.79133291322090     -0.84438617233735      0.51228710939057
  N   2.42704728010704     -1.82895298178220      0.43812004210459
  C   -0.72977910897303     -0.53356059424887     -1.10394588429885
  H   -0.10227221806588     -1.41011994745858     -1.27659696620073
  H   -0.49065532345049      0.22726114658625     -1.84635568893793
  H   -1.77334163866438     -0.82471725595290     -1.23032204186282
  C   -1.35252227575703      1.16755775076854      0.58072364342144
  N   -2.03479623927746      2.10063662847325      0.78620829302090
