13
Coordinates from ORCA-job run
  C   0.90237460346226     -0.08774548353189      0.80200340612293
  C   -0.56677487199284      0.04585300544953      0.37152958413250
  Cl  1.22936806405095      0.89775261544367      2.25017828615637
  H   -1.17233302524120     -0.21769724501456      1.24564584044571
  H   1.08703835680823     -1.12762297453986      1.08351566362175
  C   1.81168369276968      0.27743730296749     -0.28002817669067
  N   2.52119635532693      0.54876345473285     -1.17590635940406
  C   -0.88750989862487     -0.89935665783750     -0.79038139566908
  H   -0.65710006815050     -1.93052467790298     -0.51219800289796
  H   -0.31167118360317     -0.63485035722559     -1.67886356068681
  H   -1.94819908179318     -0.83916872909917     -1.03796527096837
  C   -0.87290513240698      1.43324075773453      0.01814467154652
  N   -1.13516781060532      2.53391898882348     -0.29467468570884
