16

C	-0.457572	-0.029992	-1.467499
C	0.0	0.0	0.0
Br	-0.046864	-1.801413	-2.232298
H	1.104012	0.0	0.0
C	-1.905152	0.146143	-1.574568
N	-3.065293	0.331071	-1.637899
C	0.302023	1.028962	-2.256665
H	0.03131	2.007761	-1.858801
H	0.053779	0.973622	-3.318363
H	1.370239	0.862429	-2.094338
C	-0.513339	-1.116017	0.784158
N	-0.918803	-1.965291	1.491411
N	-0.345508	1.299773	0.570853
H	0.462117	1.613811	1.105566
H	-1.154936	1.245806	1.175199
H	2.670981	0.0	0.0
