16

C	-0.37771	-0.005008	-1.46907
C	0.0	0.0	0.0
Br	-2.376692	-0.098058	-1.711843
H	1.097514	0.0	0.0
C	0.012385	1.263025	-2.081643
N	0.346496	2.243357	-2.637794
C	0.273785	-1.175465	-2.184568
H	-0.111631	-2.115996	-1.786718
H	0.091389	-1.135364	-3.259484
H	1.349632	-1.107265	-1.971117
C	-0.432679	-1.229738	0.653661
N	-0.77473	-2.201621	1.222864
N	-0.402096	1.212705	0.68437
H	-1.230251	1.07621	1.247619
H	0.369805	1.496599	1.27981
H	2.620101	0.0	0.0
