16

C	-0.495212	0.128755	-1.453967
C	0.0	0.0	0.0
Br	0.184639	1.824193	-2.194952
H	1.107304	0.0	0.0
C	0.059088	-0.940795	-2.286467
N	0.417835	-1.812367	-2.989902
C	-2.014802	0.143526	-1.570597
H	-2.32439	0.309069	-2.604376
H	-2.41031	-0.818171	-1.227157
H	-2.401407	0.9462	-0.940214
C	-0.454938	-1.27677	0.529769
N	-0.836895	-2.291463	0.991599
N	-0.428635	1.130088	0.813659
H	-1.067124	0.841519	1.54202
H	0.413406	1.502485	1.245924
H	2.618603	0.0	0.0
