13
Coordinates from ORCA-job run
  C   1.03556374889338     -0.47126930648649     -0.14431403418648
  C   -0.41756300169968     -0.10336005526771      0.12512843651331
  H   1.35007062581292     -0.00832719371855     -1.08212147632425
  H   -0.78645063418214     -0.61836081069798      1.02391870217801
  H   1.14494474027718     -1.55174167279665     -0.24729064467228
  C   1.86819204449266      0.01201934034887      0.95471715388492
  N   2.49964086011451      0.42748539863820      1.85244295380402
  N   -1.29706029531368     -0.64691990692949     -0.98121507977364
  O   -2.48287977629563     -0.34714653912815     -0.88774185592245
  O   -0.79291731822355     -1.33557332148586     -1.86235388540853
  N   -0.60229636633011      1.32341705955897      0.11082978924788
  H   0.03440778273442      1.76608236288293      0.76217450896666
  H   -1.55165241028029      1.55269464508189      0.37682543169282
