13
Coordinates from ORCA-job run
  C   0.78650842487844     -0.56752556902059      0.76181305470784
  C   -0.56230544238567      0.04737600162068      0.39102342928539
  H   1.06158299811290     -0.21301343520133      1.75766179371861
  H   -1.31654923382808     -0.27584026986852      1.11148245375091
  H   0.70742633126132     -1.65565654953609      0.78279204821336
  C   1.81783037775068     -0.16390459638417     -0.19265755214602
  N   2.61987816611231      0.19261357704437     -0.97178211126948
  N   -1.00639773573481     -0.64268178807600     -0.91913186141072
  O   -1.21813949452852     -1.84911062803140     -0.84226037112705
  O   -1.10720227804835      0.05181019400861     -1.92471915142959
  N   -0.50488309554597      1.45504144821422      0.31689484560948
  H   0.13458588856371      1.76407775928164     -0.40529320484554
  H   -1.41433490660796      1.85681385594861      0.13417662694280
