13
Coordinates from ORCA-job run
  C   0.72753919503258     -0.52110577618974      0.73705142698747
  C   -0.64281588047245      0.02528667545383      0.28834136474573
  H   0.94880315359642     -0.12747985466909      1.73340109865236
  H   -1.39511827283397     -0.28573404677812      1.01461117323301
  H   0.69453976243432     -1.61189536229877      0.80474211154135
  C   1.78468597002622     -0.10477272042168     -0.18069275422811
  N   2.61133891420971      0.26983300091431     -0.92486273754401
  N   -0.99016087057443     -0.73097075719150     -0.97690857018491
  O   -0.81628395580899     -0.15814651509138     -2.04556853846637
  O   -1.36130100428512     -1.89135457592686     -0.82005259569134
  N   -0.75698786292967      1.42221214198602      0.03929925259214
  H   -0.02567363341061      1.76581748857715     -0.56969831812920
  H   -0.77756551498403      1.94831030163581      0.90133708649187
