13
Coordinates from ORCA-job run
  C   1.02357634865315      0.18089190127003      0.28303961898664
  C   -0.50177712531583      0.01691790551771      0.27263651496421
  H   1.31730142058173      0.78119560085505     -0.58255875072374
  H   -0.83343964107792     -0.64758972223386      1.06993319823458
  H   1.30783397482482      0.72431915712300      1.18837493803552
  C   1.72394229363175     -1.10123654997542      0.24808359575850
  N   2.26732193490698     -2.14122552980824      0.22913206976854
  N   -0.85969839937453     -0.69238806834578     -1.01141693148436
  O   -1.37552513751363     -1.80142227011888     -0.93257753963815
  O   -0.59793106959775     -0.07676759238973     -2.04156949184192
  N   -1.25243863898069      1.23422698190651      0.30398681565809
  H   -0.83597082126541      1.95215053499763     -0.27335424208405
  H   -1.38319513947267      1.56892765120198      1.24729020436616
