13
Coordinates from ORCA-job run
  C   1.02347167326073     -0.42988795598100     -0.04384149233957
  C   -0.44576083467176     -0.07784616127727      0.19519378629359
  H   1.11005020560461     -1.47699950773417     -0.34343891364504
  H   -0.87422301302957     -0.71587393536492      0.96945889531061
  H   1.41349168440900      0.18762840124588     -0.86057453319152
  C   1.81626112758452     -0.19837860268448      1.15955629727141
  N   2.45954364555149     -0.03457553870200      2.12651462669606
  N   -1.16488722395742     -0.52930345208746     -1.09292919991906
  O   -1.35535340321617     -1.73525198051978     -1.21480982495446
  O   -1.45240743368949      0.33992262301163     -1.91062797359183
  N   -0.61816273341259      1.28558273347549      0.50865341210625
  H   -0.34162828226918      1.88310695653734     -0.25942438241216
  H   -1.57139541216418      1.49987642008075      0.76726930237572
