16

C	-0.395318	0.013401	-1.478947
C	0.0	0.0	0.0
Br	-2.369204	-0.022959	-1.641944
H	1.095226	0.0	0.0
C	0.14695	1.290654	-2.120796
H	1.229847	1.308357	-1.957971
H	-0.06962	1.287352	-3.189557
H	-0.308567	2.16903	-1.662229
C	0.102108	-1.136607	-2.23277
N	0.441265	-1.968082	-2.991631
N	-0.450068	-1.230713	0.727817
O	-0.904064	-1.090514	1.859294
O	-0.281809	-2.296322	0.145047
C	-0.482315	1.186857	0.687571
N	-0.846097	2.173865	1.21154
Br	3.276658	0.0	0.0
