16

C	-0.506992	-0.013081	-1.464857
C	0.0	0.0	0.0
Br	0.18654	-1.59528	-2.39076
H	1.091937	0.0	0.0
C	-2.029039	-0.000428	-1.591184
H	-2.431025	0.880563	-1.084739
H	-2.306099	0.03297	-2.645683
H	-2.454254	-0.895349	-1.137977
C	0.05176	1.156919	-2.143921
N	0.412354	2.116935	-2.719559
N	-0.507708	-1.211579	0.732794
O	-1.627894	-1.132491	1.2429
O	0.21893	-2.195635	0.745361
C	-0.502017	1.193635	0.668308
N	-0.900651	2.178047	1.171483
Br	3.322133	0.0	0.0
