16

C	-0.468738	0.001185	-1.453953
C	0.0	0.0	0.0
Br	-2.432402	-0.233995	-1.551547
H	1.09521	0.0	0.0
C	-0.111634	1.32274	-2.137787
H	-0.417037	1.297234	-3.185424
H	0.970623	1.467991	-2.082608
H	-0.617095	2.150925	-1.639644
C	0.131802	-1.104874	-2.200272
N	0.637552	-1.933108	-2.864933
N	-0.409437	-1.27515	0.682639
O	0.25816	-2.261212	0.378388
O	-1.305448	-1.233013	1.525244
C	-0.507481	1.139978	0.728421
N	-0.866353	2.110693	1.293131
Br	2.741732	0.0	0.0
