15

C	0.0	0.0	0.0
C	-0.371581	0.033192	-1.537115
Cl	1.784446	0.0	0.0
H	-1.450448	0.165727	-1.54755
C	-0.453722	1.282278	0.570808
N	-0.550928	2.350176	1.06278
C	-0.729268	-1.079138	0.692734
N	-0.7216	-2.074249	1.346816
N	-0.176326	-1.327486	-2.170498
O	-0.858125	-1.520204	-3.174282
O	0.610888	-2.13335	-1.684642
N	0.267834	1.01504	-2.350478
H	-0.247613	1.881332	-2.299678
H	1.225314	1.169621	-2.066691
H	-2.193551	0.0	0.0
