15

C	0.0	0.0	0.0
C	-0.315987	-0.008959	-1.52899
Cl	1.792461	0.0	0.0
H	-1.397063	-0.153706	-1.590445
C	-0.476519	1.258553	0.586312
N	-0.550062	2.309831	1.11839
C	-0.612428	-1.107011	0.747054
N	-0.582834	-2.043596	1.477666
N	0.300512	-1.261783	-2.159118
O	-0.090363	-2.344833	-1.732493
O	1.085953	-1.110304	-3.096238
N	0.091305	1.187627	-2.161063
H	1.099773	1.244616	-2.217539
H	-0.287606	1.229857	-3.096566
H	-2.181609	0.0	0.0
