15

C	-0.143151	0.058784	-1.538243
C	0.0	0.0	0.0
Br	0.07524	-1.903	-2.232309
H	1.092559	0.0	0.0
C	-1.45493	0.421777	-2.066454
N	-2.505049	0.735658	-2.493754
N	0.884531	0.896515	-1.950059
H	0.981622	0.979488	-2.95085
H	1.76373	0.665245	-1.432172
N	-0.657266	-1.181918	0.618841
O	-1.874053	-1.275438	0.457369
O	0.045332	-1.961254	1.251765
C	-0.54242	1.201695	0.602263
N	-0.964871	2.171593	1.114321
F	2.563976	0.0	0.0
