15

C	-0.124443	0.063794	-1.543413
C	0.0	0.0	0.0
Br	0.051917	-1.911552	-2.237505
H	1.092606	0.0	0.0
C	-1.418278	0.457345	-2.094115
N	-2.440116	0.808438	-2.557792
N	0.924877	0.874727	-1.944005
H	1.025999	0.971937	-2.943456
H	1.799288	0.633192	-1.413535
N	-0.66641	-1.180469	0.61023
O	0.030601	-1.970757	1.23596
O	-1.88442	-1.261859	0.44971
C	-0.54583	1.203704	0.595959
N	-0.974269	2.176495	1.097967
F	2.571614	0.0	0.0
