15

C	-0.125702	0.065063	-1.542863
C	0.0	0.0	0.0
Br	0.04807	-1.908674	-2.237081
H	1.09264	0.0	0.0
C	-1.418497	0.462694	-2.094919
N	-2.433147	0.823455	-2.567758
N	0.923624	0.877138	-1.941679
H	1.797238	0.63553	-1.411189
H	1.022746	0.97663	-2.941629
N	-0.668425	-1.178792	0.611185
O	-1.885161	-1.263666	0.443395
O	0.025174	-1.963487	1.247399
C	-0.541178	1.204905	0.598483
N	-0.965576	2.177226	1.104883
F	2.570382	0.0	0.0
