15

C	-0.125785	-0.057001	-1.539905
C	0.0	0.0	0.0
Br	0.141925	-2.058011	-2.078268
H	1.096844	0.0	0.0
C	-1.427214	0.255094	-2.121421
N	-2.451503	0.571215	-2.605495
N	0.896836	0.764813	-1.998273
H	1.000711	0.776008	-3.001869
H	1.773856	0.572265	-1.461239
N	-0.665258	-1.122395	0.714369
O	-1.829267	-1.364146	0.398787
O	-0.022224	-1.695735	1.588309
C	-0.541298	1.247195	0.505268
N	-0.968354	2.253118	0.938559
F	2.561588	0.0	0.0
