15

C	-0.504375	0.186157	-1.438914
C	0.0	0.0	0.0
Br	0.134414	1.97089	-1.99103
H	1.109503	0.0	0.0
C	0.135683	-0.768578	-2.349832
N	0.587557	-1.517388	-3.134545
N	-1.933732	0.161267	-1.664655
H	-2.367726	0.839273	-1.04468
H	-2.259824	-0.768724	-1.418128
N	-0.409991	-1.314578	0.545347
O	-0.83965	-2.167166	-0.241365
O	-0.244274	-1.498325	1.747658
C	-0.506412	1.026499	0.883158
N	-0.928009	1.870701	1.586429
F	2.414708	0.0	0.0
