16
Coordinates from ORCA-job run
  C   -0.87433088205093     -0.31351108824260     -0.31273007168131
  C   0.53989438969321     -0.35478297396491      0.28668590478401
  Cl  -1.13910552536509     -1.88098692108632     -1.22561223512553
  H   0.56087290662450     -1.16188812954372      1.02231870079311
  N   -1.79713835703415     -0.13260701882162      0.75732800864145
  H   -1.78924661313212     -0.93639187541669      1.37509572696391
  H   -2.73850990769592      0.01111197393638      0.41236545919985
  C   -1.05477899565828      0.77605786878380     -1.27552699576325
  N   -1.27218404039080      1.67459598817097     -2.00015092284724
  C   0.96374977298045      0.97590571119824      0.87997537931138
  H   1.95500121356399      0.87754745336799      1.32751236287026
  H   0.25289227213500      1.27788419386852      1.64772713074182
  H   1.00237786951383      1.74188241573732      0.10427710186959
  N   1.54181135092750     -0.75937483661066     -0.74948327962686
  O   1.61896168221519     -0.04930294854113     -1.74779282182416
  O   2.22973286367363     -1.74613981283557     -0.50298944830706
