16
Coordinates from ORCA-job run
  C   -0.93628580872758     -0.01926548116238     -0.24529408058906
  C   0.47412828799337     -0.02884817095058      0.37269378689336
  Cl  -0.83428054232446      0.36746914164545     -2.03957974401150
  H   0.32228461207636     -0.13355945801924      1.45100958494839
  N   -1.65164049789971     -1.20598580742496      0.05671651918943
  H   -2.63033631022559     -1.11872651875881     -0.18600827913584
  H   -1.24371574446619     -1.99546866768747     -0.42781620840902
  C   -1.64236376468765      1.12110751962697      0.35379032243351
  N   -2.19828162391720      2.02540976026540      0.85681343761270
  C   1.32526239985831      1.19129076389210      0.06722142324638
  H   0.77202312161590      2.10182487537837      0.30186083578357
  H   1.60747609951927      1.21351164998598     -0.98509292296634
  H   2.22595769990218      1.16212510655685      0.67897890460247
  N   1.26147590108338     -1.26110177340788      0.00100007946495
  O   0.84034282161248     -2.01060941289339     -0.87731927393929
  O   2.30795334858712     -1.41017352704641      0.62102561487630
