16
Coordinates from ORCA-job run
  C   -0.84537974274611     -0.08540769351520     -0.42591611762592
  C   0.45919488062461      0.05223672583031      0.38593084147097
  Cl  -0.56987433675785      0.13963061901425     -2.18052798944339
  H   0.17073265799852      0.02783302978877      1.44040246057156
  N   -1.39559115641472     -1.39686095380455     -0.23706055290603
  H   -1.48686625691570     -1.62069065302112      0.74770132703970
  H   -2.29288887244439     -1.48494003535049     -0.69785276896772
  C   -1.72836599948546      1.01783505945687      0.00434691631555
  N   -2.45056444670769      1.85425556037664      0.40680688868876
  C   1.28504141891106      1.27954256031151      0.07353021432260
  H   2.13958130073544      1.32633453664469      0.75115986777957
  H   0.68396304757584      2.17996386797729      0.21575193899709
  H   1.65071519162241      1.24613396644749     -0.95037553028612
  N   1.26469720104886     -1.20047840510201      0.19822099692846
  O   1.14776083880536     -2.05807180564572      1.07117543122175
  O   1.96784427414982     -1.27631637940873     -0.80329392410682
