16
Coordinates from ORCA-job run
  C   -0.89520470229434     -0.47598019710981     -0.10138947889443
  C   0.62534061810317     -0.38082649706651      0.13735217461628
  Cl  -1.49995765694861     -1.77057411612630      0.99134394029861
  H   1.04533151922908     -1.38413641244730      0.06035556727196
  N   -1.57496377141734      0.74011768048103      0.24188637526659
  H   -1.23099283848493      1.48616736526774     -0.35364736760443
  H   -2.57372229639176      0.63199485505951      0.10769411831700
  C   -1.14223926468954     -0.95158032566057     -1.47704939114748
  N   -1.34745978847086     -1.27882754079226     -2.58778227923808
  C   1.00159838144875      0.29072463855843      1.44478709341442
  H   0.54373811202443     -0.24232115396028      2.27748074480767
  H   2.08673797923850      0.26450769503291      1.56255717080603
  H   0.65420013140101      1.32223856930646      1.46090545716431
  N   1.26730117750664      0.38447051839062     -0.98599437827263
  O   0.72822457985984      1.43574614760754     -1.33402687010799
  O   2.31006781988597     -0.07072122654120     -1.44247287669784
