16
Coordinates from ORCA-job run
  C   -0.88382548825887     -0.29924833527270     -0.29954126476840
  C   0.53927021181117     -0.36391507331152      0.27645356267056
  Cl  -1.18658036110003     -1.85871473753801     -1.21425942890011
  H   0.56024706629004     -1.17453756838377      1.00820803827143
  N   -1.78626623295882     -0.10942130556789      0.78629352634185
  H   -1.78040770829524     -0.91615670047182      1.40024799242155
  H   -2.73088538190560      0.04966174051625      0.45727884781065
  C   -1.06382437908975      0.79702777962991     -1.25475553275271
  N   -1.27915576839784      1.70187803188325     -1.97210378207880
  C   0.99231777201693      0.95774303367914      0.86828477254748
  H   0.29889754870376      1.26636313405687      1.64923230746041
  H   1.02906225831269      1.72670036084306      0.09545297368688
  H   1.98941616424016      0.84302664942086      1.29861685760382
  N   1.51802787887625     -0.77864698668880     -0.77772028045155
  O   2.19483202781751     -1.77681822650955     -0.54685563666067
  O   1.58987439193764     -0.06494179628528     -1.77383295320241
