16
Coordinates from ORCA-job run
  C   -0.91788963187042     -0.44033435824860     -0.06993459750873
  C   0.60171520163441     -0.39378565003545      0.18915927139513
  Cl  -1.60454548114776     -1.58575991628226      1.13580335841909
  H   0.97232061047043     -1.41859028489394      0.22377089140404
  N   -1.54069587922684      0.83605707048404      0.13319087651016
  H   -2.53987453247716      0.76675456141494     -0.02162883048885
  H   -1.14114113681802      1.50286801273570     -0.51899353135840
  C   -1.16403254452916     -1.04295238752119     -1.39471999085210
  N   -1.34414495272038     -1.47931964616714     -2.47177913526102
  C   0.99007386098017      0.38989166911904      1.42870343335840
  H   2.07113869834825      0.32722261776606      1.56882203669180
  H   0.49694160873911     -0.03574693657269      2.30216458264915
  H   0.69079912408818      1.43221412041406      1.33521259014077
  N   1.29575602468128      0.21929008526742     -0.99483937006070
  O   2.29913462766353     -0.35094500611489     -1.40822970990665
  O   0.83444440218438      1.27313604863490     -1.43470187513209
