16
Coordinates from ORCA-job run
  C   -0.93425839558982     -0.25250988209668     -0.21953101827789
  C   0.54453369877252     -0.46583964891962      0.16283711870131
  Cl  -1.90556199606091     -1.21940973795746      1.03528540222160
  H   0.74040211144260     -1.53811567049446      0.14183444036756
  N   -1.26592813559348      1.11380752547984     -0.27901314948846
  H   -2.21090944996685      1.27060058504692     -0.60423921826172
  H   -1.11236662579370      1.59141275967415      0.59859443071514
  C   -1.25823770642049     -0.88717774746120     -1.50101024328583
  N   -1.56107821590844     -1.38776648673226     -2.51976481338394
  C   0.95933166128879      0.15637168641878      1.47959801406495
  H   2.00902764248928     -0.07483696282635      1.66803850069945
  H   0.86806995374355      1.24122503107467      1.45462725139762
  H   0.36496070331786     -0.25310215885447      2.29528886954730
  N   1.38340064765504      0.10157718495576     -0.95813890192286
  O   1.76284389870618      1.26384331368536     -0.85975015067218
  O   1.61377020791788     -0.66007979099299     -1.89565653242204
