16
Coordinates from ORCA-job run
  C   -0.91508284467380     -0.37727682081272     -0.39457938295143
  C   0.49252591935255     -0.40705154583161      0.23980975658772
  Cl  -1.13833139071815     -1.93164919380800     -1.26969428409894
  H   0.50818163684117     -1.24311206848788      0.94235592799170
  N   -1.97305135026660     -0.26546200389646      0.57452776135760
  H   -1.86511727633214     -0.94352188992710      1.31935045731114
  H   -2.04367690327258      0.67275809397493      0.94700417776571
  C   -1.06354535831396      0.73037072617803     -1.34470622421509
  N   -1.22972513164775      1.66302401168857     -2.03905886458505
  C   0.87786439995368      0.90497792570337      0.89754396803135
  H   0.88796943009491      1.71389552786056      0.16573681435373
  H   0.18128006160110      1.14956153756243      1.70046766046420
  H   1.87423513531992      0.81687634901517      1.33531200494979
  N   1.53881689146628     -0.74854862917772     -0.77736955971727
  O   1.66017441597958      0.02510320241919     -1.72345965687545
  O   2.20748236461579     -1.75794522246076     -0.57224055636972
