16
Coordinates from ORCA-job run
  C   -0.84647476155311     -0.44834970790806     -0.29542604100988
  C   0.57568350582865     -0.40018538874003      0.27968689662710
  Cl  -1.09981692427932     -2.04601265860361     -1.05422301678030
  H   0.64847409074991     -1.22723850977546      0.98563792794520
  N   -1.76869170202035     -0.34138234459682      0.82209150085781
  H   -2.69301676309862     -0.63051421486967      0.52027587011201
  H   -1.83246802037294      0.62904955330798      1.11340361277749
  C   -1.08433453728920      0.58252847328828     -1.31959041901757
  N   -1.37511151935948      1.45918219058216     -2.04729757145352
  C   0.91983045685381      0.93537193095719      0.91269007211878
  H   1.95818997616960      0.92143819928839      1.24991329377070
  H   0.79942131723986      1.75034552393178      0.19724967970551
  H   0.29222754186056      1.10913154525456      1.78775797975241
  N   1.58078634278352     -0.69613526362036     -0.79029945033105
  O   1.64602120458636      0.09944875359571     -1.72456652771293
  O   2.27927979190074     -1.69467808209205     -0.63730380736174
