16
Coordinates from ORCA-job run
  C   -0.81444243552002     -0.07554998185763     -0.48279228126209
  C   0.43343950863740      0.03567331461361      0.41751546537235
  Cl  -0.44020578385822      0.28524741708998     -2.19537177206377
  H   0.08237206440921     -0.07328558119795      1.44734117855364
  N   -1.33487385750174     -1.41179442390851     -0.42382907361314
  H   -1.48916461541971     -1.70489803550098      0.53475555295740
  H   -2.19518547178585     -1.48970217750513     -0.95219869130574
  C   -1.75508844931911      0.96916184037777     -0.02939269908729
  N   -2.52224719088530      1.75586486510971      0.38944275427623
  C   1.23951080798345      1.30307332556482      0.24473938086596
  H   0.60261573454275      2.17577517804757      0.40191350966564
  H   1.67470629172549      1.34766064958724     -0.75113557967482
  H   2.04405731915357      1.32755331841199      0.98195396938265
  N   1.28570022609483     -1.17922584749808      0.19220996143561
  O   2.04526714178296     -1.16709147849256     -0.77016159914013
  O   1.14453870996030     -2.09946238284183      0.99500992363751
