16
Coordinates from ORCA-job run
  C   -0.87549037421031     -0.06455751818575     -0.36678113727839
  C   0.48573363996748      0.02357334825086      0.35331774119153
  Cl  -0.74430026942929      0.35403667826899     -2.10242384411824
  H   0.28268724466160     -0.12129922999800      1.41793493627235
  N   -1.38172887877737     -1.40487694601511     -0.27995805878035
  H   -2.31044101913759     -1.46866624579518     -0.67860378346886
  H   -1.39344895357418     -1.73241580943751      0.67977192498533
  C   -1.74394191198490      0.96043792590971      0.24651464025380
  N   -2.43273533419427      1.74057185504698      0.79427924285611
  C   1.25977283386798      1.29987967100693      0.11239057458240
  H   0.65258958440559      2.16388728601997      0.38936517131867
  H   2.16123289596977      1.30148647232548      0.72784785343971
  H   1.54888407478360      1.38104373563473     -0.93310180224878
  N   1.29942478687708     -1.17874476808927     -0.02952767775821
  O   1.27050133168299     -2.12636777830691      0.75312801687713
  O   1.91926034909182     -1.12898867663591     -1.08615379812420
