16
Coordinates from ORCA-job run
  C   -0.90252102108505     -0.37976375351447     -0.16573963544460
  C   0.58357991396695     -0.37253938194291      0.24581900785335
  Cl  -1.79406143385282     -1.19021742017636      1.24905500889180
  H   0.88221576846656     -1.40560197126282      0.42495001817022
  N   -1.36527843418018      0.91195230081653     -0.47676272233765
  H   -2.31741320820581      0.91280658040223     -0.81831772942101
  H   -1.26621268482600      1.55903808614901      0.29341754959027
  C   -1.14178337184455     -1.26851222975604     -1.30725663029115
  N   -1.37660213080491     -1.96505883642710     -2.22367963347223
  C   0.91594135681726      0.52136132743207      1.42224703695225
  H   1.97969010912837      0.43205520178874      1.64846242009369
  H   0.72187256022153      1.56853248405176      1.19492592555349
  H   0.35033612322156      0.21571082797544      2.30138700821126
  N   1.38267383661630      0.05537178380908     -0.96275043803473
  O   1.70932456142075     -0.84260847747705     -1.73693071333661
  O   1.63823805494002      1.24847347813188     -1.08882647297835
