16
Coordinates from ORCA-job run
  C   -0.90497524503021     -0.39892038451838     -0.39694959292204
  C   0.49877851129130     -0.39607874119979      0.24656208909868
  Cl  -1.09310025491599     -1.96497672024982     -1.25924215874456
  H   0.52529473897310     -1.22418649669968      0.95820910878114
  N   -1.97002960363082     -0.29754449356500      0.56506533325749
  H   -2.06741032784964      0.64413694390527      0.92185653381135
  H   -1.85204540331625     -0.96210339941928      1.32024397445059
  C   -1.06807460594443      0.69713186677550     -1.35807339362654
  N   -1.24796305465900      1.62033440860490     -2.06144448684058
  C   0.85488570700360      0.92932343136145      0.89408805856947
  H   0.85055265649360      1.73236869036008      0.15572436394652
  H   1.85174466996316      0.86561016821639      1.33505515530712
  H   0.15116272254294      1.16587549109789      1.69315743265739
  N   1.55778657129488     -0.72758894329751     -0.76001267838725
  O   2.24792873126957     -1.71878435216409     -0.53790136355312
  O   1.66646418651416      0.03540253079208     -1.71633837580566
