16
Coordinates from ORCA-job run
  C   -0.83541112130773     -0.46567110550389     -0.29973582385848
  C   0.57974780085691     -0.38733372020717      0.28896149491403
  Cl  -1.05229535233043     -2.07215643022509     -1.05077480038682
  H   0.65984609723346     -1.20592668397854      1.00392215326889
  N   -1.77025038369338     -0.36912305658558      0.80831409408207
  H   -2.68619588611339     -0.67712109177620      0.49976488703578
  H   -1.85471401284688      0.60151215639025      1.09352582827160
  C   -1.08272759931103      0.55449639187386     -1.33235556082375
  N   -1.38350332024848      1.42154666387098     -2.06749703780036
  C   0.89501121808777      0.96049804213746      0.91105262206320
  H   0.77153203276430      1.76468298301692      0.18397419861737
  H   1.92897627725994      0.96639399966357      1.26177484456148
  H   0.25357942906123      1.13649698182267      1.77558888635026
  N   1.60075359421187     -0.67631928814867     -0.76796446832869
  O   2.31965564259788     -1.65676881845235     -0.59435517407821
  O   1.65499558377796      0.10579297610178     -1.71419614388838
