16
Coordinates from ORCA-job run
  C   -0.86332531009277     -0.54092642642437     -0.03276078656333
  C   0.64973378942179     -0.32293292329491      0.16992777340120
  Cl  -1.37384483662579     -1.73887192079697      1.20785839687130
  H   1.13346718413143     -1.29966859144528      0.19921169273420
  N   -1.61719962428040      0.66101720079004      0.18123053322240
  H   -2.60768289366925      0.47630438571747      0.07210351192946
  H   -1.32426557246904      1.35582270012658     -0.49764910645438
  C   -1.09040566290274     -1.18348051961854     -1.34242474858872
  N   -1.28311280310619     -1.64346461711909     -2.40730912310001
  C   0.99273632061151      0.51480070953341      1.38742743566347
  H   0.57865404563917      1.51710807218262      1.29330474797815
  H   2.07822910383675      0.57134284920613      1.49019616086572
  H   0.57793946109619      0.05113163907737      2.28195991609748
  N   1.23089585742147      0.34949566627320     -1.04274663195967
  O   0.62611130091488      1.32350934421815     -1.49257541439037
  O   2.29206964007300     -0.09318756842582     -1.46775435770689
