16
Coordinates from ORCA-job run
  C   -0.88404852326707     -0.30256826847542     -0.29534757974247
  C   0.54110383328863     -0.36167470649021      0.27615508156937
  Cl  -1.18626309060901     -1.86662313031371     -1.20217044446637
  H   0.56611655497909     -1.16892510570979      1.01150404626763
  N   -1.78324532755429     -0.11003123376228      0.79274217221383
  H   -2.72914780839216      0.04686380505292      0.46643389743054
  H   -1.77427261658547     -0.91434813180722      1.40979849547893
  C   -1.06974573113546      0.78933872629056     -1.25441790033562
  N   -1.28959212359948      1.69084586259940     -1.97460309608301
  C   0.99346656689506      0.96349350541610      0.86056243639200
  H   0.30157719286870      1.27498897313015      1.64170861055696
  H   1.99182790769974      0.85237692795723      1.28892451524319
  H   1.02721867570911      1.72875631733166      0.08392550052726
  N   1.51725380335288     -0.77908933342263     -0.77957051772243
  O   2.19667036207660     -1.77497443291992     -0.54674401601002
  O   1.58408032427313     -0.06942977487683     -1.77890120131980
