16
Coordinates from ORCA-job run
  C   -0.91097478153523     -0.14525401682848     -0.39428028235805
  C   0.44465894329968      0.03718248121348      0.35802659909587
  Cl  -0.54388703449079     -0.40893341862885     -2.13660403032887
  H   0.20055267039101      0.01435173075406      1.42435454716999
  N   -1.76993451884839     -1.20396671416485      0.04964787547882
  H   -2.20509003687490     -0.96272718785518      0.93256339108776
  H   -1.24445733621239     -2.06350072582985      0.15868866215866
  C   -1.64657667419318      1.11913024156567     -0.26808634951696
  N   -2.22935505250585      2.12691862457512     -0.11083457351853
  C   1.22735409022797      1.27801675108093     -0.00718522735350
  H   1.45529859322818      1.30099656999490     -1.07113139328336
  H   2.16770250270537      1.29801956419851      0.54466296223159
  H   0.65207082420178      2.16561571883196      0.25959415717086
  N   1.27022646785187     -1.20278432665033      0.13880675975443
  O   2.27379127060571     -1.11960680888908     -0.55932263079862
  O   0.85862007214914     -2.23145848336801      0.67909953300991
