16
Coordinates from ORCA-job run
  C   -0.92877668422889     -0.50106922210525     -0.22781064258607
  C   0.58058222897984     -0.39904314548223      0.13280887264171
  Cl  -1.58038041679065     -1.80958002640856      0.81891765711426
  H   1.02282819199318     -1.39402194393987      0.07737762283802
  N   -1.75275140907913      0.65867776684087     -0.03849887366988
  H   -1.36910734510564      1.43438239995691     -0.56767172232924
  H   -1.79819693290744      0.90426462879132      0.94295700690751
  C   -1.04321424086583     -0.94440000232004     -1.62441526423163
  N   -1.09094760524381     -1.28094143084905     -2.74897522352775
  C   0.84833035908562      0.27051836040551      1.46566719120262
  H   1.92039426952882      0.26200048295263      1.67139528885453
  H   0.34228201000684     -0.26878297766963      2.26698252079547
  H   0.50830098359287      1.30613035646726      1.44992295012768
  N   1.27325017916233      0.38758000010255     -0.94205571534722
  O   2.22997202487927     -0.13992080927373     -1.49998215188513
  O   0.83543438699264      1.51520556253130     -1.17561951690487
