16
Coordinates from ORCA-job run
  C   -0.91708029955794     -0.38783921868672     -0.37985189852346
  C   0.49504471808242     -0.40197279055536      0.24478962153036
  Cl  -1.14393106896075     -1.96058717189246     -1.22072464866389
  H   0.51670698292054     -1.22204986585716      0.96580712232765
  N   -1.96695418747962     -0.25623968034887      0.59519183553433
  H   -2.04553688531820      0.69236187728607      0.93831084419999
  H   -1.84711519955907     -0.90992208554811      1.35960457477633
  C   -1.07433947814087      0.69907819751615     -1.35222841299190
  N   -1.24901733824818      1.61608158882575     -2.06509633763841
  C   0.88288141382493      0.92452936486262      0.87148056020385
  H   1.88260934497193      0.84725239466958      1.30361004152580
  H   0.88647599542544      1.71785025061304      0.12268853110951
  H   0.19132904229431      1.18508761990915      1.67369392901941
  N   1.53456975691503     -0.76388103372045     -0.77159472620415
  O   2.20881526973760     -1.76555370564165     -0.54741042661549
  O   1.64554193309243     -0.01319574143159     -1.73727060958994
