18

C	0.0	0.0	0.0
C	-0.368668	-0.096706	-1.50306
F	1.379115	0.0	0.0
H	0.402466	0.503157	-1.99477
N	-0.31908	1.425124	0.48374
O	0.076	2.322852	-0.256644
O	-0.867735	1.582866	1.567661
N	-0.538146	-0.904446	0.930341
H	-0.641811	-1.814172	0.500303
H	-1.456975	-0.582903	1.227384
N	-1.650339	0.411402	-1.918552
H	-2.431045	0.035519	-1.37455
H	-1.687962	1.415892	-1.798767
C	-0.221003	-1.54657	-1.955452
H	-1.059774	-2.147833	-1.591452
H	0.721343	-1.989718	-1.61799
H	-0.261355	-1.57303	-3.046187
Cl	-4.160219	0.0	0.0
