18

C	0.0	0.0	0.0
C	-0.372904	-0.171885	-1.507626
F	1.376013	0.0	0.0
H	0.453109	0.324075	-2.027448
N	-0.328549	1.446748	0.409978
O	-0.929659	1.658358	1.454081
O	0.093675	2.305531	-0.361415
N	-0.52497	-0.85663	0.986379
H	-1.506947	-0.620147	1.136185
H	-0.474664	-1.810529	0.656999
N	-1.599564	0.41727	-1.986532
H	-1.538661	1.426034	-1.930752
H	-2.408099	0.138879	-1.426488
C	-0.360278	-1.657276	-1.848052
H	0.541532	-2.158083	-1.480648
H	-1.245912	-2.146579	-1.43152
H	-0.407216	-1.765091	-2.931988
Cl	-4.052541	0.0	0.0
