18

C	0.0	0.0	0.0
C	-0.428793	-0.485416	-1.38677
F	1.36707	0.0	0.0
H	0.073337	-1.470184	-1.465067
N	-0.382066	1.473415	0.164074
O	0.483378	2.309658	-0.057407
O	-1.542107	1.69261	0.491291
N	-0.506175	-0.684613	1.131312
H	-0.513525	-1.680833	0.949099
H	-1.466845	-0.384522	1.284245
N	0.059004	0.475869	-2.369631
H	1.069884	0.529461	-2.342117
H	-0.225536	0.183698	-3.295725
C	-1.927891	-0.676769	-1.5386
H	-2.148498	-0.88851	-2.589037
H	-2.506746	0.198237	-1.247443
H	-2.307973	-1.502858	-0.93911
Cl	-4.951889	0.0	0.0
