18

C	0.0	0.0	0.0
C	-0.383887	0.426122	-1.43273
F	1.398052	0.0	0.0
H	0.379979	1.171358	-1.67432
N	-0.232791	1.189805	0.993579
O	-0.082199	2.329186	0.563185
O	-0.457317	0.896958	2.164336
N	-0.554537	-1.18201	0.466447
H	-1.543015	-1.196192	0.214348
H	-0.498598	-1.223611	1.476936
N	-1.666873	1.042964	-1.653884
H	-2.451248	0.469818	-1.34607
H	-1.731543	1.899823	-1.120833
C	-0.210091	-0.771135	-2.362239
H	-0.995188	-1.511054	-2.187925
H	0.759047	-1.254058	-2.216348
H	-0.295626	-0.415781	-3.390034
Cl	-4.160049	0.0	0.0
