18

C	0.0	0.0	0.0
C	-0.478971	0.122247	-1.449498
F	1.380127	0.0	0.0
H	-0.215161	-0.863936	-1.849188
N	-0.26454	1.304515	0.821801
O	-0.4642	2.358243	0.224558
O	-0.184159	1.186732	2.041857
N	-0.505357	-1.123262	0.657726
H	-0.303678	-1.063909	1.648259
H	-1.51004	-1.184555	0.526967
N	0.341506	1.09407	-2.178476
H	-0.037757	2.016824	-2.003108
H	0.224628	0.90399	-3.166569
C	-1.976936	0.340334	-1.601296
H	-2.227443	0.282952	-2.664809
H	-2.626617	-0.366014	-1.084537
H	-2.270639	1.326071	-1.241326
Cl	-4.917109	0.0	0.0
