18

C	0.0	0.0	0.0
C	-0.3589	-0.083261	-1.509573
F	1.375964	0.0	0.0
H	0.4648	0.470496	-1.969785
N	-0.235156	1.461567	0.530184
O	-0.105827	2.38565	-0.266338
O	-0.431566	1.592915	1.735542
N	-0.573735	-0.949076	0.831826
H	-0.424526	-0.698768	1.803374
H	-1.583727	-0.941381	0.66029
N	-1.581307	0.493249	-2.010129
H	-2.401258	0.133086	-1.524411
H	-1.574789	1.490952	-1.842587
C	-0.263459	-1.545551	-1.939047
H	0.658443	-2.01195	-1.58527
H	-1.110915	-2.109152	-1.545286
H	-0.301619	-1.582031	-3.029433
Cl	-3.943586	0.0	0.0
