13
Coordinates from ORCA-job run
  C   -0.57947032707070     -0.40475894118605     -0.11557945066578
  C   0.92165280879926     -0.01801026628705     -0.14217360849723
  F   -0.58990997957271     -1.80338547425303     -0.15357790809332
  H   1.31699276509154     -0.38530712150396     -1.09858534934814
  N   -1.24457875422226      0.19543551987962     -1.19862489884525
  H   -2.24750567422308      0.07191798042714     -1.15354113885436
  H   -0.88861981028260     -0.13002169432380     -2.08902077351578
  C   -1.20482068877486      0.00324594732444      1.15359744655983
  N   -1.71355373842803      0.31605983882479      2.16451985372076
  C   1.65415704007366     -0.67816978579189      0.94168726269644
  N   2.24447996854649     -1.20052140962580      1.81131245682451
  C   1.08839955148775      1.43531089652389     -0.08230738872617
  N   1.24177683857554      2.59820450999167     -0.03670650325551
