13
Coordinates from ORCA-job run
  C   -0.54383007340114     -0.35792501996024      0.06897105764974
  C   0.77664227747527      0.45125224358677      0.00848332410618
  F   -0.37331950495560     -1.38688888733119      0.95570135041712
  H   0.64541340126061      1.26836585880016     -0.71287663797873
  N   -0.80307195585094     -0.93248551735881     -1.21206972545482
  H   -1.02824801290054     -0.22577127966456     -1.90206047015010
  H   -1.57413646662458     -1.58755470010939     -1.14644616090526
  C   -1.62513482581176      0.51488271477294      0.59301580229535
  N   -2.50611321400528      1.22095130567712      0.91963223439958
  C   1.86645708272119     -0.41584243358860     -0.44876982600946
  N   2.75912819104953     -1.08562684244168     -0.81122205368336
  C   1.08455088092319      1.03186363805835      1.31878274207624
  N   1.32066222012005      1.50477891955912      2.36685836323752
