13
Coordinates from ORCA-job run
  C   -0.62815249247591     -0.35034817521351      0.16703943488339
  C   0.83075404931445      0.07116025341842      0.49174273110278
  F   -0.73324424043354     -1.66060956652711      0.65355305373295
  H   0.99342071174597     -0.11036432152868      1.56013563759521
  N   -0.89384373262159     -0.22587453733338     -1.20375306026312
  H   -1.86620945973770     -0.38965100954188     -1.42827269553357
  H   -0.29293020045938     -0.81752644641312     -1.76552839845557
  C   -1.56683373752410      0.47451459837727      0.94794528969323
  N   -2.31304448597560      1.11932604968562      1.58494066469432
  C   1.04444798333147      1.48945059434886      0.19924067813257
  N   1.21856402593590      2.63091304434863     -0.01191155175205
  C   1.75210741627760     -0.77136395012939     -0.27668389124275
  N   2.45496416262243     -1.45962653349173     -0.91744789258740
