13
Coordinates from ORCA-job run
  C   -0.56320681916477     -0.42667880665196     -0.10942167194858
  C   0.91809303362805      0.02818633318294     -0.16604160478386
  F   -0.51298265759865     -1.82305434122768     -0.17991114346875
  H   1.30232014378827     -0.29681683694702     -1.14209047646451
  N   -1.28332918813151      0.16698075023693     -1.16042238447792
  H   -2.27816579941640     -0.00329194616215     -1.09251584676749
  H   -0.93697956349869     -0.12172324342387     -2.06707753012706
  C   -1.17085664164716     -0.07468766532421      1.18488907369507
  N   -1.66360943928612      0.19597244611581      2.21571151417111
  C   1.70872733973185     -0.62708051499783      0.87916397578720
  N   2.34252983171624     -1.15485591380527      1.71427024954265
  C   1.02006742840952      1.48564446054792     -0.07286159641478
  N   1.11739233146936      2.65340527845639     -0.00369255874307
