14

C	0.0	0.0	0.0
C	-0.567278	-0.044909	-1.42591
Br	1.949988	0.0	0.0
H	-1.654637	0.094177	-1.26674
H	-0.323571	0.915113	0.497676
C	-0.405521	-1.157075	0.793873
N	-0.630644	-2.08627	1.476821
C	-0.337903	-1.373267	-2.140582
H	-0.840948	-2.166616	-1.584815
H	-0.775857	-1.329634	-3.139516
H	0.725252	-1.607301	-2.23234
C	-0.059929	1.08114	-2.203917
N	0.337814	1.972676	-2.858257
Br	-3.611684	0.0	0.0
