14

C	0.0	0.0	0.0
C	-0.569338	0.052711	-1.424882
Br	1.949707	0.0	0.0
H	-1.656494	0.181249	-1.255006
H	-0.321511	0.880509	0.558206
C	-0.406232	-1.20688	0.715822
N	-0.626894	-2.182717	1.33193
C	-0.341922	-1.224205	-2.228091
H	0.721325	-1.446086	-2.345168
H	-0.835774	-2.055684	-1.721613
H	-0.790098	-1.116634	-3.217723
C	-0.061234	1.227201	-2.126742
N	0.335848	2.159346	-2.72203
Br	-3.612999	0.0	0.0
