14

C	0.0	0.0	0.0
C	-0.396353	0.078851	-1.517843
Br	1.952433	0.0	0.0
H	0.524895	-0.101339	-2.080011
H	-0.362187	0.865579	0.551042
C	-0.388162	-1.235898	0.670974
N	-0.531	-2.260953	1.228725
C	-0.879049	1.481604	-1.882221
H	-0.09054	2.201569	-1.635334
H	-1.793947	1.705385	-1.335254
H	-1.076307	1.540593	-2.955674
C	-1.274556	-0.994834	-1.995301
N	-1.742224	-1.878214	-2.616764
Br	-3.311992	0.0	0.0
