14

C	0.0	0.0	0.0
C	-0.395511	0.243952	-1.501935
Br	1.952645	0.0	0.0
H	0.534739	0.169747	-2.072648
H	-0.351812	0.810985	0.635198
C	-0.404425	-1.289776	0.546515
N	-0.554624	-2.363349	1.001778
C	-0.937275	1.656415	-1.715581
H	-1.096541	1.834242	-2.782473
H	-0.201706	2.380736	-1.35068
H	-1.881312	1.76595	-1.184628
C	-1.22147	-0.810866	-2.099154
N	-1.669479	-1.684447	-2.744986
Br	-3.362329	0.0	0.0
