14

C	0.0	0.0	0.0
C	-0.393336	0.091678	-1.519683
Br	1.952286	0.0	0.0
H	0.5329	-0.066076	-2.079721
H	-0.361501	0.862923	0.557026
C	-0.390745	-1.241127	0.659585
N	-0.536303	-2.27081	1.208292
C	-0.901185	1.487783	-1.876268
H	-1.067513	1.555229	-2.95444
H	-0.138487	2.224545	-1.600342
H	-1.835776	1.675749	-1.351779
C	-1.253883	-0.987944	-2.014854
N	-1.715597	-1.864247	-2.650083
Br	-3.330015	0.0	0.0
