14

C	0.0	0.0	0.0
C	-0.532227	-0.278662	-1.416801
Br	1.948142	0.0	0.0
H	-0.098064	0.497903	-2.056755
H	-0.318052	0.996792	0.311164
C	-0.44835	-0.993454	0.968906
N	-0.767771	-1.828417	1.731257
C	-2.076508	-0.220694	-1.449771
H	-2.425855	0.562838	-2.119959
H	-2.53552	-0.03006	-0.477641
H	-2.508085	-1.161405	-1.787054
C	-0.019464	-1.560304	-1.908678
N	0.379633	-2.57158	-2.352614
Br	-5.221319	0.0	0.0
