17

C	0.0	0.0	0.0
C	-0.423917	-0.357559	-1.448745
F	1.408027	0.0	0.0
H	0.233711	0.287217	-2.053223
N	-0.509336	1.253816	0.393129
H	-0.323285	1.473589	1.361358
H	-0.186463	1.992898	-0.218467
C	-0.399394	-1.024696	0.982736
N	-0.646889	-1.861919	1.767034
N	-1.786797	-0.075854	-1.815514
H	-1.996789	0.904209	-1.678067
H	-2.470529	-0.54199	-1.217517
C	-0.090913	-1.812397	-1.750935
H	0.912827	-2.079452	-1.414556
H	-0.812426	-2.465569	-1.252359
H	-0.170721	-1.983702	-2.824263
Cl	-4.56236	0.0	0.0
