17

C	0.0	0.0	0.0
C	-0.365375	-0.344466	-1.489578
F	1.387586	0.0	0.0
H	0.505971	0.069868	-2.010414
N	-0.498241	1.285988	0.360809
H	-0.292071	1.465555	1.338446
H	-1.515236	1.242677	0.268512
C	-0.350125	-1.070907	0.972514
N	-0.558616	-1.922645	1.754566
N	-1.536509	0.260415	-2.067858
H	-2.383905	-0.001802	-1.560912
H	-1.462571	1.269491	-2.021537
C	-0.398045	-1.8502	-1.705538
H	0.495029	-2.333545	-1.298655
H	-1.280988	-2.280192	-1.226093
H	-0.45627	-2.048743	-2.776887
Cl	-3.946803	0.0	0.0
