17

C	0.0	0.0	0.0
C	-0.531475	-0.069965	-1.431772
F	1.390691	0.0	0.0
H	-1.60278	0.14074	-1.351729
N	-0.474648	1.192844	0.632691
H	-1.495375	1.178848	0.542527
H	-0.262703	1.151631	1.624444
C	-0.336986	-1.244611	0.749076
N	-0.529867	-2.229773	1.35847
N	-0.273116	-1.408703	-1.976969
H	-0.984509	-2.036252	-1.611901
H	-0.423768	-1.368202	-2.979338
C	0.15146	0.980416	-2.290634
H	-0.347308	1.039588	-3.263341
H	0.094088	1.958881	-1.813611
H	1.199798	0.715337	-2.445998
Cl	-3.639608	0.0	0.0
