17

C	0.0	0.0	0.0
C	-0.286961	0.218146	-1.501892
F	1.417851	0.0	0.0
H	0.270647	-0.575143	-2.023139
N	-0.511263	0.983822	0.881038
H	-1.47276	0.751296	1.122839
H	-0.510287	1.862104	0.37039
C	-0.388825	-1.356434	0.431265
N	-0.636269	-2.446873	0.786162
N	0.237874	1.553296	-1.804936
H	-0.158912	1.877051	-2.677647
H	1.245118	1.519644	-1.896791
C	-1.747658	0.14542	-1.87384
H	-1.843497	0.183385	-2.964318
H	-2.232168	-0.761986	-1.518195
H	-2.319354	0.963479	-1.441254
Cl	-4.457893	0.0	0.0
