17

C	0.0	0.0	0.0
C	-0.470522	0.120183	-1.446413
F	1.403453	0.0	0.0
H	-1.548814	-0.060679	-1.413419
N	-0.502005	1.059101	0.804857
H	-1.520163	1.06284	0.665532
H	-0.337723	0.849776	1.783794
C	-0.313923	-1.358698	0.529897
N	-0.515554	-2.402156	1.030017
N	0.160968	-0.957925	-2.203039
H	1.109852	-0.693023	-2.440782
H	-0.352281	-1.1029	-3.062854
C	-0.196735	1.517632	-1.994566
H	-0.499581	1.555306	-3.044941
H	0.870774	1.750108	-1.927904
H	-0.748974	2.279611	-1.445167
Cl	-3.58674	0.0	0.0
