14

C	-0.479648	0.025256	-1.465728
C	0.0	0.0	0.0
F	0.12678	-1.060769	-2.095272
H	1.095815	0.0	0.0
N	-1.895469	-0.032808	-1.548998
H	-2.235708	-0.869675	-1.088516
H	-2.195521	-0.032024	-2.515774
C	-0.017868	1.245836	-2.156402
N	0.280946	2.209515	-2.757052
C	-0.485263	-1.230511	0.622705
N	-0.908412	-2.224502	1.084309
C	-0.494662	1.16836	0.723594
N	-0.878076	2.113052	1.306328
Cl	3.142093	0.0	0.0
