14

C	-0.283897	-0.046339	-1.520045
C	0.0	0.0	0.0
F	-0.031595	1.250709	-1.999125
H	1.098129	0.0	0.0
N	0.550369	-1.029019	-2.074419
H	0.488452	-1.053333	-3.083568
H	1.513979	-0.891586	-1.762592
C	-1.70356	-0.31152	-1.842945
N	-2.829046	-0.51403	-2.110395
C	-0.480836	-1.211	0.656762
N	-0.87758	-2.175728	1.196484
C	-0.542891	1.195876	0.630223
N	-0.991225	2.150222	1.146941
Cl	3.169696	0.0	0.0
