14

C	-0.469243	0.007282	-1.467282
C	0.0	0.0	0.0
F	-0.024413	-1.148786	-2.061759
H	1.096562	0.0	0.0
N	-1.899209	0.012132	-1.550311
H	-2.197143	0.161636	-2.506787
H	-2.29315	0.737495	-0.964453
C	0.151228	1.141849	-2.200384
N	0.49997	2.070285	-2.830499
C	-0.493972	-1.199201	0.673836
N	-0.873999	-2.158897	1.233219
C	-0.483936	1.203571	0.671336
N	-0.909896	2.177749	1.171733
Cl	3.128186	0.0	0.0
