14

C	-0.46244	-0.352313	-1.42893
C	0.0	0.0	0.0
F	0.124194	-1.580167	-1.735527
H	1.102612	0.0	0.0
N	-1.87764	-0.39852	-1.523383
H	-2.164627	-0.637509	-2.464795
H	-2.246569	-1.081729	-0.870626
C	0.044585	0.630361	-2.407888
N	0.379528	1.386804	-3.240555
C	-0.500492	-1.025136	0.913201
N	-0.95393	-1.859567	1.604478
C	-0.493576	1.318002	0.389139
N	-0.881496	2.380061	0.706288
Cl	3.139079	0.0	0.0
