14

C	-0.516628	0.125554	-1.443418
C	0.0	0.0	0.0
F	-1.935635	0.100927	-1.376533
H	1.103938	0.0	0.0
N	-0.026328	1.288274	-2.053663
H	-0.424586	1.432799	-2.970987
H	-0.127294	2.10812	-1.470226
C	-0.160668	-1.058113	-2.250397
N	0.049552	-1.987063	-2.936501
C	-0.494544	-1.226385	0.620241
N	-0.885224	-2.214966	1.119314
C	-0.456955	1.167366	0.754574
N	-0.811276	2.138218	1.312975
Cl	3.134869	0.0	0.0
