12

C	-0.535686	-0.021859	-1.418488
C	0.0	0.0	0.0
F	-0.33022	-1.242211	-1.973947
H	1.095343	0.0	0.0
H	-1.599624	0.221657	-1.488287
H	-0.314976	-0.94426	0.457203
N	0.146899	1.017137	-2.282355
O	0.712572	0.647454	-3.299208
O	0.007966	2.170172	-1.884846
C	-0.546842	1.094164	0.789884
N	-1.004385	1.941702	1.461699
Cl	3.288796	0.0	0.0
