12

C	-0.458576	0.030495	-1.431559
C	0.0	0.0	0.0
F	-1.828372	0.062046	-1.536826
H	1.092376	0.0	0.0
H	-0.037232	0.852689	-2.007012
H	-0.357649	-0.916111	0.473632
N	-0.03258	-1.232569	-2.138003
O	0.516731	-1.100774	-3.228359
O	-0.327363	-2.293136	-1.595013
C	-0.514911	1.165086	0.707152
N	-0.946728	2.101906	1.266927
Cl	3.27801	0.0	0.0
