12

C	-0.537855	0.025868	-1.41594
C	0.0	0.0	0.0
F	-0.35213	-1.180928	-2.006619
H	1.093544	0.0	0.0
H	-1.596604	0.288421	-1.479541
H	-0.31252	-0.956123	0.431836
N	0.16249	1.079478	-2.249753
O	0.031368	2.221008	-1.823588
O	0.735711	0.732986	-3.269472
C	-0.54071	1.073369	0.823932
N	-0.990928	1.900219	1.525691
Cl	3.289496	0.0	0.0
