18
Coordinates from ORCA-job run
  C   0.75291722458341     -0.59813608548404      0.20263606463270
  C   -0.67528119054716     -0.06345624497681      0.30106995417032
  Br  0.89372848589967     -2.43405445946556      0.85254173976512
  H   -0.97860225449497     -0.20294440170384      1.34181741950197
  N   1.28517221194975     -0.54074420900662     -1.09711133124709
  H   2.23662252945147     -0.88435042406008     -1.12597209796911
  H   1.27237512437030      0.41029688455972     -1.44502244609219
  N   1.60243721211335      0.22277151685158      1.23585248401605
  O   2.60340540681565      0.78053917069456      0.79587263775068
  O   1.18686191643393      0.28480601056508      2.38418321934980
  C   -1.62428473405414     -0.82868817577003     -0.61565347811785
  H   -1.65214175047638     -1.89040379343625     -0.36950558975678
  H   -1.32084306226931     -0.72896834684565     -1.65896756009053
  H   -2.63559440006580     -0.42884141731591     -0.50708833026971
  C   -0.71118676412983      1.43599373368445     -0.01318650766335
  H   -0.49059603856508      1.63468381166218     -1.06601007445823
  H   -1.71817955410921      1.81367159689110      0.17690863646233
  H   -0.02481036290567      2.01682483315613      0.60663526001588
