18
Coordinates from ORCA-job run
  C   0.79537334271055     -0.43381437851555      0.24886498121228
  C   -0.68042403761617     -0.05244439313214      0.29722919955347
  Br  1.01658482305667     -2.31003164898889      1.00696024036855
  H   -1.02668088728506     -0.27242776839786      1.30913591746862
  N   1.37918247831704     -0.26216120708520     -1.00536469474242
  H   2.38409575162231     -0.37653921669241     -0.98099474438881
  H   0.96068017963977     -0.86633407146161     -1.69866307136565
  N   1.59955637043611      0.38879268864075      1.25982288892249
  O   1.04582753673111      0.66121292017522      2.31567444967781
  O   2.74657986611602      0.68572469852640      0.94501652937269
  C   -1.49470335196417     -0.86944939015443     -0.70440047605819
  H   -2.55727427195396     -0.66683646177770     -0.55418805499310
  H   -1.25812794680010     -0.58325914420566     -1.73340314198166
  H   -1.33857181050137     -1.94259191413267     -0.58590443175767
  C   -0.85011745125536      1.44437498664031      0.02239582726723
  H   -0.35916799645463      2.05801219534139      0.77839572214388
  H   -1.91432620170081      1.69231159541278      0.03842045444470
  H   -0.44848639309795      1.70546050980726     -0.95799759514422
