18
Coordinates from ORCA-job run
  C   0.83065470621184     -0.50738983198085      0.03364729420015
  C   -0.57581128898782     -0.10836840452296     -0.42830602642106
  Br  0.88951075646371     -2.47450568718345      0.51790864801674
  H   -0.63646524708726     -0.54369458755115     -1.43581872903433
  N   1.79724217242915     -0.16206374226274     -0.91949857464739
  H   1.62065961357695     -0.62055307528833     -1.80301124858456
  H   2.73729285447125     -0.34874934877865     -0.59505510255372
  N   1.25318944032089      0.15603143915858      1.34643123195762
  O   2.45443584065572      0.33979436669207      1.50427532975148
  O   0.37361583588956      0.42868512971773      2.15268776877609
  C   -0.66073170488178      1.41698148905221     -0.56845118494309
  H   0.20170571441150      1.82206071357536     -1.09732652527554
  H   -1.56305911419324      1.67503541491240     -1.12781766922266
  H   -0.73110293060821      1.89001017825165      0.41275232483415
  C   -1.76462401949129     -0.64737646449658      0.36337933559126
  H   -2.68153662987068     -0.31390311818579     -0.12984633937633
  H   -1.77770700477314     -1.73597749562584      0.39243663713704
  H   -1.76726899453715     -0.26901697548366      1.38361282979415
