18
Coordinates from ORCA-job run
  C   0.83742346060531     -0.27874076754214      0.17134041027358
  C   -0.53475550233781      0.37555314066734      0.03004657159677
  Br  0.73181413080950     -2.22673144001975     -0.37354903224709
  H   -0.44514392625397      1.29282654566223      0.62317488202817
  N   1.85928620878449      0.41977146249915     -0.48806292195679
  H   1.70454423807516      0.45869153755122     -1.48576423067826
  H   2.76385747340029      0.00748391569938     -0.29131456946557
  N   1.30216478321707     -0.34516007916009      1.63488070081804
  O   2.45801135507956     -0.70900277442512      1.81220920117068
  O   0.51271986305378     -0.00655296746260      2.50769326080486
  C   -1.70586100266469     -0.44504872598810      0.56762907859421
  H   -1.97326290388632     -1.24247270924095     -0.12708379082321
  H   -2.57126601207522      0.21429047321049      0.67468098456054
  H   -1.49723488771571     -0.88351463673970      1.54108750219105
  C   -0.79585860165565      0.76657470580342     -1.42526911637265
  H   -1.81218333207924      1.15589690646603     -1.51496137837665
  H   -0.11786570644192      1.54860974547067     -1.77183025660644
  H   -0.71738963791459     -0.10247433245148     -2.08490729551125
