18
Coordinates from ORCA-job run
  C   0.87591977217943     -0.42557761006103     -0.00172801722993
  C   -0.57258432490142     -0.14690254176439     -0.42097241849825
  Br  1.13448350683015     -2.39541009848860      0.39412561353041
  H   -0.61408273689091     -0.55087656839550     -1.44248880884658
  N   1.78325230530227      0.05195894438798     -0.95635925936513
  H   1.62963088710951     -0.38105098752308     -1.85682951606912
  H   2.74412488451229     -0.05834025255590     -0.65921459377928
  N   1.26301650569222      0.22093742697821      1.32995529624705
  O   0.37835912641260      0.38572528751510      2.15969480729513
  O   2.44666387912939      0.50223726657391      1.47681553262608
  C   -0.80689027244760      1.36660649457563     -0.50307537849584
  H   -1.74689892523806      1.55490095390039     -1.02714534631084
  H   -0.00408348393452      1.87080535303305     -1.04043374399005
  H   -0.89145994728311      1.79791817767188      0.49607644090057
  C   -1.68542964602309     -0.82664385709633      0.37301787384006
  H   -1.70284349251168     -0.48443738569036      1.40577507625953
  H   -1.59088407224361     -1.91153790027219      0.36374330723462
  H   -2.64129396569385     -0.56931270278879     -0.09095686534841
