18
Coordinates from ORCA-job run
  C   0.88742918671596     -0.61626890319208     -0.01641858399556
  C   -0.53512348099420     -0.18528971011639     -0.44507862440197
  Br  1.01344820110287     -2.56098422094307     -0.05705248647529
  H   -0.69113145242722     -0.70557755132797     -1.39835879225174
  N   1.99569885967678     -0.11291151147468     -0.76506877946071
  H   2.03801516679849      0.89578125072298     -0.69726628017912
  H   1.92747131148501     -0.40432135178202     -1.73150695130268
  N   1.09075030859794     -0.13174244178194      1.42345300564959
  O   0.74921481082025     -0.84696291594693      2.35343090244470
  O   1.51265987154230      1.02034399866427      1.51609029233663
  C   -0.62432241092502      1.31987154337988     -0.70502262621068
  H   -1.63200010216437      1.55885763254206     -1.05277034692934
  H   -0.43712570000232      1.89795660360847      0.20202338279870
  H   0.07275416709131      1.64996980153305     -1.47691992588460
  C   -1.62733622073089     -0.61961672399198      0.53055348156807
  H   -2.60531819555386     -0.43827582042053      0.07841958738962
  H   -1.55901308022877     -1.67717362593477      0.78363937587792
  H   -1.57907124080426     -0.04365605353835      1.45785336902646
