18
Coordinates from ORCA-job run
  C   0.91438027023119     -0.34256244592765     -0.11588031001823
  C   -0.58990762342024     -0.25508618065837     -0.37111673681281
  Br  1.84958168299973     -1.26080619396000     -1.56411246102019
  H   -0.92389056584164     -1.27890047738461     -0.55786088201018
  N   1.52262879989329      0.90767626340866      0.08857673681406
  H   1.08526650623785      1.39462151222398      0.86133704363910
  H   2.51189354153006      0.81468052913210      0.28048871294260
  N   1.09779609070610     -1.30728927795157      1.10804036325960
  O   1.74209806172349     -0.86727355287721      2.05556118170267
  O   0.55338856888484     -2.40060895199342      1.04997622118363
  C   -0.90199219096251      0.61552627332227     -1.58396922930069
  H   -1.98228369926993      0.63637361443855     -1.74817255566336
  H   -0.55443650589313      1.63798165505676     -1.42789750463659
  H   -0.42957235099549      0.23023176788402     -2.48782842463091
  C   -1.31818284683489      0.26704277228086      0.87219836190444
  H   -2.39534486136177      0.21495058886835      0.69945973886623
  H   -1.10459493682961     -0.32094581825106      1.76729015662234
  H   -1.07882794079736      1.31538792238833      1.07290958715832
