18
Coordinates from ORCA-job run
  C   0.87383378235798     -0.45230883678053      0.00694760516005
  C   -0.42174160128977      0.37757635629537     -0.00615730760195
  Br  0.62899202983099     -2.18117149157882     -0.83064417613529
  H   -0.11653481224017      1.32660682781775      0.45555929875443
  N   2.04061657817089      0.15095741838205     -0.56912650069183
  H   2.11361546351941      1.11736850884205     -0.27315648846435
  H   2.01955209545357      0.09042503404781     -1.57709782525313
  N   1.21861333515931     -0.64851838403713      1.49439575913011
  O   1.60237013406099      0.38911904761025      2.02978324987834
  O   1.04718290428584     -1.72458535313860      2.04404178110635
  C   -1.53633463645315     -0.22766421350360      0.84225155197029
  H   -1.82150450624721     -1.21385320812796      0.46996732620892
  H   -1.25084129488492     -0.32673104912037      1.89123805304479
  H   -2.41637675424437      0.41860567760210      0.80091973958599
  C   -0.89650207422509      0.66530805537555     -1.42683616246062
  H   -0.09900023901083      1.07305394313310     -2.05152254378973
  H   -1.28369647804650     -0.23690994046431     -1.90347043158316
  H   -1.70124392619694      1.40372160764527     -1.39709292885921
