18
Coordinates from ORCA-job run
  C   0.83907507965893     -0.60422825671509     -0.13896928266107
  C   -0.60091853254369     -0.17876647685214     -0.46655130547455
  Br  1.02538191877954     -2.53920875126371     -0.18469435079117
  H   -0.80470273658974     -0.68554554708429     -1.41616163285190
  N   1.77660832720800     -0.05702721316987     -1.04670526451688
  H   1.83045657260564      0.94668387372614     -0.92260295832670
  H   2.69766394503887     -0.45317479282442     -0.90339105337963
  N   1.12687117126702     -0.15653682129463      1.33489251616369
  O   1.63298276509231      0.96161408182548      1.43345222443801
  O   0.77436509096150     -0.86693321482081      2.26482042006652
  C   -0.70471208301343      1.33060824326797     -0.70204291675412
  H   -0.11280884870936      1.65209003416688     -1.56029317323118
  H   -1.74605809490569      1.58371079684482     -0.91314837013116
  H   -0.39700760624125      1.89960296474858      0.17849014316670
  C   -1.62900466567394     -0.62892336148515      0.56838039645817
  H   -1.52727090461956     -1.68392358065560      0.82208729396415
  H   -1.54920201361381     -0.04858902999089      1.49032445678362
  H   -2.63071938470136     -0.47045294842328      0.16211285707748
