17

C	0.0	0.0	0.0
C	-0.518137	-0.096758	-1.427982
Cl	1.791121	0.0	0.0
H	-1.604904	0.045248	-1.332005
H	-0.328171	0.951246	0.415155
C	-0.454888	-1.159705	0.87654
H	-1.54377	-1.232367	0.853526
H	-0.130307	-0.975761	1.903055
H	0.002246	-2.095643	0.546619
C	-0.178785	-1.374301	-2.160914
H	-0.525995	-1.324456	-3.192375
H	0.895773	-1.563994	-2.170748
H	-0.691584	-2.202694	-1.672076
N	-0.014609	1.106325	-2.181478
O	-0.261247	2.205311	-1.689339
O	0.607354	0.936299	-3.230588
Cl	-3.650537	0.0	0.0
