17

C	0.0	0.0	0.0
C	-0.465368	0.539735	-1.368912
Cl	1.792477	0.0	0.0
H	0.340353	1.157805	-1.775443
H	-0.271828	0.769355	0.72503
C	-0.614739	-1.318911	0.411302
H	-0.348557	-1.552965	1.442881
H	-1.70535	-1.227969	0.346708
H	-0.272603	-2.129155	-0.231337
C	-1.758102	1.319231	-1.30955
H	-1.625157	2.169826	-0.63706
H	-2.012777	1.702263	-2.297737
H	-2.60844	0.736536	-0.942969
N	-0.551302	-0.586657	-2.378385
O	-1.543231	-0.653758	-3.098001
O	0.415096	-1.347154	-2.445557
Cl	-4.657783	0.0	0.0
