16

C	0.0	0.0	0.0
C	-0.561463	-0.114217	-1.408069
F	1.393997	0.0	0.0
H	-1.659306	-0.15502	-1.223126
H	-0.340926	0.97394	0.359909
C	-0.489454	-1.084095	0.929714
H	-0.124095	-2.06238	0.60703
H	-0.123966	-0.890378	1.94277
H	-1.58469	-1.0222	0.876303
N	-0.10151	-1.411662	-2.002779
O	1.011794	-1.435859	-2.528922
O	-0.841357	-2.390155	-1.902495
N	-0.164293	0.942069	-2.30916
H	0.792107	1.216525	-2.111825
H	-0.777471	1.730273	-2.144986
F	-2.881169	0.0	0.0
