16

C	0.0	0.0	0.0
C	-0.319242	-0.18774	-1.480318
F	1.402587	0.0	0.0
H	0.532362	0.260275	-1.996455
H	-0.333835	0.983016	0.315416
C	-0.433969	-1.046905	0.982946
H	0.219562	-0.975427	1.8618
H	-0.310842	-2.049072	0.546152
H	-1.48476	-0.834139	1.181483
N	-1.513221	0.673592	-1.979616
O	-2.314377	0.170729	-2.74629
O	-1.412539	1.881855	-1.737762
N	-0.473472	-1.558229	-1.866074
H	-0.151337	-1.707686	-2.816775
H	-1.474208	-1.766277	-1.840161
F	-2.625851	0.0	0.0
