16

C	0.0	0.0	0.0
C	-0.311712	-0.03536	-1.500059
F	1.393645	0.0	0.0
H	0.208094	-0.908286	-1.911264
H	-0.3361	0.945504	0.428997
C	-0.586315	-1.175859	0.72706
H	-0.257318	-1.184319	1.769863
H	-0.280852	-2.114898	0.253849
H	-1.676644	-1.045723	0.673114
N	0.521954	1.115682	-2.125032
O	1.142062	0.856903	-3.159289
O	0.451189	2.229859	-1.618863
N	-1.641696	0.1135	-1.916
H	-1.896645	-0.615855	-2.563573
H	-2.360713	0.149483	-1.103114
F	-3.232377	0.0	0.0
