16

C	0.0	0.0	0.0
C	-0.31274	-0.036506	-1.499546
F	1.392683	0.0	0.0
H	0.261901	-0.870659	-1.918168
H	-0.339649	0.941769	0.433276
C	-0.585548	-1.179753	0.723461
H	-1.675491	-1.043912	0.674673
H	-0.24879	-1.196208	1.764286
H	-0.286301	-2.116675	0.242488
N	0.445383	1.173319	-2.100707
O	0.239386	2.280605	-1.612345
O	1.161225	0.965235	-3.08225
N	-1.648575	0.013031	-1.93134
H	-1.862313	-0.796903	-2.491397
H	-2.367112	0.092885	-1.126872
F	-3.233103	0.0	0.0
