16

C	0.0	0.0	0.0
C	-0.54689	-0.087828	-1.41709
F	1.39409	0.0	0.0
H	-1.644088	-0.066494	-1.256792
H	-0.3408	0.967419	0.377139
C	-0.495108	-1.105529	0.898456
H	-0.109059	-2.072417	0.562134
H	-1.590273	-1.050547	0.825717
H	-0.151247	-0.931575	1.922732
N	-0.16589	-1.420882	-1.995537
O	-1.003672	-2.3217	-1.98475
O	0.983528	-1.544703	-2.423395
N	-0.046287	0.923212	-2.319367
H	0.926576	1.111117	-2.102309
H	-0.58556	1.765948	-2.172327
F	-2.875291	0.0	0.0
