16

C	0.0	0.0	0.0
C	-0.414274	-0.594655	-1.357407
F	1.403557	0.0	0.0
H	0.490963	-1.032845	-1.79643
H	-0.329625	1.033744	0.066807
C	-0.496475	-0.787774	1.183869
H	-0.096346	-0.341141	2.09948
H	-0.17884	-1.829711	1.117313
H	-1.587277	-0.711077	1.158486
N	-0.645212	0.597985	-2.356322
O	0.024962	1.62021	-2.215112
O	-1.415055	0.398541	-3.293033
N	-1.478659	-1.503882	-1.317573
H	-2.287718	-0.992728	-0.837013
H	-1.716272	-1.786486	-2.259278
F	-3.018487	0.0	0.0
