16

C	0.0	0.0	0.0
C	-0.614144	-0.028715	-1.398734
F	1.388509	0.0	0.0
H	-1.527402	-0.625658	-1.307237
H	-0.320138	0.946887	0.436666
C	-0.464898	-1.152321	0.863699
H	-0.148781	-2.097297	0.417756
H	-1.554439	-1.063001	0.887431
H	-0.028584	-1.06119	1.863945
N	0.311295	-0.725428	-2.33745
O	0.74794	-0.125484	-3.321267
O	0.562327	-1.902004	-2.072886
N	-0.917973	1.328956	-1.829298
H	-1.813852	1.47141	-1.353331
H	-1.113205	1.317071	-2.825093
F	-2.84809	0.0	0.0
