15

C	-0.15581	0.070771	-1.499555
C	0.0	0.0	0.0
Cl	-1.897517	0.093769	-2.077414
H	1.107454	0.0	0.0
H	-0.39244	-0.951179	0.363546
N	0.418797	1.337158	-1.925165
H	1.389963	1.309735	-1.599265
H	0.419249	1.383211	-2.938382
N	0.445964	-1.132167	-2.035633
H	1.387749	-1.165334	-1.633826
H	0.541379	-1.03457	-3.040783
N	-0.587241	1.139237	0.710486
H	0.052354	1.363096	1.467068
H	-0.536121	1.925101	0.06921
H	2.956304	0.0	0.0
