15

C	-0.385107	0.096207	-1.47428
C	0.0	0.0	0.0
Cl	-0.249461	-1.662148	-2.16504
H	1.10056	0.0	0.0
H	-0.425866	-0.889947	0.464755
N	-1.742614	0.493593	-1.78978
H	-2.360359	-0.256019	-1.499039
H	-1.915023	1.273046	-1.157272
N	0.513462	0.988193	-2.074318
H	0.381641	1.040572	-3.074641
H	1.477373	0.775075	-1.808499
N	-0.518063	1.212379	0.675387
H	0.147172	1.949053	0.457119
H	-0.427481	1.055953	1.673362
H	3.01325	0.0	0.0
