15

C	-0.41613	0.001866	-1.462278
C	0.0	0.0	0.0
Cl	-0.133602	-1.620192	-2.190679
H	1.093751	0.0	0.0
H	-0.288777	1.008095	0.366691
N	-1.836238	0.283887	-1.597275
H	-2.040549	0.378786	-2.588493
H	-2.009536	1.1873	-1.16435
N	0.410544	0.931635	-2.233888
H	0.271772	1.84912	-1.811868
H	1.387381	0.689428	-2.030406
N	-0.537794	-1.085612	0.792528
H	0.046137	-1.206942	1.609141
H	-1.486658	-0.895343	1.082524
H	3.001822	0.0	0.0
