15

C	-0.374853	0.079449	-1.476034
C	0.0	0.0	0.0
Cl	-0.196602	-1.660655	-2.178635
H	1.099455	0.0	0.0
H	-0.430408	-0.888462	0.45975
N	-1.75076	0.434577	-1.661378
H	-1.881751	0.832301	-2.584015
H	-1.919321	1.151384	-0.958888
N	0.565469	0.952689	-2.093978
H	0.513124	0.901694	-3.10506
H	1.513629	0.714611	-1.782968
N	-0.511358	1.216618	0.671369
H	0.190764	1.934826	0.516406
H	-0.507717	1.036163	1.669279
H	3.010059	0.0	0.0
