15

C	-0.334593	0.020996	-1.468144
C	0.0	0.0	0.0
Cl	-2.259007	0.682367	-1.55495
H	1.094595	0.0	0.0
H	-0.329002	0.940384	0.454524
N	0.375016	0.99702	-2.239158
H	1.362497	0.795852	-2.044609
H	0.177961	1.913276	-1.852787
N	-0.2292	-1.222011	-2.034748
H	-0.515834	-1.253219	-2.999891
H	-0.61465	-1.935923	-1.431585
N	-0.506938	-1.19605	0.664003
H	-1.333309	-0.982062	1.20632
H	0.215749	-1.53453	1.287862
H	2.928365	0.0	0.0
