19

C	-0.323523	0.083888	-1.500437
C	0.0	0.0	0.0
Cl	-2.001316	0.631312	-1.823756
H	1.09076	0.0	0.0
C	0.683893	0.912397	-2.269572
H	0.478502	1.964314	-2.091189
H	1.664993	0.663763	-1.851196
H	0.620503	0.69712	-3.33876
N	-0.225811	-1.363229	-2.005387
O	0.901905	-1.738917	-2.305361
O	-1.233901	-2.062135	-2.028104
C	-0.542462	-1.207125	0.727777
H	-0.035474	-2.096236	0.350793
H	-0.294835	-1.114736	1.784254
H	-1.623598	-1.327868	0.627147
N	-0.435419	1.25837	0.653287
O	-1.119124	1.187009	1.678992
O	-0.063718	2.324125	0.160109
F	2.566232	0.0	0.0
