19

C	-0.572179	-0.020821	-1.408493
C	0.0	0.0	0.0
Cl	0.27426	-1.315642	-2.323067
H	1.08907	0.0	0.0
C	-2.060618	-0.25818	-1.527364
H	-2.597885	0.555209	-1.039669
H	-2.357133	-0.30504	-2.573213
H	-2.303397	-1.2055	-1.044648
N	-0.191539	1.256504	-2.171227
O	0.876987	1.775884	-1.896428
O	-0.969893	1.626699	-3.049441
C	-0.327547	-1.246962	0.812299
H	-1.379855	-1.312011	1.111713
H	-0.053546	-2.130453	0.236788
H	0.297974	-1.226547	1.702859
N	-0.487194	1.17364	0.738511
O	-1.082989	2.074077	0.128034
O	-0.258871	1.216757	1.94777
F	2.498798	0.0	0.0
