19

C	-0.312066	0.111129	-1.50499
C	0.0	0.0	0.0
Cl	-1.947148	0.765564	-1.84096
H	1.090768	0.0	0.0
C	0.756106	0.872694	-2.262745
H	0.68781	0.666002	-3.332458
H	0.62012	1.936359	-2.079365
H	1.716058	0.563647	-1.834029
N	-0.303554	-1.339654	-2.012782
O	-1.358253	-1.962975	-2.078005
O	0.807519	-1.799705	-2.261888
C	-0.57015	-1.205366	0.708239
H	-1.656215	-1.287349	0.615665
H	-0.311054	-1.143651	1.764213
H	-0.098065	-2.103685	0.308014
N	-0.41159	1.258501	0.669368
O	-1.061625	1.187244	1.716945
O	-0.049013	2.322174	0.167641
F	2.573747	0.0	0.0
