19

C	-0.262123	-0.035383	-1.500431
C	0.0	0.0	0.0
Cl	0.215731	1.524543	-2.202052
H	1.091688	0.0	0.0
C	0.633886	-1.106912	-2.103498
H	1.631823	-0.912203	-1.690526
H	0.286962	-2.095824	-1.803199
H	0.625939	-1.035184	-3.192627
N	-1.715186	-0.323365	-1.891059
O	-2.12509	-1.420392	-1.50851
O	-2.366753	0.476827	-2.545561
C	-0.442674	-1.197724	0.825482
H	-0.032143	-1.057094	1.828085
H	-0.006494	-2.109121	0.418462
H	-1.52789	-1.3089	0.876855
N	-0.596894	1.197506	0.632738
O	-1.691733	1.58472	0.208517
O	-0.0096	1.687999	1.59497
F	2.59955	0.0	0.0
