19

C	-0.258945	-0.051046	-1.502255
C	0.0	0.0	0.0
Cl	0.222267	1.499938	-2.219311
H	1.091679	0.0	0.0
C	0.633538	-1.132337	-2.091569
H	1.629875	-0.941482	-1.670544
H	0.277054	-2.116331	-1.788426
H	0.636093	-1.067787	-3.18198
N	-1.711906	-0.336234	-1.898071
O	-2.35754	0.458695	-2.567558
O	-2.127638	-1.426396	-1.505175
C	-0.445235	-1.186675	0.83874
H	-1.530149	-1.295312	0.888273
H	-0.009146	-2.10344	0.444648
H	-0.037021	-1.035318	1.840973
N	-0.59316	1.208589	0.616253
O	0.008123	1.725708	1.554455
O	-1.6959	1.580774	0.200909
F	2.601744	0.0	0.0
