19

C	-0.310128	0.101188	-1.50566
C	0.0	0.0	0.0
Cl	-1.949206	0.743668	-1.846741
H	1.090794	0.0	0.0
C	0.756108	0.863858	-2.266162
H	1.716985	0.560769	-1.833712
H	0.615771	1.927861	-2.089824
H	0.690252	0.650853	-3.334997
N	-0.292628	-1.352454	-2.004626
O	0.820638	-1.807435	-2.245703
O	-1.343094	-1.981241	-2.071644
C	-0.569922	-1.201949	0.713942
H	-0.094202	-2.101053	0.321012
H	-1.654647	-1.286975	0.616462
H	-0.315904	-1.134387	1.770295
N	-0.410429	1.261882	0.665169
O	-1.044	1.195545	1.723061
O	-0.062012	2.323267	0.148936
F	2.573688	0.0	0.0
