16

C	-0.167286	0.005904	-1.49964
C	0.0	0.0	0.0
Br	-2.173494	-0.035152	-2.006977
H	1.100991	0.0	0.0
H	-0.36081	-0.950228	0.401966
N	0.345874	1.187794	-2.162703
H	-0.130401	2.014331	-1.818502
H	1.323784	1.238009	-1.857848
N	0.446403	-1.168008	-2.020211
H	0.629026	-1.013827	-3.00621
H	1.344935	-1.260526	-1.535696
C	-0.545634	1.189619	0.760754
H	-0.325053	1.076532	1.825572
H	-0.065555	2.117327	0.438413
H	-1.627918	1.294123	0.640057
H	2.909451	0.0	0.0
