16

C	-0.311556	0.262796	-1.464218
C	0.0	0.0	0.0
Br	-0.309268	-1.604076	-2.439341
H	1.091624	0.0	0.0
H	-0.403477	-0.959573	0.320014
N	-1.669917	0.710513	-1.729979
H	-1.685963	1.69495	-1.476049
H	-1.854909	0.647286	-2.724757
N	0.690828	1.095155	-1.976197
H	0.674621	1.181998	-2.983383
H	1.622602	0.834293	-1.621531
C	-0.491243	1.135368	0.892586
H	-1.583421	1.192612	0.932488
H	-0.115163	0.979931	1.907952
H	-0.092196	2.091683	0.544272
H	3.012166	0.0	0.0
