16

C	-0.171095	-0.143813	-1.49244
C	0.0	0.0	0.0
Br	-2.17517	-0.155982	-1.997282
H	1.098832	0.0	0.0
H	-0.361113	0.982842	0.313396
N	0.437073	0.980725	-2.120129
H	0.612845	0.73577	-3.088654
H	1.338533	1.115948	-1.652741
N	0.348128	-1.379249	-2.045216
H	1.325716	-1.397814	-1.734924
H	-0.125554	-2.173283	-1.627493
C	-0.544389	-1.114248	0.868453
H	-0.073092	-2.070073	0.624459
H	-0.310886	-0.908377	1.91684
H	-1.628973	-1.221914	0.769201
H	2.910598	0.0	0.0
