16

C	-0.175178	0.017107	-1.497655
C	0.0	0.0	0.0
Br	-2.182257	0.001992	-1.996142
H	1.099495	0.0	0.0
H	-0.358875	-0.953997	0.394615
N	0.345442	1.198411	-2.155883
H	-0.124466	2.026195	-1.807208
H	1.323653	1.242191	-1.851638
N	0.426112	-1.161022	-2.026884
H	0.59675	-1.004616	-3.01535
H	1.331236	-1.253825	-1.5534
C	-0.543358	1.180274	0.776658
H	-1.634447	1.250209	0.708999
H	-0.264307	1.083858	1.830764
H	-0.110356	2.12054	0.422077
H	2.914315	0.0	0.0
