16

C	-0.290911	0.39521	-1.447527
C	0.0	0.0	0.0
Br	-0.435466	-1.508525	-2.502732
H	1.094524	0.0	0.0
H	-0.397522	-0.983613	0.246186
N	-1.558462	0.978819	-1.82942
H	-1.64017	1.854364	-1.320176
H	-2.309241	0.360271	-1.544984
N	0.741364	1.176254	-1.905086
H	1.667126	0.885162	-1.558188
H	0.696503	1.394096	-2.889678
C	-0.476483	1.068085	0.979704
H	-0.09888	0.830329	1.978485
H	-0.067941	2.044383	0.703509
H	-1.568396	1.143557	1.038184
H	2.986276	0.0	0.0
