16

C	0.0	0.0	0.0
C	-0.140995	-0.050663	-1.561478
F	1.413251	0.0	0.0
H	0.390087	0.822827	-1.95076
H	-0.253821	1.006422	0.372762
N	-0.681696	-1.064889	0.592854
H	-0.763167	-0.887616	1.594186
H	-0.067526	-2.151337	-0.591935
C	-1.505204	-0.172885	-2.200658
H	-1.97697	-1.103734	-1.8842
H	-2.172986	0.643565	-1.919882
H	-1.366096	-0.174683	-3.288346
N	0.659341	-1.204675	-2.130625
O	1.842205	-1.049814	-2.553099
O	0.349438	-2.440694	-1.457644
H	-2.440329	0.0	0.0
