16

C	0.0	0.0	0.0
C	-0.192912	0.011682	-1.555851
F	1.397375	0.0	0.0
H	0.381632	0.868844	-1.911943
H	-0.355776	0.96317	0.375907
N	-0.572194	-1.026998	0.769027
H	-0.553797	-1.891156	0.248157
H	-1.569605	-0.769119	0.883392
C	-1.562306	-0.004079	-2.181577
H	-2.121963	0.862207	-1.844151
H	-1.431727	0.009272	-3.26801
H	-2.152788	-0.851417	-1.856273
N	0.573744	-1.153196	-2.114109
O	1.491686	-0.920097	-2.898986
O	0.223414	-2.289482	-1.781662
H	-3.308795	0.0	0.0
