12

C	-0.020846	-0.004371	-0.00914
C	-0.538456	0.09354	-1.417906
Cl	1.778497	-0.073926	0.107935
H	-0.236915	1.036005	-1.875722
H	-0.438333	-0.852816	0.516866
H	-1.659917	0.07246	-1.138332
N	-0.434295	1.200952	0.791815
O	-0.534174	2.270089	0.201169
O	-0.542511	1.037153	1.999172
C	-0.134335	-1.035055	-2.227822
N	0.163087	-1.947877	-2.906744
F	-2.570679	-0.028089	0.072954
