14
Coordinates from ORCA-job run
  C   -0.33585944142781      0.28149841079149     -0.08336784102933
  C   1.18502236201128      0.35133267108101      0.07566590211027
  F   -0.59528027613176      0.61900885192380     -1.43245702854105
  H   1.51526475431155      1.37299307020637     -0.13611837760719
  H   1.44754583854397      0.12073947864290      1.11042291402430
  C   -0.89979706670259     -1.10338907369763      0.13829495221066
  H   -0.69910100074002     -1.43761116266948      1.15688996768849
  H   -0.46229708997904     -1.80595531832126     -0.57100385462106
  H   -1.97997932117294     -1.08546144179127     -0.02336695227763
  N   -0.92282093137434      1.22184789373556      0.80566591529979
  H   -0.63324530522786      2.16429016345329      0.57235168787093
  H   -1.93297825718901      1.17523886477065      0.75503510923242
  C   1.87965234299803     -0.56243654791004     -0.82672598095206
  N   2.43287339208053     -1.31109586021539     -1.54028641340855
