14
Coordinates from ORCA-job run
  C   -0.33298268851385      0.17730766450758     -0.20396391861283
  C   1.10824009000811     -0.33060468928467     -0.27550311077713
  F   -0.61982011854953      0.73059678601972     -1.45631952770688
  H   1.35118998153998     -0.89990978294940      0.62694962137165
  H   1.18885268996529     -1.00990493595239     -1.12729447914334
  C   -1.31427369565131     -0.96844736492695     -0.02327068876650
  H   -1.15967393133314     -1.46126351315364      0.93871990186373
  H   -2.33127114741800     -0.57035487946920     -0.05369207665418
  H   -1.21495288091453     -1.70165501627895     -0.82615069282069
  N   -0.43572544559850      1.22096272455267      0.76393211359426
  H   0.18245555099240      1.10551551586323      1.55269681165304
  H   -1.38495007527705      1.36480121552364      1.07822122138816
  C   2.07891499618555      0.75004776118341     -0.43903023871813
  N   2.88399667456459      1.59490851436495     -0.55529493667116
