14
Coordinates from ORCA-job run
  C   -0.49519061258612      0.23377696640088     -0.31214277052369
  C   0.97497291072755      0.18649492454206     -0.77375053583556
  F   -1.18945193705268      0.57386402374290     -1.47571117969895
  H   1.22872034253313      1.15761793536156     -1.20973096596357
  H   1.10066283870369     -0.56779705517408     -1.55517816419494
  C   -1.00005690471931     -1.11152026511538      0.15958996478161
  H   -0.43411076872814     -1.46702552256191      1.02312417940444
  H   -0.91056381021132     -1.84271169762133     -0.64462599900102
  H   -2.05093398239525     -1.01324405725689      0.43255502067237
  N   -0.77809565844961      1.24058705603056      0.66136889943249
  H   -0.28839391333132      2.10552346433202      0.47063689290732
  H   -0.56072311933240      0.93016125326248      1.59787522242308
  C   1.86459397775661     -0.09810251677462      0.34658486866159
  N   2.53857063708517     -0.32762450916826      1.27940456693481
