14
Coordinates from ORCA-job run
  C   -0.31624230952739      0.31373862643460      0.00551231208885
  C   1.21319896306410      0.25028289468292      0.00174842385399
  F   -0.67745363561774      0.90768357080975     -1.22644394347462
  H   1.60890409722469      1.26867861444536     -0.06153921425311
  H   1.55550117103975     -0.18553718736848      0.94284765711552
  C   -0.97350339419302     -1.04701627333877      0.04564274841089
  H   -0.70889540406401     -1.57073681679413      0.96506450801021
  H   -0.66540213597015     -1.63986075007523     -0.81569230402251
  H   -2.05844852940844     -0.92653389786953      0.00460479765505
  N   -0.72871042578886      1.11413200607300      1.10477604297177
  H   -1.73876439882022      1.14116934645078      1.16497127145902
  H   -0.38774865177268      2.06292198289064      1.00511765566898
  C   1.73319193874204     -0.52477212699020     -1.12110116399303
  N   2.14537271509194     -1.16314998935072     -2.01450879149103
