14
Coordinates from ORCA-job run
  C   -0.39491954329170      0.12355457266125     -0.18083814012283
  C   1.08278849622891     -0.29892745844159     -0.32132807969602
  F   -0.72643443408698      0.67614932230192     -1.41595263684129
  H   1.19211349362128     -0.96074709530285     -1.18449793292990
  H   1.39451479204701     -0.84863469432647      0.57143347555892
  C   -1.28384790775142     -1.07929190346420      0.05088799211693
  H   -2.32126010867817     -0.74520011347480      0.06089545912477
  H   -1.15143652971357     -1.80544460031666     -0.75233674459150
  H   -1.05540122383910     -1.56286406578449      1.00372947839588
  N   -0.65772083719255      1.13171591882680      0.80039135052463
  H   -0.01869925738146      1.91309988172989      0.71077407971867
  H   -0.60900897629401      0.75960436573668      1.73885784488285
  C   1.94631212969501      0.86618434130051     -0.48993238445326
  N   2.60499990663675      1.83180152855402     -0.59308376168786
