14
Coordinates from ORCA-job run
  C   -0.41845543087984      0.23325697515843     -0.23995904925688
  C   1.02474777793935      0.15409647030563     -0.74388955128169
  F   -1.16450549794505      0.56575635695279     -1.40188988740535
  H   1.31722650308438      1.13398021808019     -1.13377123009882
  H   1.07075138257309     -0.55114040029316     -1.57707224138434
  C   -0.95062676712248     -1.09113878238369      0.25811406822668
  H   -0.38600226604021     -1.42879799354656      1.12738041251134
  H   -0.88749023076980     -1.83963223426057     -0.53299496613181
  H   -2.00141568102854     -0.97975486292405      0.53560911720767
  N   -0.52857204642810      1.23504210224732      0.75321174675653
  H   -1.46997236133344      1.28866435291766      1.11986561267330
  H   -0.25937101505704      2.14291684767068      0.39523980954859
  C   1.95349377161628     -0.25732702172677      0.30327864201389
  N   2.70119186139140     -0.60392202819791      1.13787751662088
