14
Coordinates from ORCA-job run
  C   -0.41418312612489      0.24749707044387     -0.23252310640315
  C   1.02515032259927      0.15056858046152     -0.74408540100879
  F   -1.15749848801019      0.62361048725164     -1.38289626410311
  H   1.05276837732604     -0.53464231420330     -1.59468501275174
  H   1.33731272054531      1.13358001200734     -1.11046002593847
  C   -0.97197228557560     -1.07714551523180      0.23579387196454
  H   -0.91678541341411     -1.81134131625567     -0.56885454251172
  H   -0.41860350869963     -1.44078279976328      1.10155619727380
  H   -2.02228615194658     -0.95292119320967      0.50903285209517
  N   -0.50026378195716      1.22693826086021      0.78517134257729
  H   -0.21309575187528      2.13739201173599      0.44800315478214
  H   -1.44002026098166      1.29150066497873      1.15455640895007
  C   1.94920369783622     -0.30534323168127      0.28895962510825
  N   2.69227365027824     -0.68891071739430      1.11143089996574
