14
Coordinates from ORCA-job run
  C   -0.41151876754312      0.27589310611839     -0.36672694239970
  C   1.06016302191408      0.10067980339114     -0.75712339582557
  F   -1.07244916734784      0.56505368128885     -1.56199355506256
  H   1.13698680571207     -0.68909917187417     -1.50771325321155
  H   1.39764163804628      1.03719519489296     -1.20762893630710
  C   -1.03735823211526     -0.99835470885467      0.17035806540522
  H   -0.94232046115553     -1.81389613487332     -0.54977978586522
  H   -2.10095160592676     -0.82366163195250      0.34896873282292
  H   -0.56654234489066     -1.29300391937055      1.11005329273614
  N   -0.53855403614928      1.43286819807810      0.47187789445795
  H   -1.46904143074115      1.48649465018961      0.86805126892815
  H   0.13392403564210      1.41670108079760      1.22807770473419
  C   1.89020891846442     -0.22470224012650      0.39731704562567
  N   2.51881162609064     -0.47116790770495      1.35726186396147
