14
Coordinates from ORCA-job run
  C   -0.40529686835977      0.29536861767158     -0.35860699097667
  C   1.06338787159547      0.10382718259136     -0.75181413603656
  F   -1.05777029152664      0.63240481795171     -1.54612116305345
  H   1.12501476066357     -0.66284944512608     -1.52751759866272
  H   1.42102397917507      1.04716220163148     -1.17161536729874
  C   -1.05645570416446     -0.98203933189239      0.13906858268513
  H   -0.97798512421854     -1.77580386810412     -0.60666731790084
  H   -2.11625506890542     -0.79225106612538      0.32423562788076
  H   -0.59161426758972     -1.31590016837191      1.06835291639759
  N   -0.51249654447241      1.42901309600203      0.51401779434737
  H   -1.44230469700620      1.48751752771636      0.91109615840529
  H   0.15859739365608      1.37797338419773      1.27001073554862
  C   1.88490719889813     -0.27728413068348      0.39177160235878
  N   2.50824736225485     -0.56813881745890      1.34278915630543
