14
Coordinates from ORCA-job run
  C   -0.48320804089738      0.24725678828252     -0.31978170851731
  C   0.98815163119709      0.13904613074050     -0.76732712891729
  F   -1.15400497252332      0.59702331152158     -1.49427204144819
  H   1.09269824667566     -0.63090033871151     -1.53647696418760
  H   1.28054395805961      1.09381814328195     -1.21505478080171
  C   -1.04228406961877     -1.07165639108054      0.16496515550013
  H   -0.97067368149961     -1.81711791818209     -0.62794818678544
  H   -2.09187036664410     -0.93091131469660      0.42433994050696
  H   -0.49956859623496     -1.43512513162876      1.04015361210936
  N   -0.73686207654620      1.27708678707722      0.63739559102281
  H   -0.21467196741991      2.12102511465461      0.43918798288298
  H   -0.53926014707948      0.97211075299556      1.57994542840007
  C   1.85699886723114     -0.16123678481694      0.36519194993716
  N   2.51401121530022     -0.40041914943750      1.30768115029807
