17

C	-0.425931	0.002707	-1.436485
C	0.0	0.0	0.0
Cl	0.436927	-1.189931	-2.377812
H	1.094236	0.0	0.0
N	-1.939844	-0.227859	-1.557027
O	-2.345686	-1.358371	-1.785994
O	-2.625066	0.754586	-1.290563
N	-0.213055	1.349274	-2.138988
O	0.442552	2.197806	-1.553412
O	-0.706229	1.437281	-3.257877
C	-0.353375	-1.315407	0.703442
H	0.114621	-1.28596	1.688561
H	0.084281	-2.151566	0.158809
H	-1.42967	-1.479597	0.821793
C	-0.54098	1.115814	0.74747
N	-0.95236	1.970357	1.443808
F	2.479143	0.0	0.0
