17

C	-0.39566	-0.015056	-1.450462
C	0.0	0.0	0.0
Cl	0.260454	1.356751	-2.310675
H	1.094808	0.0	0.0
N	0.074872	-1.265891	-2.205108
O	-0.411054	-1.408053	-3.323495
O	0.90058	-1.98757	-1.667634
N	-1.923544	-0.061467	-1.613057
O	-2.529019	0.972923	-1.853211
O	-2.420595	-1.160705	-1.37877
C	-0.472191	-1.183524	0.84621
H	0.03533	-1.102125	1.809603
H	-0.161408	-2.121389	0.391878
H	-1.553129	-1.198016	1.009215
C	-0.462897	1.243004	0.587754
N	-0.852923	2.218312	1.118113
F	2.477678	0.0	0.0
