17

C	-0.430443	-0.021419	-1.438607
C	0.0	0.0	0.0
Cl	-2.166716	-0.264773	-1.698367
H	1.093789	0.0	0.0
N	0.013847	1.284251	-2.122534
O	1.211324	1.336019	-2.35847
O	-0.824401	2.151354	-2.32035
N	0.27875	-1.100443	-2.270605
O	0.956389	-1.930387	-1.685242
O	0.087755	-1.027216	-3.479733
C	-0.481773	-1.195696	0.821258
H	-0.150841	-2.121973	0.356535
H	-0.009321	-1.131036	1.803005
H	-1.568108	-1.210471	0.946475
C	-0.466248	1.235924	0.600166
N	-0.857145	2.215101	1.122791
F	2.478086	0.0	0.0
