17

C	-0.393358	-0.010279	-1.450734
C	0.0	0.0	0.0
Cl	0.259805	1.367986	-2.301817
H	1.094821	0.0	0.0
N	0.078278	-1.25662	-2.211811
O	0.871414	-2.004492	-1.663057
O	-0.376247	-1.37014	-3.345453
N	-1.919452	-0.062004	-1.615087
O	-2.528915	0.972854	-1.842195
O	-2.409937	-1.166881	-1.393387
C	-0.472747	-1.178703	0.852997
H	-1.55368	-1.192484	1.0163
H	-0.15995	-2.119691	0.407031
H	0.033268	-1.086796	1.816326
C	-0.458409	1.244744	0.589077
N	-0.846015	2.219609	1.122121
F	2.477743	0.0	0.0
