17

C	-0.432049	-0.005385	-1.433894
C	0.0	0.0	0.0
Cl	-2.167963	0.244651	-1.711397
H	1.093969	0.0	0.0
N	0.277489	1.063808	-2.271445
O	0.193748	0.920872	-3.485926
O	0.828522	1.970969	-1.668681
N	-0.001076	-1.334894	-2.058356
O	1.193562	-1.412884	-2.307043
O	-0.84455	-2.212262	-2.187842
C	-0.427307	-1.269366	0.738992
H	0.111972	-2.126894	0.332881
H	-0.123083	-1.162966	1.781264
H	-1.504845	-1.457774	0.696009
C	-0.499258	1.180043	0.67561
N	-0.923139	2.097738	1.277456
F	2.478042	0.0	0.0
