17

C	-0.322042	-0.101494	-1.463994
C	0.0	0.0	0.0
Cl	-0.237671	1.442949	-2.284193
H	1.095591	0.0	0.0
N	0.651859	-1.093798	-2.131937
O	0.476802	-2.256258	-1.783043
O	1.480352	-0.68033	-2.919417
N	-1.711975	-0.671093	-1.816188
O	-2.586293	-0.534476	-0.97108
O	-1.846027	-1.164339	-2.929722
C	-0.309032	-1.218356	0.877455
H	0.139495	-1.012838	1.851686
H	-1.377042	-1.409158	1.00247
H	0.187438	-2.097656	0.474439
C	-0.541913	1.199679	0.594478
N	-0.959569	2.146098	1.155424
F	2.473735	0.0	0.0
