13
Coordinates from ORCA-job run
  C   0.98908836843952     -0.02836938576951     -0.20053084792093
  C   -0.46462036259112     -0.08548266427504     -0.67715658129569
  Br  1.60428699301461     -1.95679195861258     -0.11141288571958
  H   -0.51947251815063     -0.59838414109211     -1.63812619351849
  H   1.58812069347294      0.36649796838383     -1.02116312425341
  N   1.17513631805170      0.73738957598089      0.95279143211434
  H   0.64955199205335      0.40145416526755      1.74773430518068
  H   2.14957340140060      0.86932014188794      1.18241544630814
  C   -1.03671685478144      1.25486758525282     -0.77819078033083
  N   -1.49674401285482      2.32826234059023     -0.90081979749194
  N   -1.33320272375672     -0.90200118624192      0.25546600759891
  O   -2.00891268768738     -1.78301008742626     -0.25754799766507
  O   -1.29608860661063     -0.60175235394584      1.44454101699386
