13
Coordinates from ORCA-job run
  C   0.97773057350538     -0.03273717516232     -0.24899505091746
  C   -0.49783592651956     -0.10816765748526     -0.64972677005765
  Br  1.60412090892466     -1.95581305014852     -0.13047950978293
  H   -0.59911522847564     -0.65284759871855     -1.58911179988539
  H   1.53312367356314      0.33848742931069     -1.11049739248040
  N   1.21857264741675      0.76966289879698      0.86898720574771
  H   0.73580516647243      0.45709242295505      1.69980927578190
  H   2.20287043933225      0.91107574490615      1.04438375601744
  C   -1.07934739299596      1.22693927226830     -0.76440254453163
  N   -1.54869325006089      2.29499291279395     -0.89779995224210
  N   -1.31526359949059     -0.89646073430483      0.35181157302287
  O   -2.01411151637639     -1.79345834171289     -0.09859574475811
  O   -1.21785649529557     -0.55976612349876      1.52761695408576
