15
Coordinates from ORCA-job run
  C   0.68292322463182      0.39838163883915     -0.15712946408455
  C   -0.44584422452451     -0.39928853137066      0.50320671619031
  F   0.52875673730221      0.42902236982268     -1.49685725835291
  H   -0.23474936353172     -0.41657928671525      1.57730848886278
  C   0.77057917677513      1.76011618370070      0.37608037852512
  N   0.79918244572294      2.85501554981579      0.80130488570636
  N   2.01399052013286     -0.30638486586131      0.15539213744652
  O   2.29332541397400     -0.33645425094854      1.34624903813064
  O   2.62984787185815     -0.77594385845862     -0.78439617379378
  C   -0.40066946929062     -1.77474580063604      0.00201082647574
  N   -0.38876155518841     -2.87670925084660     -0.40326770527605
  C   -1.80866806381115      0.24578035132911      0.23365474799050
  H   -2.00163989984482      0.30102902537581     -0.83787732390518
  H   -2.59327542512576     -0.35282929513276      0.69755934651372
  H   -1.84399738908012      1.25059002108653      0.65876135957076
