15
Coordinates from ORCA-job run
  C   0.57798347739559      0.78338530540317      0.40714904028387
  C   -0.80427238693154      0.13490608578190      0.29418178113872
  F   0.45763538267989      2.04111904709751      0.89386657771422
  H   -1.39956156436041      0.83773897675866     -0.30105339823402
  C   1.51688585042815      0.01090572488281      1.21959193047626
  N   2.22635198989430     -0.61712546064693      1.91453164087161
  N   1.12439212695262      0.90348836466305     -1.02116762550617
  O   1.97716145797968      0.09528880456034     -1.36458481442150
  O   0.59581825500115      1.77334117963099     -1.69776715073372
  C   -1.38467856514499      0.05728119219451      1.63503526094451
  N   -1.85673916182345     -0.03640215156510      2.70605771652103
  C   -0.75881397723094     -1.23964591788835     -0.37843924459334
  H   -1.76059363085584     -1.66975543290000     -0.38711261425680
  H   -0.09730996111899     -1.91776765366565      0.16361083628794
  H   -0.41425929286525     -1.15675806430691     -1.40989993649262
