15
Coordinates from ORCA-job run
  C   0.65707256192621      0.71664097051661      0.41185097877412
  C   -0.78488601136967      0.21251434577212      0.30923933519965
  F   0.67067580410915      1.97029102341153      0.92312702357225
  H   -1.31477244680690      0.98318427662047     -0.26345066875018
  C   1.52492318055627     -0.16168674024264      1.19523912366321
  N   2.17702497601670     -0.87142388013046      1.86735129237020
  N   1.19273401907231      0.80928464754369     -1.02250675211146
  O   0.74594036228443      1.74158771437878     -1.67442470085718
  O   1.95405489853872     -0.07421445042205     -1.39430500450512
  C   -1.35117516444094      0.16707650511372      1.65758229259198
  N   -1.81493172799518      0.10083723229420      2.73425859327830
  C   -0.88765050521982     -1.14597608280153     -0.38925133747549
  H   -0.55058244057679     -1.07758193378566     -1.42423681296187
  H   -0.29061434040810     -1.89789636423116      0.12983864989830
  H   -1.92781316568637     -1.47263726403762     -0.39031201268672
