15
Coordinates from ORCA-job run
  C   0.60112249391140      0.78034892431541      0.21840412600321
  C   -0.67271095870135      0.03111221166644      0.63684444087228
  F   0.24118026054125      1.92685060106805     -0.40319388542598
  H   -1.23430344599798      0.76311478450572      1.23061408066981
  C   1.49899332808968      1.07425296837423      1.33506409799993
  N   2.18726886618610      1.35267646630653      2.24587964873529
  N   1.36143576558958     -0.08143225049011     -0.79611050488158
  O   1.95519711476133     -1.03571205694792     -0.31254941013115
  O   1.25133141722676      0.22793823760865     -1.97116082939249
  C   -0.36562954850558     -1.10897482661602      1.49953463462700
  N   -0.18026498497379     -2.04362997314986      2.18575336832727
  C   -1.50287778001281     -0.39202388397736     -0.58003468285927
  H   -2.47568553211308     -0.75082247478415     -0.24226133428597
  H   -1.01328050917403     -1.19918062497463     -1.12708249458850
  H   -1.65177648682749      0.45548189709503     -1.24970125566982
