18

C	0.0	0.0	0.0
C	-0.289432	-0.268914	-1.52264
Cl	1.800836	0.0	0.0
H	0.443896	0.334002	-2.060224
N	-0.433313	1.323902	0.363631
H	-1.463033	1.197926	0.322546
H	-0.172801	1.460086	1.337495
N	-0.480042	-1.104138	0.78764
H	-0.235814	-0.910623	1.755545
H	-1.510395	-0.94353	0.676173
N	-1.578666	0.271259	-2.119512
O	-2.35204	-0.520891	-2.645205
O	-1.670418	1.491588	-2.199935
C	-0.157299	-1.736665	-1.870602
H	-0.150111	-1.870262	-2.954613
H	-0.996216	-2.286098	-1.45179
H	0.765852	-2.130489	-1.44763
F	-2.702914	0.0	0.0
