18

C	0.0	0.0	0.0
C	-0.457445	0.030289	-1.476103
Cl	1.900555	0.0	0.0
H	-1.547136	-0.072392	-1.356682
N	-0.450103	1.141406	0.739366
H	-1.480059	1.027092	0.656145
H	-0.152581	2.004035	0.298337
N	-0.452713	-1.215804	0.584935
H	-1.480178	-1.124822	0.46423
H	-0.258639	-1.132606	1.578972
N	0.008452	-1.172644	-2.229414
O	-0.702811	-2.175832	-2.200147
O	1.06444	-1.090077	-2.86414
C	-0.079665	1.278727	-2.243771
H	-0.613004	2.134039	-1.825334
H	-0.385825	1.179133	-3.287877
H	0.995378	1.459468	-2.216499
F	-2.801902	0.0	0.0
