18

C	0.0	0.0	0.0
C	-0.206548	0.217013	-1.553129
Cl	1.844879	0.0	0.0
H	0.221521	-0.68056	-1.996158
N	-0.509225	1.088055	0.772027
H	-1.533687	0.960349	0.620295
H	-0.325338	0.882217	1.751175
N	-0.503708	-1.320029	0.281043
H	-1.529316	-1.12962	0.249283
H	-0.266319	-1.539921	1.245161
N	0.671264	1.317844	-2.09579
O	1.481009	1.002645	-2.972466
O	0.480809	2.465884	-1.710055
C	-1.567964	0.510364	-2.159731
H	-2.309806	-0.206834	-1.829596
H	-1.923636	1.485506	-1.83221
H	-1.440065	0.510726	-3.249233
F	-2.879545	0.0	0.0
