18

C	0.0	0.0	0.0
C	-0.187591	0.130306	-1.554612
Cl	1.915274	0.0	0.0
H	0.161385	-0.82262	-1.949424
N	-0.390372	1.168112	0.688572
H	-0.383564	1.038619	1.690744
H	0.131165	1.982337	0.402335
N	-0.662415	-1.172242	0.41147
H	-0.49823	-1.309894	1.404478
H	-1.690464	-0.850569	0.304221
N	0.746654	1.1341	-2.176916
O	1.379224	0.776359	-3.169648
O	0.759997	2.279847	-1.729145
C	-1.554173	0.500226	-2.096717
H	-2.349575	-0.002482	-1.525578
H	-1.568456	0.286447	-3.172417
H	-1.733468	1.562932	-1.928724
F	-3.055281	0.0	0.0
