18

C	0.0	0.0	0.0
C	-0.24487	0.096372	-1.548078
Cl	1.948708	0.0	0.0
H	0.562204	0.707145	-1.952896
N	-0.395439	1.106458	0.794688
H	-1.426921	0.992075	0.756408
H	-0.157643	1.974209	0.328439
N	-0.466204	-1.234186	0.510264
H	-0.288487	-1.198272	1.510065
H	-1.499892	-1.081832	0.379347
N	-1.445733	0.921421	-1.960527
O	-2.288657	0.418355	-2.689849
O	-1.405437	2.115363	-1.661815
C	-0.286529	-1.255141	-2.22092
H	0.583607	-1.832219	-1.910126
H	-1.188017	-1.782185	-1.917565
H	-0.288491	-1.141742	-3.307409
F	-2.675944	0.0	0.0
