14
Coordinates from ORCA-job run
  C   0.49905517936925     -0.06926147279945     -0.27744778878494
  C   -0.79650178507787     -0.59608258098457      0.27916779594943
  F   0.62179844155594     -0.27910912052985     -1.57972604961898
  H   -0.91460359896432     -0.30308369338031      1.31971400113520
  H   -0.84023024089165     -1.67984687027982      0.18078910963762
  N   0.70325453979938      1.41876367769736      0.01286881998226
  O   0.42579915865271      1.75625743546418      1.15533626580333
  O   1.15578776516015      2.09261330758705     -0.89486785612283
  N   1.67624296388949     -0.74139044173647      0.42976911662484
  O   2.69546144119856     -0.86259858025691     -0.23267248569772
  O   1.48606132502213     -1.06048309538317      1.59731429740816
  N   -1.95001500940804     -0.03293215687614     -0.48879388253330
  O   -1.82645347742258      1.11023811493819     -0.91819342576888
  O   -2.93665670288315     -0.75108452346011     -0.58425791801419
