14
Coordinates from ORCA-job run
  C   0.38642090530776     -0.08289443985095      0.41733515098400
  C   -0.75874586204907     -0.54313076161993     -0.44469999807299
  F   0.10730865959472     -0.13126445626402      1.71148232552336
  H   -0.53819543742776     -0.37584485823109     -1.49634203856025
  H   -0.97408857058262     -1.59500000352232     -0.26245458664356
  N   1.61262789352591     -0.95818058554065      0.15827219076940
  O   2.38220823689657     -1.08553829128956      1.09854189367646
  O   1.71382037590995     -1.41561135116603     -0.97386104024361
  N   0.86401584870966      1.32554981524923      0.05901917110800
  O   1.12086374673988      2.06673859673103      0.99033519417825
  O   0.97695279296046      1.53273280378293     -1.14124293887070
  N   -1.99436419368038      0.22904738213112     -0.10710882784831
  O   -3.05545091535856     -0.36949873940177     -0.22670638088815
  O   -1.84337348054652      1.40289488899200      0.21842988488809
