14
Coordinates from ORCA-job run
  C   0.59171109206790     -0.12580742145133     -0.45498966403884
  C   -0.88190552515058     -0.42987146359220     -0.56780507024777
  F   1.21195858419785     -0.65020048616619     -1.52100309643552
  H   -1.28936972840525      0.05736842079567     -1.45204087254065
  H   -0.98623370340279     -1.51376443658127     -0.64295921103742
  N   0.89170229021366      1.35685155868913     -0.41532123229401
  O   0.01260357299125      2.06040337271348      0.06824256294310
  O   1.97833806085593      1.69717980706543     -0.85552893702519
  N   1.23266612286715     -0.75406795559248      0.77901497761318
  O   1.14257609998435     -1.97189329213425      0.80124556892672
  O   1.78198417673191     -0.01355787994678      1.57836582472653
  N   -1.69052246298101      0.00716010961247      0.60747831155314
  O   -1.20115015159513     -0.19075646313001      1.71388144234904
  O   -2.79535842837524      0.47195612971833      0.36341939550770
