14
Coordinates from ORCA-job run
  C   0.63442692898274     -0.09934982022993     -0.40147931897948
  C   -0.78941561924453     -0.56290035888210     -0.58668761368581
  F   1.34636753202451     -0.49149497919189     -1.46705238690445
  H   -1.14827653607833     -0.14722791537199     -1.52999886027515
  H   -0.81916525318977     -1.65096443781727     -0.61097586137934
  N   0.75807052172239      1.41953244235763     -0.32566843231760
  O   1.25968699535126      1.90327416728297      0.67605371653719
  O   0.35331565007599      1.98665294945415     -1.32875527214557
  N   1.28755396560374     -0.66892768133721      0.83942110029485
  O   2.49965212411942     -0.80657358512985      0.79384665052481
  O   0.52753918550539     -0.92070851061543      1.76706023146454
  N   -1.72837085132542     -0.10493714417425      0.47866358133961
  O   -2.58023129061155     -0.90831325937757      0.83239459784640
  O   -1.60015335293587      1.05193813303274      0.86317786767997
