14
Coordinates from ORCA-job run
  C   0.39497661572164      0.10983735048925     -0.40308276493201
  C   -0.97036186458223      0.28988047223426      0.20485840891465
  F   0.34864777146508     -0.32955159451090     -1.65184082557542
  H   -0.88910598563058      0.53194360604940      1.26188649975056
  H   -1.52358811192858      1.06471398327374     -0.32398528109165
  N   1.14399353656008      1.44276710654393     -0.39081260950609
  O   1.94422205707822      1.61266858363376     -1.29791772081600
  O   0.88624271061474      2.18999721586440      0.54542049377590
  N   1.28929073328970     -0.81748207866252      0.42195100422652
  O   1.25331517773875     -0.61845890114947      1.62832593695091
  O   1.96749265116904     -1.61414892904362     -0.20124812131086
  N   -1.75426343405084     -0.97819066864230      0.08418190787291
  O   -1.12597744501291     -2.02904063038762      0.17076363113161
  O   -2.96488441243220     -0.85493551569232     -0.04850055939100
