14
Coordinates from ORCA-job run
  C   0.68689249433666     -0.03154574086053     -0.31873762980143
  C   -0.68389088932997     -0.46979692829745     -0.77153868056608
  F   1.57718119833116     -0.40887137699812     -1.24638822412422
  H   -0.94533456812720      0.04315661192380     -1.69558368847163
  H   -0.64647683605785     -1.54943141522727     -0.92784496067269
  N   0.80072658308445      1.46666330962469     -0.13486703121334
  O   -0.23545925930625      2.03902063812941      0.18160643628073
  O   1.90900873567377      1.94721949914679     -0.31066322037664
  N   1.11501131778531     -0.68504308319087      0.99218393087363
  O   1.15939536850712     -1.90400613674658      0.93111226187029
  O   1.38805616753776      0.04367107401493      1.93214789865912
  N   -1.77042913410472     -0.20880885797459      0.21745909049945
  O   -2.84268795029011      0.16146397326375     -0.24013691155361
  O   -1.51099322804014     -0.44369156680793      1.39225072859642
