14
Coordinates from ORCA-job run
  C   0.50597202300740     -0.06106013113376     -0.26521481331129
  C   -0.80243905385862     -0.60414394095661      0.24415641685862
  F   0.66252690029748     -0.23725885659017     -1.56891714974228
  H   -0.84042924368312     -1.68531971949391      0.11920595619206
  H   -0.94949732844298     -0.33503539532930      1.28747038868460
  N   0.69909907690503      1.41917491361663      0.06826903420622
  O   1.16449968006360      2.11943221500372     -0.81247878738701
  O   0.40000984733777      1.72405010819176      1.21451035806662
  N   1.66619110030025     -0.74918893372742      0.45425433942891
  O   2.70487565930581     -0.84273840532255     -0.18200030584949
  O   1.44473072558467     -1.10755871498835      1.60476408160040
  N   -1.93580430895794     -0.02515094891243     -0.54174195447816
  O   -2.91240750738532     -0.74717987966571     -0.69438879647147
  O   -1.80832757047402      1.13297768930811     -0.92788876779773
