14
Coordinates from ORCA-job run
  C   0.36937790254720     -0.15199307813773      0.41360719658986
  C   -0.66937350420201     -0.47671882204221     -0.62648307630722
  F   0.02576151189009     -0.55703479144734      1.62709697344008
  H   -0.77912399281349     -1.55513210169177     -0.73147861076772
  H   -0.41014574940826     -0.02525740806341     -1.58125446221047
  N   1.69580973681073     -0.81596046501137      0.04391072922170
  O   1.90920830262611     -0.95375230386043     -1.15469267872246
  O   2.42061285028506     -1.11249473844494      0.98162023253194
  N   0.71074934152891      1.33876327065851      0.45961750266464
  O   0.83435657428567      1.83462069740492      1.56481563198221
  O   0.86628743608233      1.85770844938014     -0.63699566351658
  N   -1.99839460775950      0.06708232762995     -0.20856419345612
  O   -2.97981756629501     -0.57360534083867     -0.56179630724051
  O   -1.99430823557789      1.12577430446436      0.41259672579067
