14
Coordinates from ORCA-job run
  C   0.49980639702486     -0.06858840643588     -0.27360622055788
  C   -0.80100843244998     -0.59630346916403      0.27007826353261
  F   0.62950000975686     -0.26754167156245     -1.57733962435244
  H   -0.92635201002907     -0.30940887954721      1.31152166761635
  H   -0.84652814644878     -1.67918398573402      0.16451698300632
  N   0.70675065427625      1.41578054252390      0.03120543707968
  O   0.44504427634238      1.73632853211950      1.18242622542056
  O   1.14462611763686      2.10304290283303     -0.87327470425217
  N   1.67201072096759     -0.74891400025646      0.43315363642011
  O   1.46511432156409     -1.11763416483202      1.58307019560750
  O   2.70619947532776     -0.82614349763309     -0.21279521862561
  N   -1.94605801804800     -0.02464506104710     -0.50383792197141
  O   -1.82364836064929      1.12946082675198     -0.90351123782021
  O   -2.92545700527153     -0.74724966801612     -0.63460748110341
