14
Coordinates from ORCA-job run
  C   0.62801366303670     -0.01741980026204     -0.42301903711860
  C   -0.79427704759485     -0.45846212772914     -0.66560706420056
  F   1.36381563152621     -0.36629022038643     -1.48723814892933
  H   -1.20022217125511      0.07310056524004     -1.52468488493883
  H   -0.77549193914099     -1.53371879487122     -0.85250989446629
  N   0.76056432151755      1.47696535925960     -0.22447063437517
  O   1.82507940545568      1.97182152913757     -0.55930573729822
  O   -0.21569827268812      2.03186333580354      0.26598873284262
  N   1.26034396708756     -0.69589770136093      0.78914178386872
  O   1.67611380257318      0.01470483961135      1.68983155004299
  O   1.30376533248980     -1.91252043330007      0.69240513067175
  N   -1.71392759180488     -0.23141060008961      0.48726486167953
  O   -1.27126725136460     -0.48742543550949      1.60129172743115
  O   -2.84781184983812      0.13568948445683      0.21191161479023
