14
Coordinates from ORCA-job run
  C   0.63594702386633     -0.09865127938962     -0.39956047476119
  C   -0.78279972164791     -0.57884471381897     -0.58050462645099
  F   1.35269191859067     -0.49679221174415     -1.45956145166757
  H   -1.14408473278879     -0.17823303558011     -1.52941206492630
  H   -0.80168315949764     -1.66736203759756     -0.59086128619243
  N   0.74383503539494      1.42290890661441     -0.34241881541490
  O   1.23440955148882      1.92433153507699      0.65597187054698
  O   0.33848518722748      1.97291247113293     -1.35470140606406
  N   1.29345573949932     -0.64452897143705      0.84917935866686
  O   0.53483703393132     -0.89122753275714      1.77944022766686
  O   2.50702655301061     -0.76964257788042      0.80714788726283
  N   -1.72800634438209     -0.11724944945773      0.47777211689477
  O   -1.61658561758196      1.04763098899302      0.84279380023433
  O   -2.56752846711109     -0.92725209215465      0.84571486420483
