14
Coordinates from ORCA-job run
  C   0.64304327711018     -0.10585080882532     -0.38673529534012
  C   -0.77433012122919     -0.58227663524033     -0.58790942573489
  F   1.37768890126847     -0.51928857966970     -1.42840198984879
  H   -0.79822403398409     -1.67075013612455     -0.58473319401889
  H   -1.11666658294672     -0.19239886534504     -1.54821317967299
  N   0.75649409308730      1.41548936014079     -0.34591376710493
  O   1.23570920129176      1.92655254597991      0.65321296291293
  O   0.36872054338526      1.95525022901196     -1.37049454552383
  N   1.27457011991343     -0.64019729600757      0.88057235241142
  O   0.49795968095217     -0.86587551537319      1.80112947271614
  O   2.48727685583713     -0.77838597063399      0.86064640599473
  N   -1.73676241275164     -0.10313515019570      0.44695519597400
  O   -2.58741055818610     -0.90445184365696      0.80836167479159
  O   -1.62606896374800      1.06531866593972      0.80052333244365
