14
Coordinates from ORCA-job run
  C   0.51498096190144      0.06573086577382     -0.24756712450206
  C   -0.79898735805077     -0.64996376524587     -0.08277673699196
  F   0.71334471954090      0.49700849162626     -1.48446499629623
  H   -0.98003511670834     -0.88405010033984      0.96361472666020
  H   -0.81641025464817     -1.55671471878330     -0.68578594271052
  N   0.67412139039904      1.23638583851270      0.72403867822512
  O   0.33467065764137      0.99102786505051      1.87332284576496
  O   1.15571157287140      2.25868086739610      0.27069796641820
  N   1.66395584048438     -0.87209562900650      0.12317964199618
  O   1.41482617185259     -1.71011676886579      0.98152307848113
  O   2.72197123301517     -0.66901358941777     -0.45298493228754
  N   -1.91863173672117      0.22077668431628     -0.55776157571558
  O   -2.88100145804538     -0.35560487292018     -1.04750292509461
  O   -1.79651662353242      1.42894883190358     -0.37853270394727
