14
Coordinates from ORCA-job run
  C   0.62273680151123     -0.01332752907992     -0.43154568692627
  C   -0.80486927151433     -0.44236087928915     -0.66420096544010
  F   1.34337030017516     -0.34608446201142     -1.51116930020856
  H   -0.79429536372371     -1.51424308689328     -0.86991237171106
  H   -1.21896368509142      0.10707738824077     -1.50797940120211
  N   0.76534520470729      1.47649725841733     -0.20657298288504
  O   -0.19934831579792      2.02482485905205      0.31311573006484
  O   1.82555990257928      1.97385715692898     -0.55107519573409
  N   1.26603315407401     -0.71722810727284      0.75980571142460
  O   1.30015042094962     -1.93219245130719      0.64080193482637
  O   1.69909538115576     -0.02544956473006      1.66704360264739
  N   -1.70863732287119     -0.23048588656540      0.50423420169869
  O   -1.25620531047871     -0.51751317329452      1.60670192539318
  O   -2.84097189567511      0.15662847780464      0.25075279805213
