14
Coordinates from ORCA-job run
  C   0.63605562267158     -0.10121654327094     -0.39867835295527
  C   -0.78013531799742     -0.59224138259312     -0.56983450169815
  F   1.35412342345642     -0.51216693331878     -1.45299825046870
  H   -1.14573290060105     -0.20998789826609     -1.52460855449606
  H   -0.79330769555406     -1.68087043322378     -0.56180904885040
  N   0.73531358924334      1.42149943122019     -0.36682338097003
  O   0.32119069007919      1.95264349618709     -1.38559383168933
  O   1.22936992343634      1.94182838806287      0.62015467456660
  N   1.29810562933590     -0.62391773095994      0.85789789468483
  O   2.51225312010428     -0.74350910742136      0.81577363600661
  O   0.54209730245882     -0.86057460456075      1.79275277933732
  N   -1.72664598822228     -0.11815505035849      0.48202968098547
  O   -2.56655577359192     -0.92414121341369      0.85783745132875
  O   -1.61613162481915      1.05080958191678      0.83389980421836
