14

C	-0.587109	0.092464	-1.398068
C	0.0	0.0	0.0
Cl	0.291947	1.251509	-2.395992
H	1.092652	0.0	0.0
H	-1.635432	0.386425	-1.388251
N	-0.5633	-1.247138	-2.079906
O	-1.665436	-1.746579	-2.32061
O	0.525474	-1.754559	-2.317008
C	-0.519375	-1.172059	0.685198
N	-0.955808	-2.09542	1.269866
N	-0.328271	1.248861	0.706571
H	-0.971622	1.088962	1.471281
H	0.55494	1.578788	1.083823
F	2.517661	0.0	0.0
