14

C	-0.471789	-0.005437	-1.435519
C	0.0	0.0	0.0
Cl	-2.242538	-0.148285	-1.626295
H	1.093782	0.0	0.0
H	-0.010967	-0.820128	-1.990122
N	-0.004477	1.258613	-2.11646
O	-0.739088	2.237137	-2.133775
O	1.127948	1.190591	-2.583939
C	-0.433509	-1.236569	0.644572
N	-0.786826	-2.207313	1.208276
N	-0.400416	1.205923	0.700989
H	-1.27172	1.101013	1.205766
H	0.346321	1.441605	1.34302
F	2.513259	0.0	0.0
