14

C	-0.290852	-0.044827	-1.482067
C	0.0	0.0	0.0
Cl	-2.024493	0.147865	-1.913231
H	1.095586	0.0	0.0
H	0.050704	-0.979629	-1.919269
N	0.473124	1.029626	-2.211124
O	1.338902	0.650439	-2.991904
O	0.169447	2.196707	-1.980308
C	-0.52817	-1.218693	0.596523
N	-0.937785	-2.2144	1.069525
N	-0.424225	1.184616	0.723573
H	-1.186199	1.659213	0.256001
H	0.378415	1.803721	0.741954
F	2.504217	0.0	0.0
