14

C	-0.580232	0.135245	-1.399689
C	0.0	0.0	0.0
Cl	0.33611	1.293534	-2.363645
H	1.092728	0.0	0.0
H	-1.617801	0.460714	-1.388059
N	-0.594119	-1.193007	-2.106372
O	0.478123	-1.717417	-2.378939
O	-1.711419	-1.672608	-2.318575
C	-0.519742	-1.191169	0.650924
N	-0.960084	-2.128549	1.210517
N	-0.337338	1.229504	0.736631
H	0.539041	1.55006	1.131461
H	-0.988799	1.051059	1.490304
F	2.518383	0.0	0.0
