14

C	-0.471201	-0.023747	-1.435485
C	0.0	0.0	0.0
Cl	-2.241773	-0.1731	-1.62422
H	1.093848	0.0	0.0
H	-0.008296	-0.844267	-1.979768
N	-0.003841	1.23307	-2.13138
O	-0.737391	2.211111	-2.156778
O	1.128033	1.160351	-2.600142
C	-0.43385	-1.227565	0.660205
N	-0.786141	-2.190534	1.237888
N	-0.399933	1.214681	0.687026
H	0.347463	1.456566	1.32624
H	-1.271356	1.117155	1.193162
F	2.513744	0.0	0.0
