14

C	-0.498524	0.112632	-1.437036
C	0.0	0.0	0.0
Cl	0.343179	1.400416	-2.307518
H	1.094151	0.0	0.0
H	-1.569457	0.313811	-1.505802
N	-0.324657	-1.192986	-2.17375
O	0.795352	-1.520628	-2.534957
O	-1.358099	-1.851668	-2.311862
C	-0.56672	-1.192235	0.617129
N	-1.012411	-2.159199	1.117277
N	-0.330183	1.185044	0.787057
H	0.476735	1.794836	0.729752
H	-1.148234	1.674124	0.442658
F	2.514514	0.0	0.0
