14

C	-0.248776	-0.003001	-1.490298
C	0.0	0.0	0.0
Cl	-0.039448	-1.58908	-2.243789
H	1.096823	0.0	0.0
H	0.442255	0.690693	-1.964415
N	-1.629791	0.493061	-1.85694
O	-1.691929	1.424036	-2.663086
O	-2.590296	-0.028982	-1.299736
C	-0.603307	-1.116053	0.708421
N	-1.04948	-2.017866	1.316983
N	-0.326811	1.275559	0.621044
H	-1.158877	1.723381	0.258674
H	0.479924	1.877805	0.525378
F	2.519646	0.0	0.0
