19

C	0.0	0.0	0.0
C	-0.258863	0.018989	-1.570525
Br	1.921867	0.0	0.0
H	0.552523	0.665062	-1.9122
N	-0.406626	1.332066	0.634599
O	-0.749424	1.398611	1.798172
O	-0.23784	2.291178	-0.113269
N	-0.415412	-1.202412	0.823398
O	-0.231605	-1.121163	2.03149
O	-0.759518	-2.213144	0.23188
C	-1.511817	0.637872	-2.18923
H	-1.758163	1.596188	-1.744701
H	-2.369936	-0.01094	-2.07056
H	-1.275813	0.791988	-3.254772
C	-0.024069	-1.345922	-2.229675
H	-0.903126	-1.974528	-2.112772
H	0.836833	-1.884591	-1.833202
H	0.147	-1.173619	-3.298109
F	-2.250801	0.0	0.0
