16

C	-0.17034	0.026079	-1.519604
C	0.0	0.0	0.0
Br	-2.070273	0.07178	-2.074934
H	1.108771	0.0	0.0
N	0.412327	1.282731	-1.964121
H	0.351037	1.3468	-2.973899
H	1.399833	1.248079	-1.700496
N	0.390092	-1.199945	-2.029474
H	1.354338	-1.25679	-1.697306
H	0.395033	-1.18204	-3.042779
C	-0.51861	-1.227852	0.596943
N	-0.914498	-2.189194	1.142564
N	-0.573995	1.175387	0.651598
H	-0.441777	1.943191	-0.000604
H	0.001747	1.376514	1.462733
Cl	3.32119	0.0	0.0
