16

C	-0.395746	0.117279	-1.475847
C	0.0	0.0	0.0
Br	0.045857	-1.883366	-2.297136
H	1.093021	0.0	0.0
N	-1.774316	0.314625	-1.676571
H	-2.28287	-0.521969	-1.418209
H	-1.977136	0.535111	-2.644682
N	0.418204	1.036127	-2.116005
H	1.386474	0.933575	-1.818056
H	0.349309	0.989714	-3.122934
C	-0.575807	-1.1847	0.644168
N	-1.134341	-2.026451	1.246681
N	-0.382591	1.234599	0.680044
H	0.244017	1.369848	1.463354
H	-1.336996	1.190941	1.010452
Cl	3.291732	0.0	0.0
