16

C	-0.387785	0.140604	-1.476125
C	0.0	0.0	0.0
Br	0.042556	-1.85503	-2.321945
H	1.093201	0.0	0.0
N	-1.764146	0.348975	-1.682471
H	-1.960444	0.578583	-2.648795
H	-2.283106	-0.483532	-1.43351
N	0.43497	1.059783	-2.101407
H	0.375155	1.022732	-3.110113
H	1.399797	0.953314	-1.793428
C	-0.580053	-1.19435	0.623628
N	-1.137606	-2.039756	1.221343
N	-0.385549	1.2245	0.695567
H	-1.355718	1.192617	0.981053
H	0.207043	1.326332	1.50994
Cl	3.294909	0.0	0.0
