16

C	-0.473637	-0.045008	-1.443383
C	0.0	0.0	0.0
Br	0.229581	2.081475	-2.244616
H	1.097743	0.0	0.0
N	0.223864	-0.946918	-2.188153
H	1.224706	-0.885721	-2.017825
H	-0.007333	-0.969166	-3.170302
N	-1.839016	0.028334	-1.577836
H	-2.185179	0.70464	-0.904004
H	-2.146965	0.253985	-2.513183
C	-0.460928	-1.235503	0.647208
N	-0.808492	-2.208491	1.205798
N	-0.608305	1.141879	0.693462
H	-0.443102	1.025339	1.687379
H	-0.083551	1.959337	0.394451
Cl	3.294583	0.0	0.0
