16

C	-0.346712	0.12222	-1.488127
C	0.0	0.0	0.0
Br	0.027464	-1.826559	-2.328675
H	1.099397	0.0	0.0
N	-1.699349	0.431842	-1.727147
H	-2.295546	-0.208349	-1.217712
H	-1.922362	0.369253	-2.712678
N	0.543519	1.033628	-2.065156
H	0.439548	1.108293	-3.068531
H	1.506456	0.802871	-1.817493
C	-0.577676	-1.181595	0.636972
N	-1.087294	-2.074802	1.204666
N	-0.509609	1.200937	0.700927
H	0.176978	1.413589	1.420724
H	-0.464728	1.963968	0.032153
Cl	3.324056	0.0	0.0
