16

C	-0.480671	-0.032206	-1.443109
C	0.0	0.0	0.0
Br	0.267488	2.040562	-2.249355
H	1.097645	0.0	0.0
N	0.180869	-0.969046	-2.185019
H	-0.06577	-0.99108	-3.164063
H	1.185573	-0.927585	-2.035067
N	-1.849894	0.065918	-1.564521
H	-2.171107	0.753226	-0.889037
H	-2.153017	0.309429	-2.497275
C	-0.465475	-1.232859	0.647318
N	-0.815705	-2.202919	1.209293
N	-0.595112	1.14754	0.697666
H	-0.451272	1.0162	1.693027
H	-0.046272	1.956324	0.419637
Cl	3.287669	0.0	0.0
