16

C	-0.339274	0.058328	-1.503075
C	0.0	0.0	0.0
Br	0.120018	-1.869476	-2.294635
H	1.094613	0.0	0.0
N	-1.719469	0.28796	-1.736445
H	-2.244662	-0.518508	-1.422196
H	-1.90102	0.420272	-2.7231
N	0.49194	1.009507	-2.105349
H	0.447585	0.972597	-3.114265
H	1.455307	0.860834	-1.805518
C	-0.610822	-1.154428	0.654723
N	-1.183862	-2.035301	1.178938
N	-0.418913	1.222334	0.682935
H	0.313813	1.904322	0.547367
H	-1.263363	1.56925	0.239151
Cl	3.296275	0.0	0.0
