16

C	-0.41153	-0.034877	-1.488538
C	0.0	0.0	0.0
Br	-0.036662	1.881234	-2.200255
H	1.100583	0.0	0.0
N	0.373505	-0.997181	-2.125127
H	0.22011	-1.003508	-3.124068
H	1.359202	-0.893452	-1.893073
N	-1.79924	-0.238855	-1.782846
H	-2.337718	0.413454	-1.222436
H	-2.0255	-1.185681	-1.490973
C	-0.464133	-1.263124	0.584792
N	-0.859432	-2.247034	1.090512
N	-0.641282	1.099255	0.724601
H	-0.130182	1.942558	0.484982
H	-0.488088	0.943208	1.715396
Cl	3.333546	0.0	0.0
