19

C	0.0	0.0	0.0
C	-0.241252	0.014104	-1.557874
Cl	1.805791	0.0	0.0
H	0.232214	-0.89917	-1.928003
C	-0.524752	1.208309	0.739862
H	-0.115599	2.133363	0.34057
H	-0.259609	1.102468	1.79351
H	-1.619509	1.189817	0.640901
N	-0.558393	-1.172458	0.594706
H	-1.579664	-1.003725	0.629306
H	-0.391672	-1.98378	0.00722
N	0.53958	1.09045	-2.262911
O	1.343685	0.736913	-3.126856
O	0.28931	2.262804	-1.988263
C	-1.655055	0.122249	-2.087292
H	-2.106745	1.075893	-1.820942
H	-1.618007	0.010143	-3.177798
H	-2.310036	-0.619927	-1.634841
H	-3.448274	0.0	0.0
