19

C	0.0	0.0	0.0
C	-0.503532	-0.008884	-1.467647
Cl	1.803803	0.0	0.0
H	-1.588567	-0.199926	-1.331565
C	-0.452512	1.288576	0.669926
H	0.013207	2.168684	0.225244
H	-1.546572	1.323176	0.584042
H	-0.170822	1.222754	1.722149
N	-0.492605	-1.090002	0.793874
H	-1.518685	-0.940005	0.782305
H	-0.330403	-1.959358	0.296318
N	0.072519	-1.179741	-2.190693
O	0.89837	-0.979442	-3.085526
O	-0.299665	-2.306091	-1.845433
C	-0.267777	1.257469	-2.261314
H	0.778303	1.567293	-2.231909
H	-0.902157	2.04516	-1.85326
H	-0.548653	1.103085	-3.304574
H	-3.11746	0.0	0.0
