13

C	0.0	0.0	0.0
C	-0.520013	0.241492	-1.410944
F	1.403466	0.0	0.0
H	-0.315707	1.281794	-1.683985
H	-1.6157	0.111429	-1.356084
N	-0.50629	0.983108	0.864335
H	-0.407489	0.758286	1.841215
H	-0.16467	1.906078	0.64258
C	-0.369354	-1.347573	0.485279
N	-0.51029	-2.440433	0.889273
C	0.095656	-0.640421	-2.395686
N	0.589526	-1.334883	-3.203112
Br	-3.815966	0.0	0.0
