13

C	0.0	0.0	0.0
C	-0.559776	-0.181606	-1.403539
F	1.404099	0.0	0.0
H	-0.244105	-1.147023	-1.803997
H	-1.662251	-0.167604	-1.295783
N	-0.501363	1.161745	0.597959
H	-0.617927	1.942686	-0.026999
H	-0.038627	1.405408	1.458575
C	-0.335595	-1.189855	0.824317
N	-0.530179	-2.166512	1.444726
C	-0.09788	0.886524	-2.28411
N	0.272525	1.753056	-2.984298
Br	-3.839607	0.0	0.0
