13

C	0.0	0.0	0.0
C	-0.46022	-0.010802	-1.465015
F	1.375793	0.0	0.0
H	-0.181481	0.951886	-1.905989
H	-1.555858	-0.086028	-1.456495
N	-0.485243	1.10128	0.763027
H	-1.500359	0.982945	0.848641
H	-0.318653	1.957515	0.24375
C	-0.382069	-1.269653	0.666981
N	-0.53684	-2.309997	1.186135
C	0.142455	-1.083756	-2.249027
N	0.639815	-1.935882	-2.884581
Br	-3.649428	0.0	0.0
