13

C	0.0	0.0	0.0
C	-0.38241	-0.033842	-1.472824
F	1.381793	0.0	0.0
H	0.215455	0.721883	-1.985144
H	-0.361814	0.922027	0.457802
H	-0.362353	-0.872724	0.540759
N	-1.741241	0.065531	-1.864507
H	-2.414268	-0.340949	-1.211464
H	-2.017498	1.02927	-1.98347
N	0.152023	-1.342033	-2.047762
O	-0.037231	-2.366447	-1.395017
O	0.676542	-1.296555	-3.156961
Br	-4.446419	0.0	0.0
