12
Coordinates from ORCA-job run
  C   -0.47451833684059      0.16682398389686     -0.02073478395319
  C   0.78953028816939     -0.70052036576430      0.06145035018679
  Br  -1.21249330787449      0.32175156868645      1.85026591209710
  H   0.50769116569170     -1.69443992043747      0.42216087067212
  H   1.17749935134662     -0.80158776427254     -0.95707631531868
  N   -1.37977622312125     -0.41376933784013     -0.94401699266048
  H   -1.66284152854524     -1.34039613625573     -0.64736858434894
  H   -2.20324505367415      0.15990088698211     -1.07966901812345
  C   -0.15004317824984      1.53208484800299     -0.43175629505467
  N   0.11260560933855      2.61994871725653     -0.78989251892640
  C   1.82093455379858     -0.14375402477773      0.92927257815810
  N   2.67265665996073      0.29395754452295      1.60736479727170
