12
Coordinates from ORCA-job run
  C   -0.61243591869528      0.25692178329572      0.21808273453368
  C   0.66337914648001     -0.43459232269820      0.75661786333779
  Br  -1.88522162980565      0.28439532444222      1.72119249307333
  H   0.39092045360634     -1.42904395180432      1.12144051701506
  H   1.08508373793392      0.12892591208517      1.59275243727697
  N   -1.24950085545411     -0.37858872089202     -0.89828482172164
  H   -0.68659246039102     -0.28560827448824     -1.73696979689272
  H   -1.43123314167324     -1.35679567613918     -0.70725424553439
  C   -0.30306085632915      1.64596533901237     -0.13084258329135
  N   -0.01425919620850      2.75247271193435     -0.40076687160913
  C   1.64458072036419     -0.55558745753836     -0.31985723827014
  N   2.39934000017250     -0.62846466720950     -1.21611048791747
