15

C	0.0	0.0	0.0
C	-0.310889	0.149095	-1.518483
Cl	1.797584	0.0	0.0
H	0.434557	-0.493303	-2.009771
H	-0.317061	-0.990212	0.332953
C	-0.568099	1.075342	0.888787
H	-1.657774	1.007171	0.795178
H	-0.282239	0.888638	1.926949
H	-0.22792	2.060991	0.578486
N	-0.155103	1.549659	-1.916707
H	-0.427205	1.649827	-2.886265
H	0.827846	1.788223	-1.843131
C	-1.559539	-0.374613	-2.104564
N	-2.224961	-0.836044	-2.957789
Br	-3.853075	0.0	0.0
