15

C	0.0	0.0	0.0
C	-0.309473	0.058337	-1.52192
Cl	1.797626	0.0	0.0
H	0.445597	-0.594396	-1.98442
H	-0.297379	-0.97753	0.381649
C	-0.588544	1.111338	0.825351
H	-0.260174	2.083794	0.461447
H	-1.6781	1.039578	0.732669
H	-0.306079	0.990395	1.87369
N	-0.196845	1.436921	-2.002332
H	0.785385	1.684835	-2.039234
H	-0.577478	1.500955	-2.938254
C	-1.556019	-0.539557	-2.028733
N	-2.28916	-1.099236	-2.757721
Br	-4.097483	0.0	0.0
