15

C	0.0	0.0	0.0
C	-0.359075	-0.425017	-1.4602
Cl	1.78991	0.0	0.0
H	0.28161	0.191122	-2.103797
H	-0.314514	-0.773948	0.702813
C	-0.590927	1.33799	0.369084
H	-0.261223	1.644401	1.363824
H	-0.291036	2.106601	-0.349054
H	-1.681676	1.242671	0.374759
N	-1.71336	-0.281839	-1.928677
H	-2.412221	-0.650079	-1.283207
H	-1.943999	0.698039	-2.026524
C	0.078958	-1.820549	-1.6654
N	0.39754	-2.936337	-1.841929
Br	-4.391742	0.0	0.0
