15

C	0.0	0.0	0.0
C	-0.422599	0.036959	-1.491655
Cl	1.786225	0.0	0.0
H	0.348581	0.60489	-2.025067
H	-0.312028	-0.939876	0.456838
C	-0.530344	1.176237	0.792134
H	-0.236757	2.118047	0.326133
H	-1.621429	1.128906	0.824245
H	-0.136196	1.140042	1.810431
N	-1.678756	0.718608	-1.69427
H	-2.461078	0.320848	-1.162654
H	-1.932493	0.690655	-2.674594
C	-0.344626	-1.340889	-2.044715
N	-0.290816	-2.40213	-2.547277
Br	-4.449361	0.0	0.0
