15

C	0.0	0.0	0.0
C	-0.581127	-0.221037	-1.397656
Cl	1.780972	0.0	0.0
H	-1.64494	0.06056	-1.31084
H	-0.317363	-0.845911	0.613042
C	-0.489299	1.303511	0.602648
H	-1.580588	1.274315	0.641024
H	-0.157705	2.14987	-0.004844
H	-0.091088	1.42782	1.611791
N	-0.430398	-1.625223	-1.804323
H	-0.664814	-1.701332	-2.788906
H	-1.161316	-2.129868	-1.307536
C	0.044835	0.662735	-2.384171
N	0.529119	1.368967	-3.187804
Br	-3.863323	0.0	0.0
