15

C	0.0	0.0	0.0
C	-0.384757	0.175641	-1.502136
Cl	1.789236	0.0	0.0
H	0.251794	0.990318	-1.868654
H	-0.312279	-0.983794	0.356163
C	-0.571542	1.097839	0.865917
H	-0.198141	1.015118	1.888806
H	-0.291884	2.080386	0.47396
H	-1.661539	1.005941	0.878783
N	-1.747671	0.495626	-1.8436
H	-2.433702	-0.126344	-1.415133
H	-1.985774	1.412023	-1.486768
C	0.031086	-1.032552	-2.240748
N	0.362217	-2.00478	-2.808549
Br	-4.446276	0.0	0.0
