15

C	0.0	0.0	0.0
C	-0.594726	0.302168	-1.374663
Cl	1.781125	0.0	0.0
H	-1.647292	0.560043	-1.170509
H	-0.317705	-1.008329	0.270932
C	-0.472182	1.003563	1.037855
H	-0.056346	0.758711	2.017215
H	-1.562583	0.974972	1.085031
H	-0.138449	2.009173	0.767345
N	-0.491781	-0.874065	-2.251077
H	-1.247482	-1.489485	-1.957289
H	-0.72144	-0.589941	-3.197839
C	0.046348	1.461124	-1.998177
N	0.529664	2.39756	-2.516533
Br	-3.85074	0.0	0.0
