15

C	0.0	0.0	0.0
C	-0.538951	0.212697	-1.417791
Cl	1.790237	0.0	0.0
H	-1.629716	0.3061	-1.284191
H	-0.321549	-0.992648	0.321025
C	-0.481449	1.060971	0.970473
H	-0.103852	2.043176	0.677464
H	-0.124977	0.840933	1.979647
H	-1.573846	1.058999	0.963123
N	-0.294165	-0.874973	-2.356784
H	0.646945	-1.230284	-2.23023
H	-0.951521	-1.616756	-2.144917
C	-0.036389	1.474729	-1.979968
N	0.354719	2.486516	-2.428541
Br	-3.820718	0.0	0.0
