14
Coordinates from ORCA-job run
  C   0.56431472971661      0.13302213200611      0.13996739006764
  C   -0.74144281744720     -0.00600987546602     -0.65522600117031
  Cl  1.62458519402175      1.32910101904158     -0.67238911073199
  H   -0.46115872480142     -0.24688479418962     -1.68387377551460
  H   -1.27147658309842     -0.87698796231126     -0.23969613218950
  C   1.30621715125224     -1.19482440181417      0.23123605775482
  H   0.69272877460798     -1.93015014367443      0.75760225779451
  H   2.24776016831561     -1.07209619414642      0.76660091753629
  H   1.52084140812080     -1.55935136287689     -0.77535227472488
  C   0.25009584399151      0.63581649800873      1.47854655090035
  N   -0.04677001801732      0.98244172962927      2.56104852085259
  N   -1.50286629085800      1.22567098887048     -0.63646173665961
  H   -2.08834877222308      1.30452061859567     -1.45535204196306
  H   -2.09148006358106      1.27673174832696      0.18434937804775
