14
Coordinates from ORCA-job run
  C   0.69705151901364      0.25489772194826      0.09512434088974
  C   -0.51152075916148      0.54704482718277     -0.80812512396576
  Cl  2.12345326844683      1.08374996995890     -0.62083770048044
  H   -0.30545288192832      0.08422168699758     -1.77694121597576
  H   -0.57065887027884      1.63190801466870     -0.96272116913758
  C   0.98656572789056     -1.23320977615667      0.21238521582091
  H   1.21058422734198     -1.63334099841407     -0.77869829006005
  H   1.84228633036671     -1.40917659396846      0.86497215832637
  H   0.10372062391522     -1.73198771140836      0.61206670731454
  C   0.44878592982221      0.83996384646406      1.41412489300270
  N   0.18856183650554      1.29827818142144      2.46414767330386
  N   -1.70108065840167     -0.05241193218132     -0.22391696637204
  H   -2.38562818595187     -0.25718722306852     -0.93875527889361
  H   -2.12566810758049      0.57724998655569      0.44517475622712
