14
Coordinates from ORCA-job run
  C   0.68469562828606      0.28977651818005      0.08506994199549
  C   -0.53610169126845      0.49337247202781     -0.82609925520838
  Cl  2.07149421936181      1.15635764228716     -0.66328576535285
  H   -0.30876166374515      0.00604922624804     -1.77801765204493
  H   -0.64502837351685      1.56810600721808     -1.01946167343472
  C   1.04192945181616     -1.17831101118262      0.25582569276999
  H   0.18293566085313     -1.70183374323769      0.67528204457226
  H   1.90509026842622     -1.29093976997070      0.91262735194221
  H   1.28351566346386     -1.60377544374454     -0.72045315721447
  C   0.41005547652759      0.91058209960171      1.38231202868961
  N   0.12962785185744      1.39461204995986      2.41546012636845
  N   -1.69697008902311     -0.13876519856831     -0.21905696250567
  H   -2.15057162748277      0.49459898592879      0.42704694997922
  H   -2.37091077555596     -0.40082983474765     -0.92524967055620
