14
Coordinates from ORCA-job run
  C   0.52626201374009      0.29994647412149      0.28913548005109
  C   -0.94872798353395      0.44129289081695     -0.11522311810093
  Cl  1.51638378355443      1.31406875865507     -0.82816248940043
  H   -1.53172738403058     -0.12882296383087      0.61511168695030
  H   -1.22742551126625      1.49850836730463     -0.01345339295418
  C   1.01925096269128     -1.13694688816660      0.21644440389387
  H   0.44710326090337     -1.74963625914917      0.91825248405444
  H   2.07616126346343     -1.19216240166474      0.47832759384447
  H   0.86228550613566     -1.51239205073631     -0.79268335424640
  C   0.69573963166120      0.83976035969825      1.63883275284069
  N   0.78960002338026      1.24187217975554      2.73859027730721
  N   -1.17137519935725     -0.12344604892103     -1.43521552228344
  H   -2.15248644954486     -0.33347197609761     -1.56018468910933
  H   -0.90204391779683      0.54142955821440     -2.14877211284736
