14
Coordinates from ORCA-job run
  C   0.54310000572756      0.26105042479583      0.29690540777818
  C   -0.90321689056232      0.51622748543669     -0.15366561205495
  Cl  1.64617865218542      1.15642273539039     -0.81580449050112
  H   -1.55176027493472      0.01790380098174      0.57383572223514
  H   -1.09220696917721      1.59579022822288     -0.08610205272664
  C   0.91292393981676     -1.21374455006182      0.27415347736974
  H   0.27006505805935     -1.75744639458603      0.97168112358152
  H   1.95323053492553     -1.35201315863695      0.56958507437308
  H   0.75330246518415     -1.60053906716401     -0.73033637828429
  C   0.71957380789523      0.82259663996817      1.63686101602557
  N   0.81198836426832      1.24882579713269      2.72759963538446
  N   -1.13868590915458     -0.06322255925454     -1.46480746059643
  H   -0.79266773999470      0.55571600677983     -2.18652472206034
  H   -2.13082504423878     -0.18956738900488     -1.61338074052392
