18

C	0.0	0.0	0.0
C	-0.482161	0.317927	-1.415517
Cl	1.814199	0.0	0.0
H	-0.035189	1.274023	-1.713253
H	-1.565301	0.464941	-1.331167
C	-0.463001	1.088752	0.954258
H	-0.092688	0.89922	1.965565
H	-0.103651	2.068591	0.627588
H	-1.557462	1.082978	0.960721
C	-0.474062	-1.361132	0.479005
H	-1.569104	-1.362921	0.452178
H	-0.13638	-1.54002	1.503381
H	-0.08977	-2.163368	-0.153819
C	-0.196922	-0.745197	-2.468673
H	0.855452	-1.04003	-2.473405
H	-0.812845	-1.631054	-2.30534
H	-0.443653	-0.360338	-3.462087
Br	-4.063533	0.0	0.0
