12

C	-0.167003	-0.03912	-1.522201
C	0.0	0.0	0.0
F	-0.39077	-1.383417	-1.892173
H	1.09031	0.0	0.0
H	-0.483285	-0.847086	0.484482
H	-0.363106	0.948118	0.402873
C	-1.362027	0.685262	-2.017371
N	-2.326653	1.25759	-2.364187
N	1.010401	0.42548	-2.184874
H	0.916423	1.375787	-2.508596
H	1.815535	0.344542	-1.523844
F	2.743345	0.0	0.0
