16

C	0.0	0.0	0.0
C	-0.18911	0.174901	-1.528842
F	1.42168	0.0	0.0
H	0.4447	1.045323	-1.744049
N	-0.469525	1.143827	0.706964
H	-1.493951	1.08228	0.669195
H	-0.198423	1.058769	1.68158
N	-0.493483	-1.232185	0.438071
H	-0.20552	-1.991507	-0.160338
H	-0.351978	-1.40341	1.421334
C	-1.485068	0.511526	-2.128327
N	-2.274404	0.824961	-2.941409
N	0.31128	-1.050147	-2.18285
H	-0.02761	-1.086563	-3.135864
H	1.322552	-1.0049	-2.200083
Br	-3.948657	0.0	0.0
