16

C	0.0	0.0	0.0
C	-0.434736	0.086642	-1.475741
F	1.41022	0.0	0.0
H	-1.52493	-0.024493	-1.492081
N	-0.40495	1.205645	0.678634
H	-1.426744	1.180874	0.704276
H	-0.072698	1.153891	1.636548
N	-0.409784	-1.26686	0.531813
H	-1.430164	-1.279127	0.50996
H	-0.118589	-1.329919	1.499727
C	0.164932	-1.026139	-2.224351
N	0.673528	-1.861012	-2.874248
N	-0.080643	1.339409	-2.132762
H	-0.630689	2.063262	-1.684939
H	0.885218	1.539316	-1.894262
Br	-3.677537	0.0	0.0
