16

C	0.0	0.0	0.0
C	-0.430472	-0.005367	-1.479397
F	1.410899	0.0	0.0
H	-1.524783	-0.07367	-1.489642
N	-0.410345	1.24765	0.593061
H	-0.074552	1.263991	1.551761
H	-1.432943	1.215861	0.624696
N	-0.413265	-1.227003	0.614071
H	-1.434319	-1.23832	0.585153
H	-0.128948	-1.220753	1.588453
C	0.122412	-1.192539	-2.14515
N	0.593434	-2.101224	-2.718717
N	-0.02204	1.183336	-2.221136
H	0.957974	1.343456	-2.009078
H	-0.525155	1.962318	-1.810215
Br	-3.678315	0.0	0.0
