14

C	0.0	0.0	0.0
C	-0.529112	0.152575	-1.431376
Cl	1.795609	0.0	0.0
H	-0.118911	1.091177	-1.818608
H	-0.092713	-0.664246	-2.015912
C	-0.425279	1.120913	0.845025
N	-0.710435	2.055115	1.497746
C	-0.42473	-1.273646	0.589615
N	-0.712934	-2.325617	1.025969
C	-2.051304	0.134991	-1.479246
H	-2.387636	0.302543	-2.504871
H	-2.479392	-0.806854	-1.137008
H	-2.511655	0.906071	-0.860751
Br	-5.263751	0.0	0.0
