14

C	0.0	0.0	0.0
C	-0.495833	-0.275262	-1.427225
Cl	1.797535	0.0	0.0
H	0.011509	0.44691	-2.075174
H	-1.568282	-0.058574	-1.406661
C	-0.403237	1.336678	0.451553
N	-0.577068	2.451669	0.778997
C	-0.412078	-1.033361	0.955654
N	-0.582384	-1.910161	1.719076
C	-0.258823	-1.708497	-1.875035
H	0.789674	-2.005863	-1.793019
H	-0.870422	-2.391555	-1.282012
H	-0.562963	-1.814872	-2.919116
Br	-3.585045	0.0	0.0
