15

C	0.0	0.0	0.0
C	-0.572376	-0.122639	-1.419315
Br	1.921504	0.0	0.0
H	-1.659753	-0.263001	-1.182004
H	-0.382667	0.916073	0.433
N	-0.431735	-1.098774	0.924744
O	-0.624277	-0.785989	2.092849
O	-0.472274	-2.231387	0.460875
N	-0.054449	-1.288961	-2.209856
O	1.0825	-1.207901	-2.681771
O	-0.821517	-2.230094	-2.403926
N	-0.348743	1.058717	-2.207207
H	0.581386	1.435527	-2.064291
H	-1.04812	1.738881	-1.938453
F	-2.625586	0.0	0.0
