15

C	0.0	0.0	0.0
C	-0.475313	-0.304879	-1.438704
Br	1.919186	0.0	0.0
H	0.389496	-0.288667	-2.111673
H	-0.3366	0.977731	0.308645
N	-0.409819	-0.921905	1.11453
O	-0.592984	-0.36444	2.191702
O	-0.409017	-2.13077	0.928873
N	-1.230089	0.968739	-1.928977
O	-2.059766	0.797851	-2.814391
O	-0.832846	2.064223	-1.545485
N	-1.21531	-1.487459	-1.619276
H	-1.515261	-1.517982	-2.584745
H	-2.030143	-1.304712	-1.010002
F	-2.430742	0.0	0.0
