15

C	0.0	0.0	0.0
C	-0.591412	-0.27147	-1.423038
Br	1.91369	0.0	0.0
H	-1.289058	-1.091965	-1.308963
H	-0.369527	0.944155	0.379658
N	-0.425677	-1.029762	1.008851
O	-0.538506	-2.187435	0.633034
O	-0.537076	-0.631182	2.161406
N	0.468421	-0.747958	-2.385163
O	0.692985	-1.956894	-2.418978
O	1.042849	0.092426	-3.073428
N	-1.280258	0.837847	-1.996262
H	-2.074876	0.867005	-1.326606
H	-0.707798	1.67264	-1.937459
F	-2.574638	0.0	0.0
