15
Coordinates from ORCA-job run
  C   1.08155577552968     -0.16149393226481      0.25385825790792
  C   -0.29993664612086     -0.01740184805409     -0.37676978218518
  F   0.85771906996759     -0.46364257832792      1.61849743665236
  H   -0.12691502943630      0.11171226803939     -1.45215360134222
  H   1.60323911221886     -1.03422430586474     -0.15012970185090
  N   1.86835578822429      1.00249101823292      0.14198695318034
  H   2.70653154038892      0.89670813730936     -0.40196181834617
  H   1.31695301585677      1.80979491971697     -0.10863604980061
  N   -0.87327289789277      1.23550113255188      0.11544206239464
  H   -1.03928206085951      1.14774672002117      1.11205926013328
  H   -1.76467020619335      1.41182195388419     -0.33104353338014
  C   -1.16694124578889     -1.25107222948931     -0.14873053259983
  H   -1.35161045753576     -1.38966656562143      0.91755314254382
  H   -0.68351744949657     -2.15574137969217     -0.53058153317245
  H   -2.12820830886210     -1.14253331044141     -0.65839056013487
