15
Coordinates from ORCA-job run
  C   0.90948393114807      0.53255437351147      0.09403821935953
  C   -0.41867455320278     -0.04969225385240     -0.34828557635878
  F   1.35808196900698      1.37511131437503     -0.96062016768017
  H   -0.20362260001103     -0.69187537181629     -1.22209361603013
  H   0.76412567407501      1.19472730336666      0.95055407923834
  N   1.86145264926444     -0.46746370209840      0.40248403182922
  H   2.72866441790081     -0.05618711119366      0.72097935490520
  H   2.05162463869731     -1.03844124338916     -0.41183645869624
  N   -1.30554524024261      1.06434699656101     -0.66657970415029
  H   -0.90205517982029      1.61313152998288     -1.41536037656654
  H   -2.19836297684122      0.70926741598606     -0.98624379892755
  C   -1.03876901077805     -0.89337582351966      0.75302125593993
  H   -0.38771470505493     -1.72196453810397      1.02883216025776
  H   -1.21638555377464     -0.27179288561329      1.63374765296836
  H   -2.00130346036708     -1.29734600419628      0.42636294391135
