15
Coordinates from ORCA-job run
  C   0.97293308144455     -0.05018868229091      0.16387786881898
  C   -0.45870115623622     -0.04067196490922     -0.36514992938612
  F   0.93859367240081     -0.15953141355426      1.55038059112209
  H   -0.39345425239536      0.10532013638928     -1.45275212655411
  H   1.51662125267113     -0.94151426327776     -0.18413113019074
  N   1.62757845246260      1.19958949097573     -0.13364815694517
  H   2.56799957253439      1.19268014981123      0.24281429008760
  H   1.69088930352285      1.32018173537126     -1.13746343284843
  N   -1.25598311935171      1.05060356466758      0.18106097989247
  H   -1.37707525954450      0.88102314439144      1.17430765994311
  H   -0.71553280605023      1.90630618298887      0.10750221948682
  C   -1.14664891294641     -1.36860179976739     -0.09194310020488
  H   -1.17569066700953     -1.56274937180203      0.98305541895718
  H   -0.62203368634281     -2.19834863046695     -0.57214624747239
  H   -2.17049547515955     -1.33509827852686     -0.46576490470642
