15
Coordinates from ORCA-job run
  C   1.09972897426215     -0.18921612662582     -0.07679935686575
  C   -0.38946698273848     -0.04450324089628     -0.37493485339603
  F   1.25054509613374     -0.68739785476800      1.23847293623562
  H   -0.46346243816506      0.03847822256828     -1.46786049721415
  H   1.54950904366538     -0.94785323852508     -0.72476156469206
  N   1.75591084218952      1.05124087006885     -0.24769105303082
  H   2.74559567375089      0.96690808707641     -0.05661916905348
  H   1.34201530557213      1.70899397665206      0.40348206969110
  N   -0.88674671660213      1.17022985741975      0.28088862721973
  H   -1.79235466853536      1.00887708296398      0.69960786245926
  H   -0.98312863727917      1.92029202410205     -0.38992082742532
  C   -1.16265765905464     -1.26791335050539      0.08912632777436
  H   -2.20000319340608     -1.21849371652345     -0.25149562736273
  H   -0.71903146470064     -2.18790591526476     -0.29809730051231
  H   -1.14645317509224     -1.32173667774259      1.17860242617259
