15
Coordinates from ORCA-job run
  C   0.92442229746848      0.24036434171001     -0.54914202559726
  C   -0.56094893217446     -0.10776497908079     -0.49245738608957
  F   1.62657937899236     -0.89617130761691     -1.02864343862112
  H   -0.82151027479881     -0.48533269974423     -1.48668436422844
  H   1.10364119452537      1.02724926187956     -1.28718435471854
  N   1.41532858422669      0.66758810356867      0.71559598180390
  H   1.39311509275160     -0.10097907568845      1.37460111698538
  H   2.37169457842536      0.99083174586959      0.64784331941389
  N   -1.40751900908154      1.05639261425504     -0.22775922934645
  H   -1.40261272915706      1.65899914083448     -1.04315992804048
  H   -0.95808351367875      1.56923816617589      0.52607047586127
  C   -0.85180750738581     -1.20486359034119      0.52260628982078
  H   -0.19341133444753     -2.06334027523041      0.37487288895491
  H   -1.89204315247186     -1.50787890324193      0.40372476188561
  H   -0.74684467319403     -0.84433254334930      1.55071589191613
