17

C	-0.249921	-0.039532	-1.493479
C	0.0	0.0	0.0
Br	-2.199537	-0.272087	-1.949294
H	1.10231	0.0	0.0
H	-0.052013	0.9469	-1.925913
N	0.484381	-1.114071	-2.095123
H	0.556585	-0.973399	-3.096586
H	1.424925	-1.100062	-1.696361
C	-0.479367	-1.252863	0.718758
H	-1.57002	-1.262439	0.811435
H	-0.170049	-2.14994	0.180846
H	-0.042158	-1.286169	1.720407
C	-0.513409	1.272636	0.648292
H	-1.607143	1.315682	0.622255
H	-0.190727	1.314129	1.691736
H	-0.11697	2.160277	0.14695
Cl	3.478388	0.0	0.0
