17

C	-0.465494	-0.001292	-1.446843
C	0.0	0.0	0.0
Br	0.052765	1.642191	-2.398143
H	1.096093	0.0	0.0
H	0.095241	-0.769357	-1.993009
N	-1.910787	-0.11686	-1.567532
H	-2.161125	-0.1749	-2.547936
H	-2.195447	-0.982234	-1.120623
C	-0.416978	-1.324814	0.652263
H	0.128268	-1.440136	1.591468
H	-0.155613	-2.182286	0.023156
H	-1.488891	-1.361057	0.880193
C	-0.513563	1.182054	0.810852
H	-1.605514	1.239966	0.780369
H	-0.19145	1.077906	1.850703
H	-0.1044	2.119488	0.432553
Cl	3.573572	0.0	0.0
