17

C	-0.5704	-0.01104	-1.410774
C	0.0	0.0	0.0
Br	0.095562	-1.535279	-2.461989
H	1.095669	0.0	0.0
H	-1.652739	-0.214787	-1.345237
N	-0.246612	1.182356	-2.165127
H	-0.662769	1.983562	-1.704115
H	-0.634649	1.113265	-3.100599
C	-0.478008	-1.216458	0.787735
H	-0.074304	-1.176217	1.803543
H	-0.129208	-2.144554	0.3328
H	-1.574678	-1.248552	0.854521
C	-0.444549	1.285429	0.707305
H	-1.534583	1.424357	0.663671
H	0.051875	2.160902	0.284306
H	-0.154852	1.238439	1.760492
Cl	3.635994	0.0	0.0
