17

C	-0.261591	-0.001656	-1.498311
C	0.0	0.0	0.0
Br	-2.216968	-0.08709	-1.901932
H	1.101528	0.0	0.0
H	0.036616	0.964291	-1.912028
N	0.402617	-1.030296	-2.262811
H	1.403453	-0.884644	-2.115167
H	0.177526	-1.935204	-1.864925
C	-0.475737	-1.248715	0.727566
H	-0.079852	-2.161423	0.275066
H	-0.112013	-1.226568	1.758179
H	-1.568197	-1.312259	0.744317
C	-0.494346	1.267104	0.681275
H	-0.162827	2.157996	0.139351
H	-1.587273	1.288392	0.746199
H	-0.082629	1.32825	1.692602
Cl	3.474173	0.0	0.0
