16
Coordinates from ORCA-job run
  C   0.54157132923271     -0.55122716685167      0.15563726899084
  C   -0.90290054504379     -0.10036702484649     -0.11298144353748
  Br  0.53654572045625     -2.49510856189353      0.25565081553517
  H   -1.57859020524445     -0.56875612288998      0.59847392610803
  N   1.44185877212197     -0.14364630101168     -0.84254094987772
  H   1.50298969741679      0.86922086063843     -0.84327793962330
  H   2.35866934723258     -0.54913327806346     -0.70653921340707
  N   0.93745125887464     -0.09415932470761      1.58638665496427
  O   2.11578586636025      0.18139341516350      1.76184959016316
  O   0.04025399213508     -0.06643186953985      2.42017223393209
  N   -1.30311365450579     -0.28909575950918     -1.45950205047244
  H   -0.50966547058835     -0.43831208958219     -2.06821416722311
  H   -1.99670084891850     -1.01156590252211     -1.56277314242104
  N   -1.02411046183463      1.38874462936753      0.21180152000637
  O   -0.02861680514909      2.09658306174406      0.04902684170923
  O   -2.13042799254566      1.77386143450422      0.55683005515299
