16
Coordinates from ORCA-job run
  C   0.68469501203557     -0.33895251191682      0.24981069153405
  C   -0.80240269888183     -0.20620591530095     -0.07562413955669
  Br  1.02705087572241     -2.36009479887318      0.29140489144884
  H   -1.39400692896393     -0.67478197160249      0.71772483428871
  N   1.45083522516301      0.37614712103884     -0.63602612368607
  H   1.20239420605001      0.16142143212842     -1.59347047375352
  H   2.44242754275101      0.36411600903482     -0.44694677909106
  N   1.00927820269281      0.04245529308642      1.68716430522334
  O   0.18083217298447     -0.25504812624472      2.53339562245397
  O   2.09601056268112      0.57254940640223      1.87080507345312
  N   -1.02909250690408     -0.66273473051244     -1.42227036339956
  H   -1.86827471942381     -0.22388683849478     -1.78142620297391
  H   -1.14666108887115     -1.66736733690453     -1.42596797994139
  N   -1.17867502486008      1.26998001019437     -0.01649566188613
  O   -2.01991558324877      1.66399069920922     -0.81751861691959
  O   -0.65649524892675      1.93741225875559      0.86544092280590
