16
Coordinates from ORCA-job run
  C   0.72442530903761     -0.51076927802273      0.26138214064962
  C   -0.72133834382914     -0.35883380702281     -0.26375103866497
  Br  1.16921493974887     -2.39775140434920      0.12803052307823
  H   -1.36884498069374     -1.12696013003251      0.15011462689528
  N   1.75218776533649      0.23556815512702     -0.34212220046655
  H   1.97819916918036     -0.10158703030795     -1.26617949947876
  H   1.55965364720797      1.22818113784009     -0.31654734705597
  N   0.67663632083733     -0.18032541306013      1.76808781025470
  O   -0.30185792472387     -0.62346885631624      2.36155676637802
  O   1.58441715030731      0.48246756353043      2.24147671306899
  N   -0.72292620138151     -0.39140726011838     -1.68410637047122
  H   -1.65530230548408     -0.52242721058772     -2.05250717168957
  H   -0.31047591180553      0.44467251585444     -2.07769321845021
  N   -1.30725182531660      0.94695054101240      0.26454326610054
  O   -0.55580608958017      1.92533364641928      0.28981521220071
  O   -2.50093071884131      0.94935683003401      0.53989978765115
