16
Coordinates from ORCA-job run
  C   0.55701039630873     -0.40602018537862      0.39383799610026
  C   -0.55056766732386      0.34366119801853     -0.41538419484981
  Br  -0.25256163149324     -1.58258945824925      1.68519168794836
  H   -0.03131749728062      0.90711708954055     -1.19299824186622
  N   1.57010614101457     -1.10949081371350     -0.31626603564472
  H   1.96627412693346     -0.50632817732801     -1.02915606931101
  H   1.18260129885686     -1.93243272654321     -0.75983325438555
  N   1.27998236733429      0.75429724987115      1.10325838093508
  O   1.89001354526873      1.47669123562031      0.31652217050428
  O   1.18368326088444      0.91158221444930      2.30786344283607
  N   -1.42377178740999      1.19354518613786      0.30009357616501
  H   -1.02592641811144      2.10603581052104      0.46362749123231
  H   -1.77971969040086      0.78282933612656      1.15174546858421
  N   -1.34226004487816     -0.71214552655754     -1.15635662442925
  O   -2.46737815725287     -0.97439578264252     -0.75597096622261
  O   -0.75716824245005     -1.25235664987267     -2.09617482759640
