16
Coordinates from ORCA-job run
  C   0.67582568165076     -0.35424985765618      0.25453584114728
  C   -0.76797580506345     -0.22197168975603     -0.22755467562249
  Br  1.16899666257977     -2.30818140835034     -0.12300906769752
  H   -1.40959272050678     -0.89634513328614      0.34910700394515
  N   1.48285751141417      0.58738965820755     -0.33261174192540
  H   1.36733178825118      0.59554243592683     -1.33814535461199
  H   2.44274211943322      0.57977624165964     -0.02004132539560
  N   0.79633404637980     -0.30950475232112      1.77147678950267
  O   1.80942955660994      0.21187337119885      2.21564087171909
  O   -0.10199256543628     -0.83718753949329      2.40824776377977
  N   -0.79617627549685     -0.35308557974030     -1.66137477428943
  H   -0.83087249115959     -1.33198529691400     -1.91369293299963
  H   -1.62019049300758      0.11603641907966     -2.01746584144536
  N   -1.26772157829132      1.17574844893068      0.11930935791540
  O   -0.90170332605079      1.64488035977375      1.18787780990187
  O   -2.04729211130622      1.70026432274043     -0.66929972392381
