16
Coordinates from ORCA-job run
  C   0.67595714946078     -0.34742885419402      0.26247062846956
  C   -0.80973829362257     -0.18193537615070     -0.05550017843357
  Br  0.94987137559132     -2.37305682722128      0.41669402321879
  H   -1.40747763554532     -0.58386660877303      0.76919342872476
  N   1.45535899561716      0.28897254763552     -0.67067437922000
  H   1.18789159827762      0.02887601254458     -1.61163123163744
  H   2.44828428150618      0.25318101003800     -0.49183472305682
  N   1.02991135804782      0.10459342639879      1.67239781003933
  O   2.13577274770219      0.60689228550611      1.81446664203677
  O   0.20189244681071     -0.11587896490207      2.54217073052671
  N   -1.06740057520742     -0.70665190429762     -1.37134911070885
  H   -1.21729278333058     -1.70547012626771     -1.31677802916009
  H   -1.89582931255327     -0.26134334569494     -1.74701931165485
  N   -1.13484917434499      1.30710869133241     -0.07791039798743
  O   -1.97194582335052      1.68332117486173     -0.89168293505455
  O   -0.58040635505910      2.00568685918423      0.75898703389769
