16
Coordinates from ORCA-job run
  C   0.62565632429784     -0.46184418761395      0.13017964222033
  C   -0.87602287976173     -0.24162206282398     -0.11226371612711
  Br  0.93728230218356     -2.38325272009256      0.15037188993424
  H   -1.45883473186965     -0.84233224007771      0.58167912183195
  N   1.43598905389559      0.12584061734455     -0.85506854888209
  H   1.33045551673625      1.13425958709053     -0.81653359510699
  H   2.40804189689571     -0.12967983102922     -0.74022584099403
  N   0.95898225199276     -0.00364086588076      1.57606787228274
  O   0.07904779377030     -0.15498314024471      2.41500290174712
  O   2.07914921005253      0.45226595444026      1.75673992610899
  N   -1.25523050877997     -0.43825886812913     -1.46347791043878
  H   -0.45566109289514     -0.43156650414224     -2.08219754733336
  H   -1.82569886148827     -1.25738490111713     -1.59425853270112
  N   -1.23321677313818      1.19325423194575      0.27575367182990
  O   -2.38036688030100      1.37808940684357      0.65165246153465
  O   -0.37057262159058      2.06085552348673      0.12857820409357
