16
Coordinates from ORCA-job run
  C   0.51660926666047     -0.46058236653545      0.38022550798467
  C   -0.50829583297563      0.43335615631572     -0.33312116629308
  Br  -0.28179687238998     -1.52701539880983      1.77702400544112
  H   0.04215227607925      1.04006273126005     -1.05446383669041
  N   1.19107902278937     -1.30010265774736     -0.51970365719336
  H   1.88635698381560     -1.87921454129435     -0.06831161447074
  H   1.58792314150894     -0.78314560511618     -1.29438990966819
  N   1.47537131152627      0.59786122918115      1.05161854660883
  O   2.11745232884345      1.22968250374688      0.21577904806657
  O   1.53719851616973      0.71614326763385      2.26115705925700
  N   -1.20438976337322      1.25199213384848      0.57872655502330
  H   -1.82703116439322      0.71029742156650      1.16463910146663
  H   -1.72446659882990      1.97857679722390      0.10653611117078
  N   -1.38961480530837     -0.46059673141125     -1.20770571601626
  O   -0.98102856980908     -0.68218314259155     -2.34387146641879
  O   -2.43751924031364     -0.86513179727054     -0.71413856826808
