16
Coordinates from ORCA-job run
  C   0.61596900178397     -0.56752930655000      0.09672443343942
  C   -0.63645473927062      0.05536093090964     -0.55718267894371
  Br  0.50798779606575     -2.51087785682678      0.39838767949456
  H   -0.72670586049967     -0.39112039494132     -1.55715392016902
  N   1.72436440666139     -0.18680078670029     -0.70025737338872
  H   1.84744796466350     -0.83501855213727     -1.46777984356814
  H   2.56569580438436     -0.15430413187354     -0.13556041106087
  N   0.77615342650314      0.04652995118233      1.48721626407550
  O   1.87740020181058      0.49276769715180      1.78023204917678
  O   -0.21592403389913      0.01112525695481      2.19558634244646
  N   -0.44292354222186      1.47115253219931     -0.48378006441876
  H   -1.30672591081771      1.97464957956719     -0.62658539545722
  H   0.27181919143658      1.75705563500906     -1.13694052351965
  N   -1.95601462581735     -0.29862381213101      0.09767675877988
  O   -2.58226864599643      0.59495244929313      0.65403359839898
  O   -2.32082043478651     -1.45931919110709     -0.04561691528551
