16
Coordinates from ORCA-job run
  C   0.47310557586904     -0.33754805490387      0.42713888539693
  C   -0.57886544836383      0.42171446116331     -0.43531649941886
  Br  -0.25501131911980     -0.93705876417687      2.12954383123271
  H   -0.01850680486787      0.98813157053870     -1.18253856269986
  N   1.03495511625967     -1.41928688905535     -0.25263610122836
  H   1.82593012375719     -1.81412298434860      0.23832802226461
  H   1.26246989804251     -1.20717000126824     -1.21684410069548
  N   1.55204507144218      0.72334986520426      0.84839944452302
  O   2.67947736394508      0.28760054204014      1.03582239081496
  O   1.19972526697938      1.89284354787305      0.96257475759768
  N   -1.54073992730856      1.26574355732003      0.17914719924141
  H   -1.07789376655527      2.05824355522518      0.60156377907882
  H   -2.07028827082070      0.75978328074000      0.87738854540373
  N   -1.31939760179775     -0.63387807145049     -1.21571285870387
  O   -2.29103086901608     -1.13987568801939     -0.66955309587151
  O   -0.87797440844520     -0.90746992688181     -2.32930563693587
