16
Coordinates from ORCA-job run
  C   0.61736747308140     -0.49586451158427      0.11079064594590
  C   -0.63980238557583      0.00987826189663     -0.65554590305935
  Br  0.51734920683561     -2.45864608507631      0.25076855428706
  H   -0.63290963433472     -0.49067799546538     -1.62619069668262
  N   1.76053353208812     -0.02287306967229     -0.57490727193775
  H   1.81983860421347     -0.44759436159808     -1.49291939002222
  H   2.61475173653467     -0.22430796697636     -0.06814206625146
  N   0.66250528287288      0.09685355938102      1.53387558515893
  O   0.47600077714561     -0.62862558897242      2.49550092734472
  O   0.87794294376495      1.30535995774321      1.56070346360873
  N   -0.77667616332717      1.41876630969897     -0.82806173202791
  H   -0.02418226990586      1.76150817596968     -1.41128168833546
  H   -0.71597701637102      1.89056159664545      0.06654205370063
  N   -1.87976201049417     -0.46939921443094      0.03938086431680
  O   -2.07407657395740      0.01643494145889      1.15155653295308
  O   -2.60290350257059     -1.26037400901784     -0.55306987899910
