15

C	0.0	0.0	0.0
C	-0.437106	0.030408	-1.458169
F	1.388262	0.0	0.0
H	-1.528577	0.087281	-1.415761
H	-0.0222	0.966526	-1.849352
N	-0.540175	1.117666	0.692044
H	-0.334597	1.01305	1.681981
H	-1.575417	0.922015	0.550771
C	-0.351045	-1.313116	0.627183
N	-0.525557	-2.370122	1.109382
C	0.06562	-1.164177	-2.25769
H	-0.402352	-2.088488	-1.909894
H	1.150002	-1.277067	-2.172789
H	-0.179916	-1.046312	-3.317419
F	-2.776098	0.0	0.0
