15

C	0.0	0.0	0.0
C	-0.457889	-0.003531	-1.453689
F	1.387832	0.0	0.0
H	0.008851	-0.866558	-1.941607
H	-1.542752	-0.133861	-1.390639
N	-0.560567	1.10088	0.698812
H	-0.370076	0.987936	1.690533
H	-1.597076	0.895518	0.538727
C	-0.335967	-1.32347	0.621206
N	-0.507072	-2.379806	1.105238
C	-0.070901	1.288369	-2.164872
H	-0.355968	1.239144	-3.220748
H	-0.580285	2.136109	-1.707621
H	1.006213	1.466849	-2.109116
F	-2.802035	0.0	0.0
