15

C	0.0	0.0	0.0
C	-0.41514	0.285999	-1.441993
F	1.413383	0.0	0.0
H	-0.018331	1.28552	-1.667987
H	-1.507951	0.322395	-1.382402
N	-0.533668	0.901001	0.966293
H	-1.566716	0.68911	0.825113
H	-0.382558	1.837806	0.59794
C	-0.375688	-1.384921	0.38246
N	-0.519009	-2.51679	0.657344
C	0.094016	-0.728773	-2.457634
H	1.181998	-0.821033	-2.421551
H	-0.190717	-0.433576	-3.472098
H	-0.339136	-1.713455	-2.266514
F	-2.762934	0.0	0.0
