15

C	0.0	0.0	0.0
C	-0.458385	-0.030257	-1.453661
F	1.387548	0.0	0.0
H	0.011157	-0.900323	-1.926397
H	-1.542975	-0.162861	-1.388417
N	-0.561546	1.11324	0.678264
H	-1.59741	0.904759	0.521262
H	-0.3715	1.017798	1.671878
C	-0.335692	-1.312359	0.644995
N	-0.508655	-2.360772	1.145797
C	-0.076449	1.25027	-2.186933
H	1.000043	1.433903	-2.13523
H	-0.588753	2.103733	-1.744226
H	-0.362339	1.182067	-3.241416
F	-2.802326	0.0	0.0
