15

C	0.0	0.0	0.0
C	-0.436594	0.032357	-1.45828
F	1.388338	0.0	0.0
H	-1.527893	0.091858	-1.416483
H	-0.01882	0.96748	-1.848773
N	-0.539766	1.117069	0.693342
H	-0.333609	1.011546	1.683057
H	-1.575021	0.921641	0.552272
C	-0.351237	-1.313671	0.625794
N	-0.525135	-2.371058	1.107369
C	0.063265	-1.163308	-2.258012
H	-0.178775	-1.043145	-3.318286
H	1.146931	-1.280849	-2.170224
H	-0.409574	-2.085998	-1.912551
F	-2.775333	0.0	0.0
