15

C	0.0	0.0	0.0
C	-0.446998	0.044296	-1.455408
F	1.414696	0.0	0.0
H	-1.527232	-0.124209	-1.408652
H	0.054277	-0.779109	-1.976179
N	-0.559692	1.074112	0.733063
H	-0.367472	0.932752	1.720485
H	-1.59751	0.867694	0.562523
C	-0.315949	-1.342547	0.583
N	-0.461016	-2.395187	1.083519
C	-0.110124	1.381691	-2.104209
H	-0.3535	1.35691	-3.171464
H	-0.685642	2.179793	-1.636288
H	0.951644	1.619522	-1.997997
F	-2.791825	0.0	0.0
