15

C	0.0	0.0	0.0
C	-0.445771	0.064657	-1.45525
F	1.414936	0.0	0.0
H	-1.526822	-0.098544	-1.409683
H	0.050815	-0.755563	-1.985667
N	-0.561366	1.061345	0.74743
H	-1.600211	0.857189	0.5737
H	-0.364901	0.91119	1.732049
C	-0.319794	-1.350146	0.561238
N	-0.465004	-2.412967	1.040236
C	-0.099223	1.407115	-2.088434
H	-0.66695	2.204441	-1.609697
H	0.965324	1.633735	-1.981124
H	-0.343533	1.396734	-3.156219
F	-2.789289	0.0	0.0
