15

C	0.0	0.0	0.0
C	-0.456432	-0.00906	-1.455231
F	1.386517	0.0	0.0
H	-1.539995	-0.151228	-1.395023
H	0.022238	-0.866244	-1.941776
N	-0.562569	1.103145	0.693632
H	-0.377969	0.990309	1.686357
H	-1.598638	0.89562	0.531611
C	-0.33748	-1.319385	0.627779
N	-0.501283	-2.371074	1.12479
C	-0.086605	1.287651	-2.165004
H	0.987192	1.484985	-2.102821
H	-0.612248	2.126784	-1.710956
H	-0.364829	1.233259	-3.222008
F	-2.800943	0.0	0.0
