15

C	0.0	0.0	0.0
C	-0.445608	0.062587	-1.452284
F	1.405529	0.0	0.0
H	-1.538682	0.092184	-1.395835
H	-0.065397	1.021364	-1.822414
N	-0.55241	1.087628	0.72443
H	-1.588045	0.893023	0.558373
H	-0.370054	0.943171	1.713749
C	-0.331378	-1.329092	0.605244
N	-0.479461	-2.350076	1.16724
C	0.073959	-1.094502	-2.294403
H	-0.204872	-0.956282	-3.343747
H	-0.356127	-2.042731	-1.960958
H	1.163136	-1.174143	-2.241322
F	-2.791804	0.0	0.0
