14

C	0.0	0.0	0.0
C	-0.56448	0.047955	-1.392954
F	1.416525	0.0	0.0
H	-0.341952	1.044967	-1.811295
H	-1.66041	-0.028955	-1.230856
N	-0.448683	1.089296	0.774961
H	-0.01043	1.104557	1.684427
H	-0.340421	1.966672	0.29039
C	-0.337155	-1.265184	0.688019
N	-0.433517	-2.211898	1.37351
N	-0.045021	-1.062967	-2.179088
H	0.859408	-0.831114	-2.573321
H	-0.688555	-1.2687	-2.93252
H	-3.421896	0.0	0.0
