14

C	0.0	0.0	0.0
C	-0.452988	-0.055238	-1.486743
F	1.412641	0.0	0.0
H	-0.930681	-1.028003	-1.661478
H	0.454098	0.006793	-2.09671
N	-0.489063	1.102449	0.755605
H	-1.479638	0.865328	0.921824
H	-0.53701	1.878435	0.098565
C	-0.336828	-1.267816	0.695592
N	-0.454802	-2.306176	1.229959
N	-1.332424	1.075045	-1.769498
H	-1.566701	1.049517	-2.757635
H	-2.199936	0.841132	-1.237419
H	-3.081666	0.0	0.0
