14

C	0.0	0.0	0.0
C	-0.494133	0.016486	-1.437134
F	1.377368	0.0	0.0
H	-1.567925	0.232256	-1.382013
H	0.043614	0.84002	-1.915073
N	-0.540706	1.126597	0.681574
H	-1.573678	0.987408	0.582773
H	-0.32537	1.049715	1.670728
C	-0.328448	-1.315808	0.641476
N	-0.470068	-2.350371	1.177541
N	-0.177725	-1.247138	-2.111954
H	-0.926539	-1.897129	-1.891861
H	-0.218614	-1.092842	-3.113702
H	-3.05841	0.0	0.0
