15

C	0.0	0.0	0.0
C	-0.436508	0.161486	-1.467202
F	1.422349	0.0	0.0
H	-1.533003	0.232192	-1.410702
C	-0.368341	1.193141	0.78942
N	-0.524173	2.171202	1.418988
N	-0.469171	-1.184604	0.61414
H	-0.415725	-1.911594	-0.094888
H	-1.463482	-1.035418	0.808351
N	-0.063074	-1.047004	-2.19289
H	-0.673357	-1.169329	-2.98943
H	0.892964	-0.980781	-2.518217
C	0.114335	1.384667	-2.069506
N	0.570292	2.321236	-2.613896
Cl	-3.46511	0.0	0.0
