15

C	0.0	0.0	0.0
C	-0.536432	-0.30018	-1.426552
F	1.36772	0.0	0.0
H	-1.520743	0.176652	-1.488721
C	-0.316759	1.418061	0.369259
N	-0.436573	2.520856	0.755915
N	-0.485187	-0.96452	0.923016
H	-0.223597	-0.678875	1.860834
H	-1.510423	-0.926366	0.858351
N	-0.719049	-1.709142	-1.728846
H	-0.038773	-2.249931	-1.208948
H	-1.635409	-1.960884	-1.375719
C	0.360084	0.324215	-2.410973
N	1.053665	0.819016	-3.218306
Cl	-3.453624	0.0	0.0
