15

C	0.0	0.0	0.0
C	-0.322729	-0.287483	-1.51018
F	1.374878	0.0	0.0
H	0.429716	0.321653	-2.026257
C	-0.367456	1.41607	0.286591
N	-0.609049	2.546132	0.499559
N	-0.553413	-0.95923	0.879806
H	-1.559686	-1.005998	0.695979
H	-0.441468	-0.658643	1.841457
N	-1.604614	0.026163	-2.077961
H	-1.71735	1.033701	-2.105192
H	-2.381313	-0.306158	-1.500511
C	0.04509	-1.691726	-1.780275
N	0.35956	-2.791866	-2.042636
Cl	-3.913922	0.0	0.0
