15

C	0.0	0.0	0.0
C	-0.297608	-0.245377	-1.531563
F	1.376374	0.0	0.0
H	0.392718	0.426219	-2.053605
C	-0.415645	1.384399	0.319807
N	-0.625142	2.524788	0.501936
N	-0.541364	-0.907422	0.940638
H	-0.414922	-1.860281	0.616555
H	-1.542757	-0.724743	1.033577
N	-1.617848	-0.040401	-2.053283
H	-2.34175	-0.475551	-1.478949
H	-1.841955	0.947213	-2.027035
C	0.157805	-1.620423	-1.815114
N	0.498389	-2.727124	-2.011252
Cl	-3.957366	0.0	0.0
