15

C	0.0	0.0	0.0
C	-0.386761	0.309766	-1.479437
F	1.400264	0.0	0.0
H	0.25612	1.144995	-1.779767
C	-0.392992	1.145446	0.845928
N	-0.655711	2.083783	1.500622
N	-0.586347	-1.163425	0.458414
H	-0.78928	-1.283259	1.43229
H	-0.524968	-1.99158	-0.106929
N	-1.753913	0.640038	-1.757098
H	-2.434753	0.058249	-1.258036
H	-1.952109	1.58574	-1.45607
C	0.041785	-0.862705	-2.268018
N	0.363314	-1.829378	-2.852282
Cl	-4.368953	0.0	0.0
