19
Coordinates from ORCA-job run
  C   0.76290871755545      0.26841610497637     -0.07081355092521
  C   -0.73801847398148      0.56718847472456     -0.17785719463495
  F   1.39135133816094      1.23205069133050     -0.87544790386528
  H   -0.87036352111307      1.62227267039307      0.07014953194663
  C   1.23740198748547      0.50776276380460      1.35155993981255
  H   2.32896987027184      0.51301157535925      1.35623434880820
  H   0.88992845829072      1.47570294099845      1.72017906291674
  H   0.89494820540084     -0.27711329078155      2.02748883632242
  C   1.19433326267173     -1.08785072960783     -0.59028651382304
  H   0.95489211489717     -1.19761353167633     -1.64678223596554
  H   0.71666610187680     -1.89930721479502     -0.03913009294212
  H   2.27568024352722     -1.17602207861303     -0.46692808882045
  C   -1.63710522190551     -0.32155517454410      0.65982881438101
  H   -1.50261564383973     -1.37169756430566      0.40496781775115
  H   -1.42964114301414     -0.17596712035705      1.72057496066784
  H   -2.68330885238160     -0.06333516129268      0.48457924325179
  N   -1.15843394503120      0.48339367611970     -1.61605592552866
  O   -1.25416045276115      1.53911218730288     -2.23635028441063
  O   -1.37243304611030     -0.63844921903614     -2.07591076494246
