19
Coordinates from ORCA-job run
  C   0.75638120193517      0.26249396738172     -0.13486163973960
  C   -0.74857197434101      0.55778672888219     -0.15816197228007
  F   1.32805788688407      1.18071682380025     -1.02988128316593
  H   -0.86668974188055      1.62449971756263      0.04278162721448
  C   1.32442516729000      0.57671988633977      1.23767759691199
  H   1.03240350844524     -0.17174021593257      1.97570494730453
  H   2.41376005536838      0.58301493977370      1.16785846519401
  H   0.99855876254478      1.56238158231848      1.57800738487997
  C   1.15425049991133     -1.12060247145138     -0.60838281644834
  H   2.24118426849855     -1.20677933865233     -0.54968451051040
  H   0.71152018329547     -1.90029411825850      0.01325214779243
  H   0.84838080856590     -1.28429231614117     -1.64049509916845
  C   -1.59009160863273     -0.28399968845523      0.78177767496402
  H   -2.64463177085429     -0.02471110848142      0.66913802648208
  H   -1.30690335151066     -0.09069852506468      1.81709353004792
  H   -1.47936822420941     -1.34589040007601      0.56758842059862
  N   -1.26378218659373      0.40064310368056     -1.55905323285862
  O   -1.40536209993693      1.42371937016528     -2.22372365558858
  O   -1.50352138477956     -0.74296793739128     -1.94663561163008
