14

C	0.0	0.0	0.0
C	-0.274767	-0.052898	-1.567894
Cl	1.770002	0.0	0.0
H	0.472687	-0.783909	-1.895746
H	-0.394059	-0.874121	0.50375
N	-0.50416	1.180889	0.767299
O	-0.712635	2.223833	0.167064
O	-0.582098	1.01348	1.979363
C	0.176406	1.206335	-2.203379
N	0.552312	2.135976	-2.813738
N	-1.542709	-0.442893	-2.121514
H	-1.56937	-1.457507	-2.089555
H	-2.242676	-0.145193	-1.369166
F	-2.624632	0.0	0.0
