14

C	0.0	0.0	0.0
C	-0.173012	0.146289	-1.566637
Cl	1.759502	0.0	0.0
H	0.453613	-0.67221	-1.918346
H	-0.436184	-0.904862	0.384686
N	-0.465606	1.139207	0.833444
O	-0.55422	0.886063	2.028109
O	-0.603651	2.22997	0.305349
C	0.561947	1.348496	-2.05453
N	1.050798	2.217626	-2.674345
N	-1.423559	-0.042244	-2.212237
H	-1.344499	0.006152	-3.219227
H	-2.214961	0.323382	-1.666178
F	-2.34825	0.0	0.0
