14

C	0.0	0.0	0.0
C	-0.5644	-0.105942	-1.413439
Cl	1.750533	0.0	0.0
H	-1.680459	-0.048966	-1.138688
H	-0.380049	-0.814396	0.606154
N	-0.477196	1.241024	0.707323
O	-0.545449	1.1646	1.926854
O	-0.677165	2.253648	0.046818
C	-0.256756	-1.436789	-1.916154
N	-0.042474	-2.502341	-2.365526
N	-0.012831	0.902503	-2.332956
H	-0.251222	0.623062	-3.277505
H	-0.507209	1.764079	-2.136711
F	-2.651741	0.0	0.0
