14

C	0.0	0.0	0.0
C	-0.45826	0.124723	-1.492457
Cl	1.762758	0.0	0.0
H	0.449439	0.231105	-2.098238
H	-0.375539	-0.913214	0.439364
N	-0.399857	1.088831	0.952567
O	-0.367885	2.241644	0.542342
O	-0.602013	0.739982	2.108858
C	-1.268008	1.310945	-1.809571
N	-1.814156	2.234542	-2.286227
N	-1.181413	-1.053561	-1.951689
H	-1.973304	-1.03792	-1.285508
H	-0.601802	-1.869157	-1.777999
F	-2.415178	0.0	0.0
