15

C	-0.134255	-0.366424	-1.489254
C	0.0	0.0	0.0
Br	-0.63678	1.545401	-2.581083
H	1.096828	0.0	0.0
H	-1.025385	-0.89982	-1.808622
N	1.036958	-0.916125	-1.860955
H	1.079209	-1.65823	-2.549489
H	1.878547	-0.64721	-1.312769
C	-0.4461	-1.208027	0.710467
N	-0.834789	-2.186153	1.239951
C	-0.636627	1.242727	0.639742
H	-0.199418	2.176307	0.272713
H	-1.715478	1.305063	0.458875
H	-0.475185	1.182476	1.716581
F	2.701942	0.0	0.0
