15

C	-0.476016	0.030672	-1.445645
C	0.0	0.0	0.0
Br	0.11178	-1.596914	-2.373795
H	1.094536	0.0	0.0
H	0.059233	0.839451	-1.948034
N	-1.899973	0.178996	-1.700135
H	-2.191312	1.068248	-1.307131
H	-2.391389	-0.552419	-1.193888
C	-0.588956	-1.108108	0.723066
N	-1.114501	-1.982064	1.311113
C	-0.328925	1.325771	0.69703
H	-1.400869	1.523978	0.817212
H	0.13786	1.32198	1.684148
H	0.132899	2.139232	0.130177
F	2.554804	0.0	0.0
