17

C	0.0	0.0	0.0
C	-0.424343	-0.034284	-1.492843
F	1.367789	0.0	0.0
H	0.28965	0.638722	-1.979891
N	-0.320794	1.407185	0.523163
O	-0.675513	1.529106	1.689511
O	-0.093615	2.336636	-0.250413
C	-0.594003	-1.039044	0.891583
H	-1.68491	-0.906214	0.873951
H	-0.21479	-0.925863	1.907287
H	-0.331978	-2.02568	0.50595
N	-1.762038	0.353419	-1.852257
H	-1.79239	1.366718	-1.866907
H	-2.493271	0.073198	-1.129343
C	-0.111275	-1.387026	-1.995307
N	0.151634	-2.456872	-2.402494
H	-3.529932	0.0	0.0
