17

C	0.0	0.0	0.0
C	-0.477176	0.052581	-1.456847
F	1.3698	0.0	0.0
H	0.276315	0.671241	-1.96576
N	-0.299338	1.402846	0.563667
O	-1.014051	1.502892	1.551572
O	0.27505	2.323966	-0.005081
C	-0.599781	-1.058229	0.86594
H	-0.323738	-2.038023	0.471704
H	-1.690747	-0.941904	0.849362
H	-0.232934	-0.954841	1.887559
N	-1.765669	0.68344	-1.535342
H	-2.538622	0.302067	-0.875384
H	-2.122271	0.636773	-2.480963
C	-0.350811	-1.3108	-2.037056
N	-0.263616	-2.364497	-2.550672
H	-3.657458	0.0	0.0
