11

C	0.0	0.0	0.0
C	-0.500722	-0.264781	-1.413103
F	1.380517	0.0	0.0
H	-1.599641	-0.320538	-1.366481
H	-0.372099	0.965652	0.346901
H	-0.223166	0.586883	-2.041344
C	-0.400139	-1.050406	0.953808
N	-0.54012	-1.900508	1.750004
C	0.077716	-1.478975	-1.978142
N	0.541931	-2.443726	-2.459283
Br	-3.573558	0.0	0.0
