12
Coordinates from ORCA-job run
  C   0.97451354190718     -0.68535031732757     -0.52604526884029
  C   0.00217210495423      0.12255914542649      0.32226465498881
  Br  1.72256890070786     -2.18208689325800      0.45037920050564
  H   0.47247228008118      0.33045857056465      1.29333332140227
  H   1.81653301042670     -0.07362085339288     -0.85102878713646
  H   0.45947428299271     -1.08257028015441     -1.40064231527809
  N   -1.18812564507265     -0.64976714021046      0.58312828005041
  H   -1.76178587638152     -0.66191338790330     -0.25305508501945
  H   -1.72792468214538     -0.24354722441591      1.33600973467784
  N   -0.30124707545596      1.33363144612096     -0.45137330470284
  H   -0.99407269878367      1.87981861685994      0.04815819413333
  H   0.52542185676933      1.91338831769047     -0.55212862478116
