12
Coordinates from ORCA-job run
  C   0.91881715832096     -0.75715554145869     -0.52808219796834
  C   -0.12651268362136     -0.04325139017302      0.31774166353045
  Br  2.52770162371649     -1.14635839123712      0.47851361908489
  H   -0.23722316047724     -0.58305302188405      1.26838936588423
  H   0.54305693313372     -1.71232554969732     -0.89588369914172
  H   1.19933006508892     -0.13065190182350     -1.37470813946649
  N   -1.35415857899034     -0.02133315488799     -0.48828798080387
  H   -2.06764935985667      0.49822556819140      0.01056189591175
  H   -1.70869144157420     -0.96140739421748     -0.63048447181450
  N   0.32037672450287      1.29101531221403      0.63611816823307
  H   0.21235299749289      1.87812615708607     -0.18368035752699
  H   -0.22640027773605      1.68816930788767      1.38880213407752
