12
Coordinates from ORCA-job run
  C   1.06143577171858     -0.68868812560061     -0.29665458156840
  C   -0.16392097686984      0.20809725697853     -0.24061306039316
  Br  0.67789688983247     -2.40969502977497     -1.12919938222432
  H   -0.52217572780941      0.35760278830963     -1.26978480565877
  H   1.42057684095612     -0.89763149353433      0.71143723940446
  H   1.83799285096618     -0.21328307811201     -0.89030698503035
  N   0.28973491489036      1.49963961204470      0.24635252175210
  H   -0.37445852744925      2.22287234577569      0.00008098594728
  H   0.33418806126192      1.45229058495107      1.25878653403215
  N   -1.16075254781449     -0.37805589883696      0.64885413875016
  H   -1.38802850324670     -1.32129124391282      0.35433211406700
  H   -2.01348904643595      0.16814228171208      0.60671528092185
