12
Coordinates from ORCA-job run
  C   0.95215221235159     -0.83489954884882     -0.29293560459290
  C   -0.24508286105758      0.09958806286061     -0.24100900774367
  Br  2.50223177668564     -0.00131712280715     -1.13176359717259
  H   -0.48725716794106      0.39835209614646     -1.27153576548633
  H   0.70587868916482     -1.71550236150646     -0.88059370560331
  H   1.25182099280829     -1.11668119510716      0.71688145436857
  N   0.04790418398635      1.22324464075989      0.64240504871601
  H   -0.71046036902514      1.89419638000571      0.59721421853437
  H   0.89276734000470      1.69774671068363      0.34376343197239
  N   -1.36339709096193     -0.68642099260314      0.25079847918823
  H   -2.24085083030779     -0.24685191554041      0.00243874828289
  H   -1.30570687570789     -0.71145475404314      1.26333629953634
