12
Coordinates from ORCA-job run
  C   1.02444542269229     -0.58489397529551     -0.25561874927597
  C   -0.28432714710064      0.19525798296603     -0.22891982891047
  Br  0.83915978101433     -2.31137254501855     -1.15034941275671
  H   -0.63069454634317      0.31877510834117     -1.26697227841388
  H   1.35298521460316     -0.78759951115865      0.76428054228411
  H   1.79053736126560     -0.03971508008879     -0.80683776188321
  N   -0.11446626952755      1.52676923127776      0.32542380183134
  H   0.53154748305623      2.07651149550317     -0.22730908330026
  H   0.23565033716140      1.45061418560385      1.27391371542182
  N   -1.22792251151179     -0.48292221393489      0.63732965334179
  H   -2.08921970213096      0.04968661145721      0.65001807852544
  H   -1.42769542317890     -1.41111128965278      0.28604132313600
