12
Coordinates from ORCA-job run
  C   0.98598768450426     -0.69843353576932     -0.53801836381563
  C   -0.25675739673839      0.13590483341497     -0.27834600108802
  Br  1.76988105138911     -1.42166412433322      1.08828447524680
  H   -0.60395587162105      0.43489877761475     -1.28250521546431
  H   1.76610082231334     -0.10986459108024     -1.02323195729939
  H   0.71941672054959     -1.54957485662546     -1.16110573493044
  N   0.06729487642698      1.27539275781916      0.57467319982142
  H   0.84690735871114      1.80439132781858      0.19928631297129
  H   -0.73052675384779      1.89768200985048      0.62750583311511
  N   -1.30275076528570     -0.69173779115610      0.28076592495093
  H   -1.07445165973893     -0.87929103878140      1.25122202856019
  H   -2.18614606666257     -0.19670376877220      0.26146949793204
