12
Coordinates from ORCA-job run
  C   0.90349414257023     -0.81996100611043     -0.19961493258124
  C   -0.28197566709610      0.13325272842335     -0.34166470797318
  Br  2.55192801508351     -0.03281627689085     -0.86636860841793
  H   -0.40277295046119      0.36300593185101     -1.40475397122852
  H   1.07906969192632     -1.06697780273562      0.85035175335661
  H   0.72936327562092     -1.73147920622044     -0.76824992816443
  N   -0.15901712627396      1.40906539407795      0.35078574059816
  H   0.57841815568933      1.96709953293661     -0.06420979958648
  H   0.09079249079371      1.25224656870398      1.32226706992811
  N   -1.45153331375166     -0.61890686615505      0.07965458945182
  H   -2.26225245844444     -0.01916834641803     -0.02594906350386
  H   -1.37651425565667     -0.83536065146250      1.06875185812095
