12
Coordinates from ORCA-job run
  C   1.02270085283222     -0.66654416490837     -0.19569854317264
  C   -0.18986821951866      0.25183330341607     -0.33849729110792
  Br  0.68516526182538     -2.43439578017250     -0.93207190830143
  H   -0.41439016401329      0.34835731892935     -1.40518056683435
  H   1.27779657017383     -0.81146898442857      0.85701102225158
  H   1.87750180365060     -0.25410782018561     -0.72837400495223
  N   0.23856759413851      1.55558758052995      0.13876356528066
  H   -0.53997679525634      2.19675848604026      0.03449567479731
  H   0.44093476601957      1.50262132299011      1.13226039797853
  N   -1.41342524050648     -0.20492179206764      0.30694023159122
  H   -1.22528489611049     -0.44109863577530      1.27626956525277
  H   -1.76072153323486     -1.04262083436776     -0.14591814278348
