12
Coordinates from ORCA-job run
  C   0.88733520466414     -0.69850871762541     -0.52998487088902
  C   -0.27683399261003      0.25104670558187     -0.24054695841136
  Br  1.61838506917508     -1.52223270652577      1.07022910364796
  H   -0.62958078048125      0.56062353406159     -1.24190080516529
  H   1.71210208504733     -0.17662537350211     -1.02034462891505
  H   0.55260929123444     -1.51269068416150     -1.17393429587675
  N   0.17281312611628      1.35207539033442      0.58515357346643
  H   -0.61055322846165      1.97305078340049      0.74446172370710
  H   0.91642025406285      1.87065625961614      0.13481530363222
  N   -1.41836981117676     -0.32438725291122      0.43695635879350
  H   -1.11364773780616     -0.68456909867252      1.33456751226664
  H   -1.81167947976427     -1.08643883959597     -0.10147201625637
