12
Coordinates from ORCA-job run
  C   0.91013537923322     -0.66939765182937     -0.52907659949604
  C   -0.30509760912569      0.21442474823412     -0.24135237460582
  Br  1.84657947224179     -1.22894905655621      1.07828736590501
  H   -0.66578856496011      0.51386824296099     -1.24295839003060
  H   1.63293769965375     -0.12271308599960     -1.13595167691895
  H   0.62152492241727     -1.58015076199756     -1.05849863529234
  N   -0.04788402414271      1.43882488432265      0.48523034248251
  H   0.60714893274784      2.02582624420003     -0.01644800317795
  H   0.35268218862866      1.20189403812900      1.38617572810236
  N   -1.28211015144249     -0.52041906450199      0.53432568540340
  H   -2.08150717147693      0.07991730642974      0.69310796570377
  H   -1.58862107377461     -1.35312584339181      0.04715859192465
