12
Coordinates from ORCA-job run
  C   0.99830659740006     -0.76256513219186     -0.48790223630193
  C   -0.19903465782162      0.16546595837958     -0.39813536563468
  Br  1.63569019625891     -1.30587936826879      1.28055631258552
  H   -0.46048835041800      0.39682424887714     -1.43839021346899
  H   1.83426853330251     -0.25908514160109     -0.96805038650641
  H   0.72999495791322     -1.68007120105207     -1.00661013418330
  N   0.20637079870770      1.42444789925754      0.21309651613062
  H   0.46158697736564      1.27007732884079      1.18210766396598
  H   -0.56533543664186      2.08032199943974      0.19635576956947
  N   -1.33425725920699     -0.55804598295900      0.15935492563004
  H   -2.15996594484470      0.02832738274544      0.14057738889566
  H   -1.14713641201487     -0.79981799146743      1.12603975931802
