12
Coordinates from ORCA-job run
  C   0.96235775253790     -0.67350912949275     -0.47108212268575
  C   -0.31365064711718      0.15918984589285     -0.37106362614271
  Br  1.65183728941190     -1.18190590736816      1.28469710689185
  H   -0.56823712179993      0.40520439517415     -1.41083407438544
  H   1.76032804564666     -0.10926054668172     -0.95299414025035
  H   0.77234736389711     -1.60085880800106     -1.00973876132219
  N   -0.18810542436957      1.43122178717200      0.33095011112203
  H   0.45878064674504      2.04617921748108     -0.15102568452353
  H   0.17544659971110      1.27028080813487      1.26429635691531
  N   -1.38194444316937     -0.66413280173615      0.15221018684907
  H   -2.20249096002633     -0.07967574115385      0.26095776262021
  H   -1.12866910146733     -1.00373311942127      1.07362688491150
