13

C	0.0	0.0	0.0
C	-0.559348	0.024801	-1.419813
Cl	1.783069	0.0	0.0
H	-1.653725	0.078715	-1.262671
H	-0.347574	-0.924048	0.461812
C	-0.42093	1.159473	0.788868
N	-0.621753	2.107264	1.452698
N	-0.238887	-1.225317	-2.092715
H	-0.963765	-1.428966	-2.768892
H	0.649051	-1.159211	-2.574828
C	-0.116897	1.219985	-2.153275
N	0.230361	2.130445	-2.810636
Br	-3.621996	0.0	0.0
