17

C	-0.521971	0.030815	-1.451244
C	0.0	0.0	0.0
Cl	0.32093	1.244509	-2.411048
H	1.093779	0.0	0.0
N	-0.296151	-1.343074	-2.093072
O	0.843778	-1.619026	-2.426783
O	-1.277904	-2.084239	-2.139354
C	-1.9591	0.300212	-1.476037
N	-3.109536	0.538207	-1.44157
C	-0.487158	-1.236045	0.745428
H	-0.098435	-1.17518	1.764132
H	-1.580829	-1.287851	0.784154
H	-0.104687	-2.160126	0.308486
N	-0.42868	1.253483	0.605893
H	-1.184373	1.104214	1.261482
H	0.357544	1.669247	1.088119
Br	3.505352	0.0	0.0
