17

C	-0.515449	0.018533	-1.448536
C	0.0	0.0	0.0
Cl	0.192922	1.367808	-2.347455
H	1.098688	0.0	0.0
N	-0.106033	-1.29322	-2.133991
O	-0.969656	-2.169058	-2.172804
O	1.051523	-1.385477	-2.506311
C	-1.972226	0.121157	-1.502178
N	-3.14348	0.205029	-1.541289
C	-0.495888	-1.228551	0.746237
H	-0.077687	-1.196843	1.755553
H	-0.145604	-2.15325	0.28758
H	-1.588068	-1.249362	0.810103
N	-0.523702	1.224018	0.62017
H	0.180629	1.947647	0.519934
H	-0.623999	1.059255	1.614826
Br	3.571225	0.0	0.0
