17

C	-0.516588	0.038051	-1.447123
C	0.0	0.0	0.0
Cl	0.192794	1.392861	-2.328209
H	1.098561	0.0	0.0
N	-0.124855	-1.271918	-2.159829
O	-0.957701	-2.174648	-2.085582
O	0.981867	-1.338435	-2.667887
C	-1.971345	0.146519	-1.497764
N	-3.141815	0.236008	-1.526531
C	-0.502234	-1.222337	0.748938
H	-1.594714	-1.238692	0.81128
H	-0.085892	-1.184274	1.759209
H	-0.156136	-2.150858	0.296601
N	-0.512425	1.227582	0.62159
H	-0.650306	1.054013	1.610217
H	0.21317	1.935464	0.550118
Br	3.524333	0.0	0.0
