17

C	-0.467868	0.014731	-1.465711
C	0.0	0.0	0.0
Cl	0.235421	1.388633	-2.331958
H	1.098692	0.0	0.0
N	0.01364	-1.276997	-2.143072
O	-0.83132	-2.158878	-2.289893
O	1.20205	-1.344976	-2.407894
C	-1.922354	0.075993	-1.580169
N	-3.093415	0.13597	-1.65222
C	-0.511151	-1.234888	0.721338
H	-0.13403	-1.206925	1.747074
H	-0.1322	-2.152247	0.270202
H	-1.604839	-1.267041	0.743871
N	-0.540884	1.215508	0.611981
H	-0.612405	1.060888	1.610097
H	0.14065	1.95591	0.484056
Br	3.525449	0.0	0.0
