17

C	-0.535752	-0.038191	-1.437751
C	0.0	0.0	0.0
Cl	-2.318511	-0.11728	-1.456206
H	1.094115	0.0	0.0
N	-0.095162	1.250529	-2.158967
O	-0.898615	2.158263	-2.284053
O	1.076692	1.237693	-2.508289
C	-0.02813	-1.167692	-2.208188
N	0.358804	-2.102936	-2.805766
C	-0.417778	-1.245044	0.774164
H	0.113618	-1.233812	1.728048
H	-1.494771	-1.264571	0.96462
H	-0.133457	-2.161024	0.250087
N	-0.413076	1.256341	0.599874
H	-1.202154	1.135871	1.221138
H	0.368363	1.639177	1.116488
Br	3.479348	0.0	0.0
