17

C	-0.447706	0.031022	-1.478174
C	0.0	0.0	0.0
Cl	0.402425	-1.178664	-2.433283
H	1.094599	0.0	0.0
N	-1.959083	-0.270701	-1.50683
O	-2.687328	0.68082	-1.239339
O	-2.319928	-1.426962	-1.680489
C	-0.265591	1.34635	-2.082816
N	-0.100881	2.374916	-2.625526
C	-0.464999	-1.266057	0.707315
H	-1.546146	-1.253109	0.887998
H	0.049878	-1.314414	1.668687
H	-0.217806	-2.167717	0.145504
N	-0.430471	1.230017	0.637191
H	-1.237336	1.09335	1.230695
H	0.33555	1.60781	1.179212
Br	3.471537	0.0	0.0
