17

C	-0.431671	0.02129	-1.49801
C	0.0	0.0	0.0
Cl	0.354629	1.35053	-2.359142
H	1.09478	0.0	0.0
N	-0.026757	-1.296379	-2.164143
O	-0.931223	-2.117107	-2.32625
O	1.159087	-1.447656	-2.405333
C	-1.879894	0.165279	-1.622194
N	-3.043343	0.335152	-1.617955
C	-0.505879	-1.260268	0.682067
H	-1.597755	-1.341877	0.648441
H	-0.190654	-1.200847	1.724098
H	-0.068143	-2.160102	0.247673
N	-0.450464	1.174779	0.709062
H	0.053903	1.994984	0.399407
H	-1.447918	1.32554	0.60705
Br	3.559276	0.0	0.0
