14
Coordinates from ORCA-job run
  C   -0.99684394540100      0.26473256091183     -0.00593649809177
  C   0.47913549349797      0.21070390341798     -0.39907644488039
  F   -1.65762770519579      1.03066520802345     -0.98040729492495
  H   0.53693664285207     -0.30444218453419     -1.36648758148986
  H   -1.12343183269112      0.80013041022756      0.93872704039247
  N   -1.53463958726202     -1.03891060379606      0.11402332273957
  H   -2.48666764892431     -1.00816481836871      0.45423832116691
  H   -1.52449883160314     -1.51189932984337     -0.78179657381011
  C   1.32187151863365     -0.53167655675227      0.64081852743438
  H   1.24908425665361     -0.03601969315753      1.61150893515655
  H   0.96072890810997     -1.55342423222491      0.74706953809984
  H   2.37135279033106     -0.54573606368112      0.34312677773283
  C   0.98518471903993      1.57097978067664     -0.59777515777399
  N   1.42041522195911      2.65406161910069     -0.71903291175148
