14
Coordinates from ORCA-job run
  C   -0.95180194843193      0.01311520979672     -0.59151468664197
  C   0.55036438311050      0.29060593649501     -0.48751199668299
  F   -1.06720073149391     -1.20377454780765     -1.30037935085465
  H   0.94912350607007      0.21414171614992     -1.50455329064890
  H   -1.43627886454835      0.76765851404172     -1.21492404442810
  N   -1.58155269997583     -0.02587796346397      0.66949545594243
  H   -1.25554118773929     -0.80471093452861      1.22573953634369
  H   -2.58672794870178     -0.08251409943332      0.57962489433594
  C   1.27770874966304     -0.71294363303085      0.41155043697303
  H   1.04244710359614     -1.72933395704217      0.09257433373074
  H   2.35656724808429     -0.56910776497398      0.34096424890923
  H   0.99337049868150     -0.58110528914890      1.45659683111454
  C   0.76135326986812      1.66310085258092     -0.02510971728057
  N   0.94716862181741      2.76074596036517      0.34644734918758
