14
Coordinates from ORCA-job run
  C   -0.92816363867666      0.04160744761473     -0.62710253142882
  C   0.57642540383748      0.27479691328816     -0.46454493052220
  F   -1.05197265027730     -1.17043484543504     -1.34242753664382
  H   1.01177280460147      0.18797973454258     -1.46570135172152
  H   -1.36585651971115      0.81110250223222     -1.26659239446293
  N   -1.60677152305358      0.02001383592898      0.60880967021179
  H   -2.60903550653051     -0.00449276462524      0.48072191660228
  H   -1.32632320973849     -0.76919012851732      1.17522195863135
  C   1.23851113342652     -0.75068608550349      0.45972466712716
  H   0.91663856696423     -0.61326250468505      1.49314183433963
  H   0.98714174554808     -1.75924897687044      0.12808568799166
  H   2.32302422036867     -0.63797294003917      0.43266041638212
  C   0.81021109972028      1.63993419337572      0.00806647644285
  N   1.02339807352094      2.73185361869338      0.38193611705046
