14
Coordinates from ORCA-job run
  C   -0.98682226559518      0.27830634470313     -0.19339778218649
  C   0.51971809296206      0.23817451934690     -0.43477396070333
  F   -1.58019173822565      0.91263155570002     -1.26595511512913
  H   0.65190059344634     -0.24153213279431     -1.41005751799601
  H   -1.21399453223863      0.88995387817298      0.69227906332290
  N   -1.51955592729776     -1.06363094075016     -0.15263376419351
  H   -2.51155721778051     -1.01055213017651     -0.35451597342900
  H   -1.41911451776542     -1.45107877633364      0.77777556351681
  C   1.24908565462760     -0.56363657495364      0.64571757016800
  H   1.04341104286511     -0.15564543992019      1.63899189576792
  H   2.32729698244148     -0.52951752728020      0.48658533087035
  H   0.93192147198694     -1.60627101561144      0.60840152624560
  C   1.04063978204890      1.60498544782965     -0.50890395779141
  N   1.46826257852470      2.69781279206742     -0.53051287846269
