14
Coordinates from ORCA-job run
  C   -1.05950986983762      0.27834551741026     -0.23131377326786
  C   0.46899579140883      0.27799533641222     -0.37887695778111
  F   -1.54806731145126      1.04736515648985     -1.28147191530264
  H   0.69033254750044     -0.19680440158716     -1.34338347697432
  H   -1.34809970957589      0.78372438347942      0.69529892242206
  N   -1.65312242813108     -1.00813946103166     -0.26758248076414
  H   -1.15336299611748     -1.68409679769215     -0.82542281968969
  H   -1.89618238930441     -1.37795116037365      0.63599346574401
  C   1.15473983499379     -0.48731163842372      0.75490833878062
  H   0.91222739763271     -0.03746324188177      1.72067364560300
  H   0.82984054318619     -1.52832996533601      0.76303641368345
  H   2.23850862985664     -0.46530955670009      0.63467422787364
  C   0.97073724307402      1.65249379899510     -0.43786444163674
  N   1.39596271676516      2.74648203023935     -0.44066914869028
