14
Coordinates from ORCA-job run
  C   -0.92895508462776     -0.40088920710077     -0.25674546985598
  C   0.45555047391249      0.26068240357787     -0.13019283295946
  F   -0.99781119634822     -1.35900821475128      0.74609447771637
  H   0.54828237755230      0.95281951476414     -0.97592777618106
  H   -0.97469202825622     -0.92922656355864     -1.21484499607092
  N   -2.05629396392094      0.45610981936079     -0.15168271745936
  H   -2.32104327564783      0.86388309323365     -1.03482906677998
  H   -1.94649439688788      1.16842594608949      0.55781020818706
  C   1.59764586692448     -0.75673388020231     -0.16607021816816
  H   1.53240532697220     -1.42615039732549      0.69048870119391
  H   2.56639600706414     -0.25514757341070     -0.15033307892789
  H   1.53276770509847     -1.35349114246640     -1.07920705718010
  C   0.49657861092445      1.06482345083861      1.09323421986138
  N   0.49466357724032      1.71290275095104      2.07220560662418
