14
Coordinates from ORCA-job run
  C   -0.92903556162344     -0.41498960909439     -0.23275310064559
  C   0.45676625587298      0.25104976145451     -0.14736771638753
  F   -1.00525696735366     -1.29796456464392      0.83654030469485
  H   0.55522512410652      0.87842095763213     -1.04153576275636
  H   -0.97078785176627     -1.01175200026958     -1.14995060129162
  N   -2.05402674977191      0.45014132284359     -0.19606735036295
  H   -2.31734042433360      0.78978491868059     -1.10791259752634
  H   -1.94539001660277      1.21364237180740      0.45809763392378
  C   1.59626981824751     -0.76907258115338     -0.10258108802378
  H   1.53343838651173     -1.43190295790129     -0.96908003457643
  H   1.52554372081476     -1.37252666157736      0.80124299222426
  H   2.56625086920658     -0.26991327494118     -0.11991710470877
  C   0.49388255752144      1.14052545010969      1.01537449435022
  N   0.49346083917015      1.84455686705320      1.95490993108628
