14
Coordinates from ORCA-job run
  C   -0.91616326415733     -0.17255005842490     -0.61341404124083
  C   0.54764284366315      0.26657613109138     -0.48281443768642
  F   -0.92282538642811     -1.42113210860531     -1.21711064342547
  H   0.95353463652405      0.29763767452211     -1.49978649435287
  H   -1.44102220559832      0.48873375337530     -1.31672924609409
  N   -1.53168300885245     -0.30392462288863      0.67111289266340
  H   -1.41289172147627      0.53994090557152      1.21792582453296
  H   -2.52194693662142     -0.48648204365056      0.57026847640569
  C   1.37171092852900     -0.70201843666345      0.36941474156411
  H   1.29135706140109     -1.70370524231699     -0.05215494799909
  H   2.42072891022814     -0.40183588293547      0.37464655622031
  H   1.00213466008582     -0.72917309916156      1.39309375438520
  C   0.58459494709830      1.62582083055216      0.05903067117787
  N   0.57382853560435      2.70311219953440      0.52651689384922
