14
Coordinates from ORCA-job run
  C   -0.95307707117196     -0.10318292048663     -0.67685113940612
  C   0.53383783447516      0.25726261787409     -0.48137377607446
  F   -0.94393143638601     -1.32554634697108     -1.34322597038570
  H   0.98675927579005      0.30160064923597     -1.47797804328657
  H   -1.41919035090418      0.62427220381105     -1.34684824233277
  N   -1.74614993135369     -0.20956985151647      0.49430160151037
  H   -2.18694181940800      0.66180473984319      0.74452950485851
  H   -1.25705336778795     -0.60091167844799      1.28535147262728
  C   1.29243853915951     -0.77079119558068      0.36206066362133
  H   1.16662602690610     -1.76232740394226     -0.07241916789958
  H   2.35593719827096     -0.52977711734479      0.38611577011977
  H   0.93684948518843     -0.78509082306090      1.39412854650158
  C   0.60728060475877      1.59203783811917      0.11395694889475
  N   0.62661501246279      2.65121928846734      0.62025183125158
