14

C	-0.49085	-0.00994	-1.432913
C	0.0	0.0	0.0
F	-1.892981	0.05928	-1.456982
H	1.094107	0.0	0.0
H	-0.335978	0.948157	0.432732
C	-0.002669	1.148814	-2.200228
N	0.377906	2.069088	-2.821167
C	-0.122497	-1.250358	-2.143413
N	0.160355	-2.231992	-2.722265
C	-0.523032	-1.189114	0.795264
H	-0.122416	-2.125316	0.400118
H	-1.614428	-1.240247	0.791753
H	-0.180014	-1.102197	1.827956
Br	3.535458	0.0	0.0
