14

C	-0.465367	0.012274	-1.447414
C	0.0	0.0	0.0
F	0.001503	1.142859	-2.094999
H	1.094153	0.0	0.0
H	-0.333271	-0.941834	0.449086
C	0.000183	-1.175704	-2.189743
N	0.348478	-2.112254	-2.806095
C	-1.945768	0.045791	-1.533495
N	-3.119363	0.074513	-1.565116
C	-0.517626	1.202808	0.778064
H	-0.211415	2.128584	0.288806
H	-0.068325	1.196284	1.772489
H	-1.606278	1.201699	0.887251
Br	3.559099	0.0	0.0
