14

C	-0.471655	-0.011567	-1.444188
C	0.0	0.0	0.0
F	0.015659	1.094052	-2.114995
H	1.093877	0.0	0.0
H	-0.342012	0.948749	0.426243
C	-0.038795	-1.225738	-2.165977
N	0.288925	-2.180859	-2.765105
C	-1.951593	0.050492	-1.51703
N	-3.124607	0.108343	-1.528998
C	-0.521881	-1.191128	0.793667
H	-0.157056	-2.129272	0.368803
H	-0.136844	-1.130008	1.812859
H	-1.614707	-1.224709	0.838857
Br	3.563039	0.0	0.0
