14

C	-0.471706	-0.003385	-1.440452
C	0.0	0.0	0.0
F	-1.871302	0.080374	-1.488996
H	1.094081	0.0	0.0
H	-0.337091	0.948039	0.431859
C	0.041394	1.157433	-2.191407
N	0.372907	2.110304	-2.791566
C	-0.106828	-1.246779	-2.147022
N	0.1225	-2.249338	-2.713048
C	-0.529107	-1.191753	0.786172
H	-0.1267	-2.126793	0.389856
H	-1.620436	-1.241882	0.775747
H	-0.192856	-1.109178	1.821202
Br	3.535542	0.0	0.0
