15
Coordinates from ORCA-job run
  C   -0.11480389894877      0.05754633470224      0.17515923323369
  C   1.21788646228900     -0.05422362698345     -0.57764178635520
  Cl  0.13401443177693     -0.63551316383029      1.81972697626390
  H   2.00298306632708      0.45280262585055     -0.01001192097898
  H   1.11958238865128      0.45890304979408     -1.54087281178899
  C   -0.48430520111183      1.52403849491814      0.33465551865371
  H   -0.65061410218587      1.97453030662995     -0.64853574271231
  H   -1.40038688875143      1.62219104687895      0.91935191597810
  H   0.30847243398939      2.07435955953531      0.84548036709902
  C   -1.21663620408330     -0.73062747735631     -0.51193568825501
  H   -2.15229860893105     -0.62910871937151      0.04056414762813
  H   -0.96482025547318     -1.79028163656730     -0.57286058385465
  H   -1.36757579121280     -0.34682789301643     -1.52584794861789
  C   1.62693281771832     -1.43445243210632     -0.82702798494890
  N   1.94156934994624     -2.54433646907760     -1.04120369134461
