17

C	0.0	0.0	0.0
C	-0.402464	0.086782	-1.529532
Cl	1.741167	0.0	0.0
H	0.084748	0.971091	-1.956947
N	-0.357387	1.245141	0.826482
O	-0.804296	1.114636	1.958057
O	-0.101447	2.307883	0.264976
N	-0.385703	-1.45596	0.791646
O	-1.276831	-2.203774	0.411061
O	0.322175	-1.654355	1.78052
N	-2.00766	0.35805	-1.945187
O	-2.540948	-0.591878	-2.516904
O	-2.56301	1.447451	-1.764107
N	-0.016289	-1.151483	-2.131945
H	0.592247	-1.000808	-2.926424
H	-0.870806	-1.625907	-2.428082
F	-1.992577	0.0	0.0
