17

C	0.0	0.0	0.0
C	-0.432822	-0.041745	-1.541348
Cl	1.810914	0.0	0.0
H	-0.103664	0.906523	-1.979955
N	-0.190099	1.320303	0.68224
O	-0.228603	2.299433	-0.064657
O	-0.059064	1.379372	1.900883
N	-0.194778	-1.269464	0.792293
O	-0.095317	-2.315335	0.162677
O	-0.229451	-1.189171	2.017635
N	-1.989115	-0.143223	-1.871343
O	-2.645255	-1.100523	-1.554729
O	-2.327171	0.644615	-2.808078
N	-0.028862	-1.213413	-2.267655
H	-0.439042	-1.126948	-3.191237
H	0.9727	-1.212196	-2.339153
F	-1.766488	0.0	0.0
