15

C	0.0	0.0	0.0
C	-0.501902	-0.391666	-1.373635
F	1.400096	0.0	0.0
H	-1.592768	-0.308122	-1.332592
H	-0.242494	-1.451499	-1.522986
C	-0.359838	1.403238	0.301931
N	-0.585564	2.50798	0.625534
C	-0.501922	-0.924056	1.085894
H	-1.594242	-0.870417	1.106361
H	-0.181505	-1.945518	0.863524
H	-0.090462	-0.622787	2.051199
N	0.042396	0.503427	-2.387199
H	-0.551856	0.494594	-3.204508
H	0.970056	0.205547	-2.657116
Cl	-3.820234	0.0	0.0
