15

C	0.0	0.0	0.0
C	-0.490578	0.225897	-1.422736
F	1.388322	0.0	0.0
H	0.20115	-0.34405	-2.052359
H	-1.495688	-0.19346	-1.498852
C	-0.391849	1.093637	0.911432
N	-0.573074	1.97976	1.659206
C	-0.43659	-1.347256	0.541697
H	-0.137762	-2.120797	-0.172843
H	0.072829	-1.535435	1.489811
H	-1.518731	-1.358471	0.669648
N	-0.41359	1.641912	-1.783281
H	-0.426051	1.724672	-2.792751
H	-1.266253	2.07719	-1.445708
Cl	-3.646231	0.0	0.0
