15

C	0.0	0.0	0.0
C	-0.442784	-0.216603	-1.43806
F	1.399996	0.0	0.0
H	-0.140599	0.667291	-2.019074
H	-1.533887	-0.277247	-1.431626
C	-0.382299	1.344011	0.476192
N	-0.576457	2.424488	0.891939
C	-0.450939	-1.083652	0.951766
H	-0.106954	-2.036807	0.549362
H	-1.539439	-1.070606	1.026183
H	0.003644	-0.910967	1.930603
N	0.149054	-1.461562	-1.927316
H	-0.373814	-1.794316	-2.725139
H	1.102903	-1.293857	-2.218387
Cl	-3.6926	0.0	0.0
