15

C	0.0	0.0	0.0
C	-0.357337	-0.116882	-1.501902
F	1.394046	0.0	0.0
H	0.167427	0.708054	-1.997326
H	0.13351	-1.04227	-1.828301
C	-0.397185	1.317686	0.532086
N	-0.64177	2.3898	0.943896
C	-0.552846	-1.121831	0.844114
H	-1.645124	-1.052842	0.861763
H	-0.170162	-1.055257	1.864737
H	-0.250613	-2.079223	0.41027
N	-1.733942	-0.128885	-1.911544
H	-2.254199	-0.882608	-1.479866
H	-2.231293	0.697124	-1.600386
Cl	-4.309473	0.0	0.0
