13
Coordinates from ORCA-job run
  C   0.55284361201239     -0.08309198668353      0.17469285723033
  C   -0.72401736119601      0.02678385127956     -0.32388700127674
  N   1.68819215373813     -0.32603245807544     -0.77595779357215
  O   1.42134450408641     -0.62887262718649     -1.93033664709324
  O   2.81381710260034     -0.19747257161923     -0.29962475521572
  N   0.97146949933682     -0.03679520526359      1.43925109480745
  H   0.31116881223534      0.24916841458438      2.14689076467675
  H   1.96595146029566      0.03249702916414      1.59444369574841
  C   -1.10743659137489     -0.06025269023554     -1.68685214864804
  N   -1.50955675619887     -0.10801037707108     -2.79240942796678
  N   -1.83694157322697      0.30950965254696      0.58214673129913
  O   -1.59429157494956      0.41554475130051      1.78985068578493
  O   -2.95154328735879      0.40802421725935      0.08179194422567
