13
Coordinates from ORCA-job run
  C   0.55646511258212     -0.01697243559555      0.16864162895726
  C   -0.72079504376426      0.09399085056110     -0.32185751149798
  N   1.65870480059468     -0.34923153893187     -0.78305567727257
  O   1.52555768645878     -0.01627918276965     -1.95385339207150
  O   2.62949257587500     -0.91861720178802     -0.28925629067837
  N   1.01356985293250      0.16302729726677      1.40905814022319
  H   0.33333796449844      0.26905121107979      2.14685018911173
  H   1.94240761810295     -0.17909516413228      1.60524605597151
  C   -1.10704104859920     -0.13090579404238     -1.66817549277905
  N   -1.48779057993106     -0.33068071405529     -2.76428094534024
  N   -1.82825429366059      0.39341780552673      0.58259478871862
  O   -1.57043596242539      0.55228259846824      1.78103283458034
  O   -2.94621868266398      0.47201226841241      0.08805567207706
