13
Coordinates from ORCA-job run
  C   0.55294345755256     -0.05601038449504      0.17231259588177
  C   -0.77617343726115     -0.02412617514369     -0.16826996404846
  N   0.91441482559859     -0.24976836392876      1.61020911192865
  O   1.99853614552571      0.21880265815099      1.94852943269061
  O   0.12762785212143     -0.85928589637953      2.32237461560445
  N   1.63738168621537      0.02959318515214     -0.59948142760567
  H   2.51440383085730      0.21115497253923     -0.13469980569292
  H   1.50607334864003      0.26264368888923     -1.57170690422984
  C   -1.86335300045650     -0.13037003366559      0.73597000139981
  N   -2.80516832683301     -0.19283827307058      1.43969192058869
  N   -1.16754712932553      0.20436026165899     -1.55771292025882
  O   -2.36710072601286      0.29172298998992     -1.79075045756861
  O   -0.27203852662195      0.29212137030270     -2.40446619868965
