13
Coordinates from ORCA-job run
  C   0.54657682272452     -0.00324507334986      0.20094026489726
  C   -0.69997444554966      0.07741808120672     -0.36842201248871
  N   1.70407023352977     -0.37060166293379     -0.66805282540477
  O   2.64584222078169     -0.91138044265413     -0.09260485086655
  O   1.63923867670503     -0.09177594010411     -1.85848127936674
  N   0.92906244013298      0.23591166204274      1.45671444481977
  H   0.20540776921423      0.37512916060958      2.14617240715609
  H   1.84269360590547     -0.09890178143426      1.72453698381898
  C   -1.00521441701344     -0.20297936223195     -1.72496516278629
  N   -1.31997707447603     -0.44214040031586     -2.83399423636353
  N   -1.86188033825530      0.39406609862197      0.45864590982811
  O   -2.95544455354240      0.39552055154508     -0.09358767394800
  O   -1.67140094015684      0.64397910899787      1.65409803070438
