13
Coordinates from ORCA-job run
  C   0.56520534478355     -0.03634152938994      0.13142475171239
  C   -0.76332585657224     -0.07124129880542     -0.21175155082683
  N   1.56622690661617     -0.55841896887960     -0.84476846884396
  O   1.21147482451304     -1.44501115794558     -1.61129295659441
  O   2.68525966346891     -0.05519279622426     -0.77374377288194
  N   1.14590221695168      0.37206600229124      1.26168953559657
  H   0.56372819906039      0.84294431424716      1.93827272843698
  H   2.13952542661613      0.54336422569225      1.22421055781062
  C   -1.27668552573247     -0.52591152640407     -1.45352422397739
  N   -1.74440286646728     -0.86506454695227     -2.47914365900258
  N   -1.76964890291848      0.46352847162415      0.70159462696937
  O   -2.93196660550902      0.46018545044207      0.31390467513611
  O   -1.39129282481037      0.87509336030428      1.80412775646505
