13
Coordinates from ORCA-job run
  C   0.55091348188922      0.06264247364452      0.18351035093855
  C   -0.70606717338779     -0.04936605223756     -0.35947926021863
  N   1.72577051587517     -0.41555199484192     -0.61120615041749
  O   1.58907862443781     -0.54254445049302     -1.82133826305248
  O   2.74900079200377     -0.63155239183877      0.03397092272039
  N   0.92786486803232      0.59242106584956      1.34808349986397
  H   0.20469364396162      0.82905921071458      2.01065280356889
  H   1.87062134165849      0.39617444444488      1.64907102377412
  C   -1.02411913772761     -0.63582284654497     -1.61097415726224
  N   -1.36061164357915     -1.12339250638233     -2.62875342415120
  N   -1.87264617079345      0.39023590657806      0.40520655963372
  O   -2.96820514159727      0.26082995049618     -0.12776560346804
  O   -1.68529400077314      0.86686719061078      1.53002169807045
