13
Coordinates from ORCA-job run
  C   0.54385472749484      0.06998741409659      0.20347437907012
  C   -0.69256979313279     -0.07348196509451     -0.37894963272104
  N   1.76411930770861     -0.30059081297248     -0.58285436550399
  O   2.79841559999413     -0.42195801285725      0.06888849309407
  O   1.64926628303964     -0.44619114234742     -1.79310947420511
  N   0.86035381460701      0.53402465692672      1.41245866850870
  H   0.11074967937845      0.68848863032304      2.06984716067881
  H   1.81023751321136      0.38662007504585      1.71832916615781
  C   -0.95526194841448     -0.56209775123336     -1.68413906383855
  N   -1.26087441162279     -0.97777999450677     -2.74297631379157
  N   -1.89652909746501      0.27748102857700      0.37519770883284
  O   -2.96789251480998      0.18387159133965     -0.21184436961184
  O   -1.76286915998899      0.64362628270293      1.54767764332975
