13
Coordinates from ORCA-job run
  C   0.55341327488535      0.02785633325912      0.19082423979308
  C   -0.75859892084179     -0.13576235453301     -0.18626527766673
  N   0.98518542870584     -0.43758429421880      1.55017656903900
  O   2.14462709422882     -0.16629868372693      1.85454068146844
  O   0.17563427004429     -1.03280171653934      2.24704805670891
  N   1.57696897744169      0.49590498090300     -0.52756898244940
  H   2.44095307548274      0.65551879328517     -0.03224091436785
  H   1.35697528023534      1.00569532712045     -1.37107301317196
  C   -1.81142479998226     -0.62723847129050      0.62766637057171
  N   -2.75266110354608     -0.98995655779048      1.23377619009516
  N   -1.19190829160377      0.29345467782153     -1.51621752178357
  O   -2.32929082449389     -0.00858179418032     -1.85249506942050
  O   -0.38887346055630      0.91979375989010     -2.21817132881629
