13
Coordinates from ORCA-job run
  C   0.53986810786533      0.10735815275855      0.12658466979212
  C   -0.75240222701987      0.14062517762612     -0.29362053718472
  N   1.17899363392114     -1.15350897054813      0.56526841726837
  O   1.80193952451445     -1.08819461845603      1.62193858625897
  O   1.08992084692149     -2.11226567034247     -0.18932915717915
  N   1.42042697530390      1.12744911022173      0.09464613344241
  H   1.05963034789752      2.06076852691757     -0.03984320051911
  H   2.23276947596454      1.03865003645549      0.68627356888364
  C   -1.28393277779057      1.34151480383833     -0.82280719372158
  N   -1.62238923606721      2.39406020210450     -1.22948840288427
  N   -1.65393447969636     -1.00479670034229     -0.19890373218221
  O   -1.46079508847822     -1.80120720966028      0.71360954335717
  O   -2.55009510333613     -1.05045284057310     -1.03632869533163
