13
Coordinates from ORCA-job run
  C   0.53736526139558      0.11108129140273      0.13545989018371
  C   -0.74741632802887      0.13344957710214     -0.30895676741177
  N   1.17389043718522     -1.14009307203270      0.60799354567987
  O   1.13130838342759     -2.10380051645241     -0.14317836870155
  O   1.74441275654736     -1.05921593957072      1.69259881035750
  N   1.41544521834095      1.13297521810684      0.09872416559691
  H   2.21824538420219      1.06229155526980      0.70550615121672
  H   1.05475598734143      2.06075774436662     -0.06831608051770
  C   -1.27657877672957      1.32559375247306     -0.86031919236761
  N   -1.61863723559036      2.37172054119942     -1.27966104589231
  N   -1.64401437566016     -1.01631458361487     -0.21771782769600
  O   -2.54037411583021     -1.06331815968289     -1.05495912788713
  O   -1.44840259660113     -1.81412740856703      0.69282584743937
