13
Coordinates from ORCA-job run
  C   0.53653503845149      0.10491480165649      0.14502281713292
  C   -0.78434179874507      0.16344296645964     -0.17167278795655
  N   1.21410039120055     -1.18603555726323      0.39921302493369
  O   2.29656313025736     -1.33146677565743     -0.16325938747456
  O   0.67527344201062     -1.95249408758976      1.18532267755086
  N   1.35251262805474      1.15169699051727      0.38081299474605
  H   2.34313905765769      0.96983103125716      0.32249230519868
  H   1.04423531288283      2.06921675194411      0.09387186997957
  C   -1.41824461490743      1.42436349331468     -0.28919438169344
  N   -1.83729474233661      2.52173067862929     -0.37792030381097
  N   -1.59765624517051     -1.02089358212730     -0.43484813057451
  O   -2.78979312464728     -0.92271530595736     -0.16046563695738
  O   -1.03602847470836     -1.99259140518356     -0.92937506107436
