13
Coordinates from ORCA-job run
  C   0.57066033009320      0.12329770197058      0.09117734181925
  C   -0.77602641390577      0.12453408079890     -0.10878343959216
  N   1.35102387602974     -1.13314610208806      0.01286334675453
  O   0.73076374889535     -2.17339286313831     -0.17736434806175
  O   2.56468826244588     -1.02749476009161      0.17776396307897
  N   1.33536638105812      1.20758303505315      0.34054769373457
  H   0.87686772336415      2.08001218396682      0.55339357406969
  H   2.24444107895878      1.04093210279770      0.74239603207818
  C   -1.50583079496334      1.31908463187925      0.09189939808782
  N   -2.04450828714334      2.35114532033686      0.27734744666772
  N   -1.56946934578699     -1.03341472452912     -0.55560031479767
  O   -2.28956884335773     -1.54316743030974      0.29544510142721
  O   -1.48640771568802     -1.33497317664643     -1.73908579526635
