13
Coordinates from ORCA-job run
  C   0.58087746948105      0.08503256660934      0.06646209045346
  C   -0.75268218909218      0.15676082775934     -0.19866546409780
  N   1.19476148110410     -1.17399042144270      0.54768171706419
  O   0.44663850251559     -2.12039219401323      0.76717430359852
  O   2.41199498605524     -1.15175415010134      0.71790917836754
  N   1.47543513668020      1.08349011825501     -0.09424889493669
  H   1.12794929107024      2.01425614417055     -0.26828501905218
  H   2.34917699369153      0.99327273375699      0.40029051486490
  C   -1.32755800227334      1.40266824642509     -0.54082622846822
  N   -1.73325727525494      2.47338686695012     -0.82128738865505
  N   -1.68086654527704     -0.98641469487523     -0.18808936563979
  O   -1.62157122195012     -1.75594806885570     -1.13797394407249
  O   -2.46989862675034     -1.01836797463822      0.74985850057362
