13
Coordinates from ORCA-job run
  C   0.57916011503817     -0.04363161734200      0.09879892202277
  C   -0.73503483058538      0.30704909789509     -0.07264073381520
  N   1.00569391450926     -0.32068390360261      1.49400585134553
  O   0.76235417384731      0.53831109360059      2.33434092784915
  O   1.57534231320465     -1.39257711063357      1.67233353412132
  N   1.57925478224501     -0.18411263795258     -0.77920907973785
  H   1.31728057093188     -0.15945987598734     -1.75511923962510
  H   2.36280351128638     -0.73954473617038     -0.47079584501980
  C   -1.70115371198926      0.27767304266326      0.96427920980878
  N   -2.50294638542934      0.17237495697541      1.81627749519262
  N   -1.27594989921270      0.47830875756765     -1.41284475050657
  O   -2.48588375930421      0.63780214425236     -1.53072649650866
  O   -0.47992079454175      0.43049078873412     -2.35969979512701
