13
Coordinates from ORCA-job run
  C   0.55050154179328      0.05121329054666      0.18301954898372
  C   -0.70817906187594     -0.02877510490652     -0.36036473683972
  N   1.70324630610248     -0.49264063951832     -0.59668995715519
  O   2.68446075044361     -0.81801745838195      0.06836572733003
  O   1.59627072405135     -0.55285220908061     -1.81473911921879
  N   0.94767415076653      0.59459411114505      1.33490058979124
  H   1.87525311309114      0.35665121773764      1.65336613773830
  H   0.23340366033162      0.88865620385999      1.98425637945516
  C   -1.03427790951012     -0.62857281479626     -1.60382637057247
  N   -1.36913858310311     -1.12976826326608     -2.61527629136959
  N   -1.86100561193199      0.45875523493247      0.39305554435240
  O   -2.96468151961699      0.30609246891179     -0.11621376183285
  O   -1.65452756054187      0.99366396281613      1.48814630933776
