13
Coordinates from ORCA-job run
  C   0.56810760080526     -0.01747403977619      0.12595323152957
  C   -0.75971232879884     -0.10028291758747     -0.21189321299518
  N   1.58674293290239     -0.44237960063036     -0.87830494172336
  O   1.26518294121551     -1.29570773325086     -1.69546925659418
  O   2.68601415814618      0.09792440972793     -0.77705515886906
  N   1.13502385201370      0.36095058054379      1.27334475230865
  H   0.53774418277332      0.76917106725646      1.97684198324635
  H   2.11989929696339      0.57871630355723      1.24298444981296
  C   -1.26238956590944     -0.51718712622606     -1.47109975460976
  N   -1.73125673344862     -0.83309499292584     -2.50381760608355
  N   -1.78294665667387      0.35153195792255      0.72772274419860
  O   -2.94449868525467      0.33300928563163      0.33887858495417
  O   -1.41691099473427      0.71582280575720      1.85091418482478
