13
Coordinates from ORCA-job run
  C   0.56012239578972     -0.00382081408849      0.16642445378591
  C   -0.71956655668655      0.09290345096693     -0.31960476091112
  N   1.66727490219632     -0.27860802298525     -0.79551185243764
  O   2.64976721409294     -0.84645591978644     -0.32337912588865
  O   1.52615567823367      0.09511473634445     -1.95314243814293
  N   1.01460868738645      0.14750634646182      1.41209992551532
  H   1.94539655324452     -0.19455265738348      1.59952940101248
  H   0.33075913230451      0.22272828501937      2.15089092709055
  C   -1.10508414766523     -0.09316837458793     -1.67209333563495
  N   -1.49782327607178     -0.26812517731621     -2.76872944769445
  N   -1.83508561478420      0.31613924698179      0.59676132926928
  O   -1.57697846653448      0.48324338341588      1.79388814641620
  O   -2.96054650150591      0.32609551695755      0.11286677761999
