13
Coordinates from ORCA-job run
  C   0.53543170720764      0.15989705237162      0.15487870442511
  C   -0.77060290800369      0.15924369198643     -0.21274316501666
  N   1.14177162381893     -1.05579273387127      0.75365102604618
  O   2.32735113603866     -1.24361445093468      0.49453794917631
  O   0.42498082775236     -1.74431062609845      1.46916061746533
  N   1.39741353532271      1.19367558660584      0.10998524726577
  H   2.37445606569944      0.97197205949459      0.21055050704274
  H   1.16666689823446      2.00401346112938     -0.44214611697493
  C   -1.36859371070931      1.31608947806550     -0.75519374219574
  N   -1.80485365392586      2.30056307782358     -1.23598306699703
  N   -1.59528026333431     -1.06144174254671     -0.18353401893016
  O   -1.15509996118316     -2.05088755287772     -0.75306899977727
  O   -2.67364129691787     -0.95140730114810      0.38990505847036
