13
Coordinates from ORCA-job run
  C   0.55535852079423      0.12681869375498      0.14654294720672
  C   -0.74589333502332      0.12981062540055     -0.25125724320550
  N   1.17848192022547     -1.09295356716877      0.71916871581166
  O   2.23600675538923     -0.92784492417526      1.32249314325802
  O   0.61015892988236     -2.15896080974761      0.51570218143090
  N   1.40461679630988      1.16640006927972      0.07031996638016
  H   2.38426493578585      1.00114810373334      0.23122048873050
  H   1.10724585334236      2.04041718700578     -0.33106154068912
  C   -1.25941010931963      1.22114680368581     -0.98850761738119
  N   -1.63278341750447      2.14737071238787     -1.61588652488057
  N   -1.69947741191120     -0.95770981501240      0.00270271497953
  O   -1.97166958620659     -1.19859686540166      1.17260763950998
  O   -2.16489985176416     -1.49804621374235     -0.99404487115109
