13
Coordinates from ORCA-job run
  C   0.53169774967794      0.11430916843040      0.15088447278275
  C   -0.74198813037468      0.12779183266186     -0.32542936521723
  N   1.18480277332720     -1.14007127704212      0.58458079193968
  O   1.20341008652900     -2.06208234449168     -0.21836513916122
  O   1.70658621759113     -1.10253566164086      1.69559883902357
  N   1.38268159829738      1.15848945691200      0.18933011534440
  H   2.17068176953532      1.07828310478907      0.81383290941888
  H   1.00545170816149      2.08544786239959      0.05578135134826
  C   -1.28518240100920      1.33628663081495     -0.82605144388884
  N   -1.63645767564742      2.39787732182641     -1.19650350121975
  N   -1.61323497279811     -1.04332147402946     -0.31254545499802
  O   -2.49789558174434     -1.06131164000865     -1.16340471384892
  O   -1.41055314154571     -1.88916298062149      0.55229113847645
