13
Coordinates from ORCA-job run
  C   0.55016034987108      0.13993197977961      0.13877416594888
  C   -0.75603128647426      0.11988472157774     -0.23560095883829
  N   1.16607559625530     -1.04389278566034      0.77118068084362
  O   2.39195012744747     -1.10867139612461      0.71804367522327
  O   0.41159037833694     -1.85912848318955      1.28926739019692
  N   1.38778968896833      1.19326895701083      0.06971664218225
  H   1.13203161229103      1.99703602326933     -0.48043750048716
  H   2.36870375159634      0.99859084197522      0.19105893467458
  C   -1.32597276223745      1.27191338480624     -0.82588773154728
  N   -1.70466536548775      2.27263076416349     -1.32432972412618
  N   -1.63996995996638     -1.04985354427617     -0.11960372601834
  O   -2.51649056653285     -0.97553782443886      0.73459495787564
  O   -1.46517156406778     -1.95617263889292     -0.92677680592791
