13
Coordinates from ORCA-job run
  C   0.54852997468238      0.09489622389200      0.09564383948123
  C   -0.77701254906756      0.17038790876003     -0.19715834109426
  N   1.24316681531728     -1.20518744218585      0.22075566097482
  O   1.15057557195978     -1.97737930796274     -0.72275476174209
  O   1.90577550057991     -1.34853432555775      1.24479303338618
  N   1.40634962803622      1.12986717114583      0.19694398650303
  H   2.26525284040325      0.95658698162242      0.69682263879598
  H   1.02028756043232      2.05960869975458      0.27504390289980
  C   -1.37329543760589      1.43811208921879     -0.40548228178729
  N   -1.76422089184730      2.54157364216887     -0.53617721399169
  N   -1.64733535482951     -0.99903775233344     -0.27409627358337
  O   -2.63658634859202     -0.88319462035333     -0.99147668026709
  O   -1.33948730946885     -1.97769926816941      0.39814249042474
