13
Coordinates from ORCA-job run
  C   0.49933616374014      0.13754529536354      0.21393842509944
  C   -0.72895848864185      0.09137594354223     -0.37172486802345
  N   1.09460775594149     -1.04589506847701      0.86767247149595
  O   1.29550610901367     -0.94777864285129      2.07248925134478
  O   1.39446856393110     -1.97213138920089      0.12522475298228
  N   1.29968683169320      1.21346472831840      0.28296010253644
  H   2.26085830339038      1.10466144783253      0.56191996121066
  H   1.04899716157860      2.05268714538145     -0.21791190341713
  C   -1.19521335340374      1.21785089206979     -1.09309192401466
  N   -1.47026354142295      2.21777158346513     -1.65156806901115
  N   -1.60573869832897     -1.06754311375011     -0.28385779262249
  O   -2.51421986648507     -1.11709763418543     -1.10778863125196
  O   -1.37806694100600     -1.88491118750833      0.60273822367128
