13
Coordinates from ORCA-job run
  C   0.55940670883595      0.11102575121722      0.13336668336902
  C   -0.76814363223713      0.19228755172134     -0.14025271063565
  N   1.17197621436596     -1.18438350265940      0.51820769660920
  O   2.38440148382603     -1.28116413644980      0.32948030932673
  O   0.43990832784905     -2.03434494591972      1.00575438902548
  N   1.42930041807478      1.13966677489736      0.21465004499714
  H   2.40586048616715      0.88508699949611      0.24007902212515
  H   1.18103199698230      2.01408152290817     -0.22291260898343
  C   -1.37315504074215      1.43915819784373     -0.42480048844727
  N   -1.80310216443520      2.49274147498199     -0.73266827270442
  N   -1.64541846833920     -0.98194917295983     -0.26648306152666
  O   -1.33657275342406     -1.82483808675799     -1.09849859779986
  O   -2.64549357692347     -0.96736842831919      0.44207759464456
