13
Coordinates from ORCA-job run
  C   0.55165834696539      0.09220190368980      0.13436028786214
  C   -0.78142720832420      0.15712163602488     -0.14150424662540
  N   1.23887825079248     -1.19491708480822      0.36934413139410
  O   1.30322004437707     -1.56891062326528      1.53207150533057
  O   1.72583217248928     -1.71349503028563     -0.62796339666551
  N   1.36722829818263      1.14808264355041      0.29156849587577
  H   1.02606240118141      2.06173460142067      0.01930699230313
  H   2.35995518036401      1.02199522894795      0.20044942211840
  C   -1.38228058367922      1.41277717669943     -0.40585790102738
  N   -1.77482022204656      2.49834047729235     -0.63422239063171
  N   -1.65253717408820     -1.01363130656323     -0.22079766588207
  O   -2.83625438254767     -0.77963231622107     -0.44249892350764
  O   -1.14651512366643     -2.12066730648205     -0.07425631054439
