13
Coordinates from ORCA-job run
  C   0.55368393217921      0.11994180664860      0.15684254295701
  C   -0.73075526028063      0.13853359624462     -0.29180939495839
  N   1.20118825524681     -1.15290105542615      0.54906162114723
  O   0.58400577708913     -2.19152094248660      0.34110195461690
  O   2.31304822889544     -1.05831240054285      1.06432549735644
  N   1.38929073667512      1.18133118087802      0.22577592814564
  H   2.20144825132747      1.05649892453810      0.81118543309060
  H   0.98178309355767      2.10324553411400      0.19000182283718
  C   -1.32360755985693      1.36840346577884     -0.65771290749444
  N   -1.73349788705873      2.43057457713457     -0.96288370446752
  N   -1.58828421714055     -1.05041138510953     -0.43520465661982
  O   -2.26656143674085     -1.34786695069634      0.54120632783570
  O   -1.58074191389316     -1.59651635107529     -1.53189046444653
