13
Coordinates from ORCA-job run
  C   0.55623738205498      0.08632867855122      0.05363847361342
  C   -0.78626767444537      0.18202092976722     -0.14710080325944
  N   1.19889671715401     -1.19297953052393      0.41851240547032
  O   2.05598674330969     -1.59069383283434     -0.36319824278021
  O   0.87794029403586     -1.68076874995765      1.49100008927521
  N   1.43625017116743      1.10445639864976      0.07201759241259
  H   1.13674090320433      1.99696444437684     -0.29323213162183
  H   2.40851081439106      0.87052770947253     -0.06047947651431
  C   -1.37915928300816      1.45208871639463     -0.36035048813258
  N   -1.77475920333256      2.54859956352636     -0.52755618173720
  N   -1.68129698192639     -0.97261529856267     -0.09961111830329
  O   -1.18585101871905     -2.07790875896669     -0.29384818728379
  O   -2.86522886388582     -0.72502026989329      0.11020806886112
