13
Coordinates from ORCA-job run
  C   0.56741770802069      0.10957227988484      0.04198676852212
  C   -0.77357438903322      0.17069049394783     -0.16667734004609
  N   1.20088531494011     -1.12664628731242      0.53774404926011
  O   2.37716191187473     -1.29748811576116      0.21910591840319
  O   0.53360087502070     -1.84431123777827      1.27560205630782
  N   1.44032466448952      1.13940681525550     -0.00724979070989
  H   2.41211927844264      0.86642312023357     -0.05092322109910
  H   1.17131325066472      1.97312535010259     -0.50564788656899
  C   -1.41021940042891      1.41989525954633     -0.37107234001926
  N   -1.91560408683870      2.47350980021380     -0.51389744639538
  N   -1.64163344967083     -1.00896131689677     -0.14366019416729
  O   -1.28466752954368     -1.97197069729313     -0.81713264781671
  O   -2.67912414793778     -0.90224546414269      0.50082207432946
