13
Coordinates from ORCA-job run
  C   0.56651418434273     -0.02081161778240      0.13353115464135
  C   -0.78949800944679      0.03672386722378     -0.09523022816769
  N   1.05420497953946     -0.04410159398725      1.53934350665281
  O   0.38209952458753     -0.64805277990703      2.36703025437523
  O   2.13403022981445      0.51206779570104      1.72912306371200
  N   1.56396354772928     -0.14071898824986     -0.73696454251807
  H   2.50301931172202      0.04109870616889     -0.40953794842710
  H   1.36128365540989     -0.01948457323568     -1.72030343792638
  C   -1.77354374998093      0.07087576157305      0.92458607165209
  N   -2.65710516512799      0.03411441992554      1.70089657542532
  N   -1.31136381757810      0.05531447071341     -1.45590971097634
  O   -0.50343736690506      0.04633005341665     -2.39276338521226
  O   -2.53016732410649      0.07664447843986     -1.58480137323097
