13
Coordinates from ORCA-job run
  C   0.54926686259312      0.08509686938683      0.07448727338632
  C   -0.78601312887878      0.17416958729478     -0.17539193193988
  N   1.22322662722500     -1.21717028462917      0.25927544516500
  O   1.11447561078601     -2.02748260836626     -0.65175740416947
  O   1.89669737592229     -1.32456137740706      1.27962431684000
  N   1.43271641216479      1.10331209528929      0.07642633840054
  H   1.07499011502683      2.04658874904480      0.07759591994758
  H   2.30045689780404      0.94804882817671      0.56657060749415
  C   -1.35360316224126      1.44143509706644     -0.45793720846162
  N   -1.70234482972158      2.54433871996146     -0.68228867889980
  N   -1.68286232195413     -0.97690023675824     -0.13872325811852
  O   -2.72026039579052     -0.86693419269552     -0.78399830125580
  O   -1.34574606293581     -1.93094124636406      0.55511688161150
