13
Coordinates from ORCA-job run
  C   0.54293466982183      0.09317767256635      0.13115574231997
  C   -0.78883723567314      0.17010223942319     -0.13460157310545
  N   1.19488221320710     -1.18656275415282      0.47838650204802
  O   0.74148693967220     -1.80716918022648      1.42785001404799
  O   2.18822842454814     -1.45802649080027     -0.19242195761115
  N   1.40107788149752      1.13203226997693      0.21555002420395
  H   2.37742090816076      0.91843745121150      0.07371380186381
  H   1.08463345405938      2.01451861866459     -0.16358602057209
  C   -1.36968429740052      1.43726981582234     -0.39220111970070
  N   -1.71392726562167      2.53713177324132     -0.63394077240299
  N   -1.65940788037204     -0.99612963679032     -0.23225292991474
  O   -1.14070236424045     -2.07021631510620     -0.51790758694011
  O   -2.85710544765910     -0.78456546383012     -0.05774412423651
