13
Coordinates from ORCA-job run
  C   0.55182275520227      0.08365254109548      0.06984991044789
  C   -0.79216727789130      0.17910625083721     -0.11658730156462
  N   1.20376670940335     -1.19494575467967      0.41660566881218
  O   2.02128573849352     -1.60421288006690     -0.40196124208636
  O   0.92808680409919     -1.67305836526931      1.50761118599296
  N   1.43000989520222      1.10527805270863      0.06935788259089
  H   1.12089590979646      2.00079115952848     -0.28028009043779
  H   2.40192094544433      0.87901473987627     -0.07497626179040
  C   -1.37192092020347      1.44930637980918     -0.36098970649272
  N   -1.73945501858302      2.54928149714378     -0.56509191915131
  N   -1.68742195277974     -0.97134546486094     -0.08822009943624
  O   -1.18738353269481     -2.08043413001800     -0.24615193955315
  O   -2.87844005548900     -0.72143402610424      0.07083391266866
