13
Coordinates from ORCA-job run
  C   0.53805355714725      0.08782388354818      0.15711229390301
  C   -0.78472109284712      0.17981126864864     -0.14369839806157
  N   1.21883042575640     -1.22373623874547      0.24768871215145
  O   2.32055135354563     -1.28376213511666     -0.29309533583148
  O   0.66247755026215     -2.09722188197185      0.89860018334313
  N   1.35187555377371      1.10156266545791      0.51562860932825
  H   1.04123219529735      2.04487465889052      0.33346428896307
  H   2.34256505091737      0.93000523185868      0.42724613963968
  C   -1.42227685382966      1.44389937751684     -0.10114843505477
  N   -1.84382159058428      2.54290708710951     -0.05290827036684
  N   -1.59739541642858     -0.96293482164950     -0.55304272823424
  O   -1.04393799273901     -1.84696577077179     -1.19847086843806
  O   -2.78243274027121     -0.91626332477501     -0.23637619134162
