13
Coordinates from ORCA-job run
  C   0.55901095717519      0.08748998604265      0.08313635868127
  C   -0.79419518559147      0.19059144604021     -0.06240317622809
  N   1.20002130958420     -1.16396286591158      0.55312098735490
  O   0.67090521096278     -1.75131052337851      1.48901393983677
  O   2.24940751753571     -1.45954545817962     -0.00801878208052
  N   1.44277747924227      1.08597984042320     -0.07122642704509
  H   1.15702670762531      1.88062527626860     -0.61644064405874
  H   2.42669930172048      0.84808579764296     -0.08120360911509
  C   -1.37444473195412      1.45274661702942     -0.32341840310313
  N   -1.75164535401545      2.55252154427072     -0.50851337949577
  N   -1.69522639161127     -0.95860838870290     -0.11948856757630
  O   -2.88055418551377     -0.72218501760591      0.09534993385978
  O   -1.21178263515986     -2.04242825393923     -0.42990823102998
