13
Coordinates from ORCA-job run
  C   0.53647682729569      0.08835069735722      0.13054468963357
  C   -0.79212127646451      0.16327599226473     -0.15275435947655
  N   1.20440296860484     -1.18807576075337      0.45255605625463
  O   1.16156744587530     -1.55039402839855      1.61930071112305
  O   1.81412240781794     -1.69923210055056     -0.48061493252254
  N   1.38557911375743      1.13058877682116      0.22624119253281
  H   2.37129201616471      0.94481087673607      0.11997655331272
  H   1.06883851673618      2.03020975039949     -0.10669041130286
  C   -1.35337765484371      1.41814947620934     -0.49685235141426
  N   -1.68802335226980      2.51634637594073     -0.76095042983429
  N   -1.67507982253756     -0.99516759149552     -0.17611497755936
  O   -1.16961274309228     -2.09903174759120     -0.00319673963374
  O   -2.86306444704422     -0.75883071693953     -0.37244500111317
