13
Coordinates from ORCA-job run
  C   0.56308055434482      0.15853423346295      0.07222183806602
  C   -0.78448411557746      0.17414635913919     -0.09830245237824
  N   1.24419277954325     -0.99431863361218      0.73894221489005
  O   2.46180372724189     -1.03605345574880      0.55895257435215
  O   0.56769029013700     -1.72686049597634      1.44878774359170
  N   1.39925619294588      1.14248341618708     -0.31930392383179
  H   1.26569080420242      1.49577015142483     -1.25161103453643
  H   2.36260202891326      1.00227032831216     -0.04187363043247
  C   -1.46226720802437      1.34783129606360     -0.48715784172182
  N   -1.99363272334200      2.32676040721571     -0.87128383691344
  N   -1.64966662431394     -1.00520584190262      0.05268283343124
  O   -2.63307436628020     -0.87068705074851      0.77259938748533
  O   -1.34019133979054     -2.01467071381707     -0.57665387200230
