13
Coordinates from ORCA-job run
  C   0.54866067453654      0.00755158247842      0.20429073057955
  C   -0.69952987265233     -0.03154088695151     -0.37612023617284
  N   1.74267721624463     -0.42681072190329     -0.59124069720480
  O   1.57855010349731     -0.73130599685945     -1.76487519717103
  O   2.81029738179967     -0.43699835764317      0.01761557887718
  N   0.89097074111754      0.41511419008860      1.42344847786678
  H   0.16176925658978      0.70615622360696      2.05679696493992
  H   1.85500150063920      0.31769942986227      1.70310955607396
  C   -1.00618686212699     -0.46759954294665     -1.69009531900035
  N   -1.34525815121889     -0.81109576891098     -2.76452913399772
  N   -1.87293977183929      0.37813193363604      0.39408303112134
  O   -2.96377483059601      0.27991066519420     -0.15483927842170
  O   -1.69923738599116      0.80078725034856      1.54335552250972
