13
Coordinates from ORCA-job run
  C   0.54096626038657      0.08850983540999      0.10196474811909
  C   -0.79276238269973      0.17036247062915     -0.15922253182558
  N   1.21516216805237     -1.19502921000375      0.38323686347798
  O   0.82729953419152     -1.81908204154847      1.36016368783812
  O   2.14376967114017     -1.47418393116092     -0.36598494891422
  N   1.38898524912405      1.12812597721593      0.22495600746925
  H   1.08374902432900      2.04915585000853     -0.05402780861267
  H   2.37736099258173      0.93328033550211      0.17797496650986
  C   -1.38986229517184      1.44654274008485     -0.32059346727298
  N   -1.77327617252984      2.55086975670938     -0.46556658166895
  N   -1.65509921323334     -0.99868481327193     -0.26740890883745
  O   -2.84783447203933     -0.82003379563212     -0.03674326129082
  O   -1.12045836413132     -2.06083317394274     -0.57874876499163
