13
Coordinates from ORCA-job run
  C   0.55080980832020      0.10412323270804      0.07197769937499
  C   -0.77745216329437      0.14436099828218     -0.21490567358568
  N   1.20630280382111     -1.13603219915660      0.54870639063076
  O   1.97409231227761     -0.99823391269293      1.49588713390984
  O   0.98560394240557     -2.15692948137850     -0.08688572674272
  N   1.44709424419056      1.09053575557200     -0.13913371230041
  H   2.32791845839183      1.01701066673637      0.34680404367888
  H   1.10074496083588      2.02311890034624     -0.30919992119361
  C   -1.32941434041534      1.29899912848806     -0.81864396130887
  N   -1.69810634269287      2.29659276283609     -1.32665544046933
  N   -1.69269346186816     -0.95939550258892      0.07010718915752
  O   -1.43674706316908     -1.66469458283387      1.04016320971053
  O   -2.65915315880295     -1.06045576631817     -0.67922123086190
