12

C	-0.501774	0.006895	-1.437672
C	0.0	0.0	0.0
F	-0.023918	1.119174	-2.113885
H	1.093239	0.0	0.0
H	-1.597272	0.086348	-1.453686
H	-0.34812	-0.92289	0.476939
C	-0.136686	-1.208108	-2.184198
N	0.124017	-2.180879	-2.785588
N	-0.443898	1.163364	0.757876
H	-1.390755	1.424722	0.511557
H	0.166015	1.940561	0.537038
Br	3.635732	0.0	0.0
