15

C	0.0	0.0	0.0
C	-0.547879	-0.184416	-1.431682
Br	1.923241	0.0	0.0
H	-1.62131	-0.371189	-1.258036
H	-0.384415	0.770944	-1.932875
N	-0.570616	1.11929	0.626893
H	-0.324996	1.948938	0.096419
H	-1.612709	0.890393	0.511343
N	-0.385516	-1.234053	0.844695
O	-0.690081	-1.059149	2.011353
O	-0.283289	-2.315545	0.276959
N	0.049921	-1.19352	-2.347883
O	-0.522474	-2.272972	-2.490583
O	1.064945	-0.851928	-2.968932
F	-2.775643	0.0	0.0
