15

C	0.0	0.0	0.0
C	-0.518427	-0.028383	-1.424804
Br	2.017088	0.0	0.0
H	-0.137339	-0.889434	-1.959821
H	-1.62152	-0.033654	-1.275097
N	-0.567283	0.950417	0.79701
H	-1.6172	0.782397	0.600999
H	-0.354226	0.746219	1.768783
N	-0.251659	-1.480881	0.550409
O	-0.206698	-2.424854	-0.229393
O	-0.44857	-1.562242	1.756261
N	-0.135149	1.161325	-2.218408
O	0.451484	0.948815	-3.285778
O	-0.463145	2.272585	-1.817719
F	-2.784727	0.0	0.0
