15

C	0.0	0.0	0.0
C	-0.508205	-0.02711	-1.446168
Br	1.926129	0.0	0.0
H	-1.615362	-0.009904	-1.293956
H	-0.170107	-0.894117	-2.001833
N	-0.540707	0.960856	0.865513
H	-1.576671	0.76647	0.731689
H	-0.321033	1.870156	0.478389
N	-0.37283	-1.396258	0.58701
O	-0.42858	-1.487193	1.801394
O	-0.507419	-2.323989	-0.204556
N	-0.095991	1.153188	-2.23608
O	0.049972	0.975722	-3.44656
O	0.033893	2.247348	-1.686352
F	-2.745941	0.0	0.0
