15

C	0.0	0.0	0.0
C	-0.525647	0.02061	-1.433525
Br	1.948384	0.0	0.0
H	-0.035809	-0.727131	-2.047163
H	-1.614995	-0.098437	-1.300022
N	-0.566527	1.004806	0.757097
H	-1.614963	0.810668	0.600925
H	-0.304898	0.903453	1.730745
N	-0.330763	-1.440939	0.549791
O	-0.398268	-2.370091	-0.245999
O	-0.464666	-1.527966	1.762518
N	-0.262535	1.342859	-2.057612
O	-1.101687	2.227975	-1.909875
O	0.776487	1.465755	-2.715331
F	-2.775967	0.0	0.0
