15

C	-0.441802	0.069249	-1.453554
C	0.0	0.0	0.0
Cl	0.051622	-1.366895	-2.388014
H	1.090837	0.0	0.0
H	0.124034	0.901815	-1.88288
C	-1.866437	0.338114	-1.650108
N	-2.986177	0.629069	-1.852303
N	-0.521855	-1.215636	0.683924
O	0.056492	-1.561951	1.708953
O	-1.533317	-1.749413	0.222057
C	-0.466946	1.211408	0.793806
H	-0.035809	1.156134	1.79402
H	-1.557142	1.262168	0.860701
H	-0.089939	2.120372	0.31985
Br	3.435297	0.0	0.0
