15

C	-0.408207	0.009942	-1.465106
C	0.0	0.0	0.0
Cl	-2.192755	-0.190815	-1.664535
H	1.095268	0.0	0.0
H	0.053219	-0.842427	-1.963014
C	-0.012398	1.249932	-2.121726
N	0.275174	2.245432	-2.674468
N	-0.394223	-1.334528	0.55987
O	-0.89376	-1.36926	1.683661
O	-0.156603	-2.319777	-0.136266
C	-0.538075	1.139615	0.828052
H	-0.135546	1.072909	1.837018
H	-0.19513	2.077989	0.387969
H	-1.627964	1.134067	0.878756
Br	3.382746	0.0	0.0
