15

C	-0.547297	0.041484	-1.427463
C	0.0	0.0	0.0
Cl	-0.11365	1.596149	-2.206659
H	1.090937	0.0	0.0
H	-1.638196	-0.002647	-1.414004
C	-0.059902	-1.050516	-2.267903
N	0.282669	-1.904946	-2.995506
N	-0.457921	-1.278911	0.634047
O	-1.284708	-1.972222	0.030543
O	-0.010561	-1.535955	1.746416
C	-0.48898	1.136771	0.881192
H	-0.109554	0.975222	1.889802
H	-0.087249	2.081079	0.517216
H	-1.583322	1.18875	0.903534
Br	3.419011	0.0	0.0
