15

C	-0.546867	0.106586	-1.423777
C	0.0	0.0	0.0
Cl	-0.077545	1.680067	-2.13644
H	1.090931	0.0	0.0
H	-1.637423	0.084709	-1.408483
C	-0.086588	-0.96531	-2.305893
N	0.234872	-1.788796	-3.078631
N	-0.461462	-1.300775	0.583581
O	-1.339182	-1.930634	-0.017881
O	0.025834	-1.634084	1.656242
C	-0.491965	1.100526	0.924106
H	-0.110373	0.902648	1.925532
H	-0.094331	2.059634	0.595723
H	-1.585832	1.147249	0.949631
Br	3.416314	0.0	0.0
