15

C	-0.450874	0.021543	-1.454846
C	0.0	0.0	0.0
Cl	0.028786	-1.470732	-2.307459
H	1.090855	0.0	0.0
H	0.114276	0.828295	-1.92905
C	-1.877278	0.270928	-1.659696
N	-3.004638	0.536149	-1.854992
N	-0.494624	-1.239308	0.671285
O	-1.672822	-1.546404	0.471382
O	0.279867	-1.840526	1.40827
C	-0.517044	1.196968	0.778452
H	-0.171629	2.116562	0.300963
H	-0.095704	1.170293	1.785069
H	-1.608007	1.201484	0.833377
Br	3.475263	0.0	0.0
