13
Coordinates from ORCA-job run
  C   -0.55627693767977      0.37902547130542     -0.07462819719066
  C   0.84868336698890     -0.16984686293178      0.12425295235210
  Br  -0.53490301201583      1.80496901409304     -1.41128789557787
  H   1.24054674468292     -0.47859339394669     -0.84886362947636
  H   -0.89157192684185      0.86841396598850      0.84385512689495
  H   0.74777141172185     -1.08111491927999      0.73719526109108
  C   -1.54321164052491     -0.69412883547530     -0.49768794864237
  H   -1.60288860407275     -1.46829005101770      0.27386070760102
  H   -1.22636801101308     -1.15984261106058     -1.43348163411302
  H   -2.53994990045437     -0.27769366869222     -0.64560151881659
  N   1.74468008731435      0.82403985891874      0.69698791609430
  H   1.60469037546094      0.88812161441965      1.69714904808156
  H   2.70879804643359      0.56494041767891      0.53824981170186
