13
Coordinates from ORCA-job run
  C   -0.70714169445682      0.36672586365780      0.22988468338626
  C   0.80314669150833      0.57845929776201      0.22359691817018
  Br  -1.57154724246898      2.10459173845876     -0.04605682249314
  H   1.10266417447628      0.88288953757017     -0.78343596215550
  H   -1.03077863898622      0.05556079009117      1.22661619879122
  H   1.05743576297622      1.40266596269470      0.90198710995791
  C   -1.17814210882854     -0.61908537302162     -0.81892060528324
  H   -2.25674936411131     -0.77233582418882     -0.76230098220736
  H   -0.93460229841157     -0.25450697456599     -1.81968785028404
  H   -0.66674126071567     -1.56915456735475     -0.65669078993483
  N   1.46042629398637     -0.68659806334425      0.55267464677585
  H   1.51521138112185     -0.79702973166298      1.55738577000704
  H   2.40681830391005     -0.69318265609620      0.19594768526964
