13
Coordinates from ORCA-job run
  C   -0.70810666369779      0.45147351092916      0.20913147099804
  C   0.80649432225597      0.61184548868898      0.23791608911806
  Br  -1.49646939274837      2.14601220856054     -0.38452704590035
  H   1.15351294151082      0.88910368111902     -0.76718938011992
  H   -1.06988162607090      0.30588385946636      1.22800619301089
  H   1.05864936661230      1.43865753644145      0.90563454834477
  C   -1.17349441657836     -0.67406198262447     -0.69186894349585
  H   -0.77292338305357     -1.61845844315985     -0.31496623097960
  H   -0.82613391227801     -0.51737348714634     -1.71654581615769
  H   -2.26166658626662     -0.74536280129848     -0.70731503840033
  N   1.40043630260229     -0.62131876358252      0.75537692245013
  H   2.25673849860897     -0.41812856422282      1.25266894554647
  H   1.63284454910328     -1.24827224317101     -0.00332171441461
