13
Coordinates from ORCA-job run
  C   -0.71340485873141      0.43653837716292      0.21232679921900
  C   0.66784245862909      0.16495920919623      0.78964150649587
  Br  -0.65090172016554      2.09395272890192     -0.85075450666058
  H   0.96299995708661      1.01959403073144      1.41512386649116
  H   -1.40010199136480      0.67489505903355      1.02756134706080
  H   0.56511818906934     -0.70412413027420      1.45059960296613
  C   -1.25025984762327     -0.69487378180176     -0.64045379533212
  H   -1.31279357049196     -1.60031532590406     -0.02766060653659
  H   -2.24638804996371     -0.46357367512692     -1.01994468415952
  H   -0.57956496702429     -0.89476437542068     -1.47389774716686
  N   1.62379259144224     -0.17472249366328     -0.25658711110400
  H   1.85375486121738      0.65859111761381     -0.78439906946699
  H   2.47990694792032     -0.51815674044897      0.15944439819370
