13
Coordinates from ORCA-job run
  C   -0.68148960876913      0.44870023913300      0.22361566283333
  C   0.68888353797155      0.24920682690041      0.87857254127546
  Br  -0.64535413998502      2.07409112876482     -0.88142357850307
  H   0.58583882638477     -0.59155890717311      1.57594393699871
  H   -1.41835859920457      0.66897157879439      1.00029593616416
  H   0.92374779756363      1.13182234830759      1.47899269918149
  C   -1.13615818247546     -0.72322209651630     -0.62421771966898
  H   -0.46012010850796     -0.88634369179179     -1.46480937674333
  H   -1.15657450713666     -1.62930730656580     -0.00922850620949
  H   -2.13628402951999     -0.55696664560027     -1.02568274232525
  N   1.81763830540219     -0.02351411510913      0.00962246097220
  H   1.93068062069218      0.72454883656101     -0.66290162754474
  H   1.68755008758446     -0.88842819570482     -0.49777968643049
