15

C	-0.494724	-0.131961	-1.429998
C	0.0	0.0	0.0
F	-1.817435	-0.504559	-1.440882
H	1.09101	0.0	0.0
H	-0.305251	-0.918436	0.512665
N	-0.446136	1.234535	-2.106464
O	-1.50206	1.844655	-2.233328
O	0.664123	1.619856	-2.452877
C	0.328676	-1.107612	-2.229173
H	0.20069	-2.10036	-1.791983
H	-0.015863	-1.12799	-3.265225
H	1.382116	-0.830977	-2.17432
C	-0.56999	1.137039	0.70952
N	-1.036981	2.043596	1.291209
Cl	3.317395	0.0	0.0
