15

C	-0.425566	-0.174214	-1.442918
C	0.0	0.0	0.0
F	-1.801344	-0.283124	-1.54219
H	1.091066	0.0	0.0
H	-0.371483	0.94919	0.387818
N	-0.124522	1.139898	-2.174161
O	-0.611863	2.151056	-1.678465
O	0.510926	1.093399	-3.221384
C	0.242663	-1.330017	-2.127418
H	1.325788	-1.215317	-2.054239
H	-0.063066	-1.382277	-3.171398
H	-0.05565	-2.245796	-1.613107
C	-0.507617	-1.09902	0.808503
N	-0.939853	-1.988933	1.439991
Cl	3.299061	0.0	0.0
