14
Coordinates from ORCA-job run
  C   -0.50864686250185     -0.49764544451877     -0.69102779499879
  C   0.79587203825057      0.25342182440657     -0.35967923627404
  Cl  -0.18432738930156     -2.03469767442550     -1.49927618608698
  H   1.20194976427204      0.54931659685943     -1.33356882396941
  C   -1.35877270017008      0.34261773128968     -1.52410598690390
  N   -1.99579261774311      1.02551004952947     -2.23724424217826
  N   -1.28226364680704     -0.81548911017262      0.59919139952804
  O   -2.47252133715468     -1.04989560886662      0.46627979943208
  O   -0.62647685813021     -0.84419487778277      1.63231366743327
  C   1.79721151513347     -0.61919319090711      0.27572854360555
  N   2.65559336327361     -1.23795638676073      0.78553742348083
  N   0.44813255573292      1.44544896193839      0.38063867274406
  H   1.07436987042408      2.20824122798218      0.16389660361571
  H   0.45667230472184      1.27351590142842      1.37731616057182
