14
Coordinates from ORCA-job run
  C   -0.51556037887953     -0.53750532872412     -0.48595882944939
  C   0.58627354735482      0.46801869123474     -0.08658160130414
  Cl  -0.01812018755346     -2.18731775317679     -0.17075770764840
  H   0.18892935090628      1.45585037286849     -0.33815849575352
  C   -0.91038202456462     -0.37185546515561     -1.87712755563477
  N   -1.20539032840866     -0.22598521188454     -3.00588144324394
  N   -1.73644639996111     -0.15073150009865      0.39537215850316
  O   -2.15944776792991     -0.95627826803231      1.19796794081376
  O   -2.13527129204035      0.98436857198762      0.17699661771969
  C   1.78734142249505      0.22305767839651     -0.90290369733642
  N   2.78263826388956      0.03352046003316     -1.49803160308238
  N   0.77460703705757      0.40173512459672      1.34384822572936
  H   1.20761483727111      1.24994752262213      1.68473066214495
  H   1.35421392036323     -0.38682489466734      1.60348532854205
