14
Coordinates from ORCA-job run
  C   -0.49678313560266     -0.54742978305720     -0.52669491152861
  C   0.59793943529797      0.46938160568348     -0.10380994399508
  Cl  0.11339314899549     -2.18269870898363     -0.52783637254543
  H   0.15940259822978      1.46283357128015     -0.24192387992451
  C   -1.08086137569978     -0.20096237950137     -1.81532553857073
  N   -1.55613348082773      0.10748691953170     -2.84575006156689
  N   -1.62352940890637     -0.38654284946442      0.53189885984065
  O   -1.93177259174250      0.78097992502562      0.73735423465524
  O   -2.10168437418238     -1.38292466565384      1.03466640895128
  C   1.73396380178128      0.34807907255090     -1.01897668452424
  N   2.65565579505240      0.27428289855395     -1.74299576802508
  N   0.95069454827523      0.21876755328401      1.27743043422292
  H   1.93904660221564      0.06213293066565      1.40846260321737
  H   0.64166843711362      0.97561391008501      1.87050061979311
