14
Coordinates from ORCA-job run
  C   -0.69183400237136     -0.21302448526124     -0.61015637947935
  C   0.81111082172160     -0.00974518837110     -0.31628198310348
  Cl  -0.95673355458557     -0.38597645653054     -2.34132497590910
  H   1.32982814779298     -0.83361032030528     -0.81245153442274
  C   -1.47397288761022      0.89151195844613     -0.07690646197714
  N   -2.02210240523114      1.84119845842752      0.34746038476013
  N   -1.13427513244121     -1.52634192729411      0.05761876913222
  O   -0.39033350287528     -2.47638199091777     -0.13929815761645
  O   -2.17446044406035     -1.50857630654979      0.69865204722812
  C   1.02204836412852     -0.13156241138431      1.13938068654279
  N   1.20632754074636     -0.16492067849760      2.29981089245596
  N   1.23658261692364      1.24633607410567     -0.88550702277685
  H   1.00280142940487      2.02365589644602     -0.27917189146075
  H   2.23501300845714      1.24643737768642     -1.04482437337337
