14
Coordinates from ORCA-job run
  C   -0.58611135437055     -0.48845430230451     -0.44424692258577
  C   0.63009901233184      0.40942252103453     -0.12953916640456
  Cl  -0.22792546990900     -2.17629134028618     -0.14048048116790
  H   0.31150100195291      1.42923172872297     -0.36508350548399
  C   -1.05299737103086     -0.29486205593596     -1.80926301506341
  N   -1.40559649534444     -0.12732904511220     -2.91836645101453
  N   -1.70464634104229      0.01906349222141      0.50836139177968
  O   -2.15002486134218     -0.73778065852792      1.34556084613736
  O   -2.00700018694850      1.18564604665306      0.30208956044126
  C   1.74517390464704      0.04846859156491     -1.02107198285928
  N   2.67646180681274     -0.23470133921329     -1.67934382923174
  N   0.90626091757363      0.33340388119504      1.28573620750153
  H   1.42299279461800     -0.50595166844560      1.51724787433419
  H   1.43981264205166      1.13813414843373      1.58739947361716
