14
Coordinates from ORCA-job run
  C   -0.70535055336384     -0.16980106033896     -0.60038550436145
  C   0.80809605977361     -0.02837824371913     -0.33153244859099
  Cl  -1.01094312112702     -0.25282527297162     -2.33258034794415
  H   1.29078348964708     -0.84270577016114     -0.87724856975342
  C   -1.44113865763547      0.93342738541672     -0.00213181005563
  N   -1.95271535090667      1.87873284803263      0.47470409753514
  N   -1.18436795099312     -1.49677530985368      0.01126024570001
  O   -0.45428137109999     -2.45398170611973     -0.20289683900411
  O   -2.24282879811994     -1.48299417472654      0.62171773748184
  C   1.04770837042459     -0.22245332363958      1.11136453101875
  N   1.25642832620535     -0.30941660864126      2.26484098816816
  N   1.26263854089808      1.23777569632442     -0.85437902897297
  H   2.25749828128481      1.21383399267553     -1.03279230774193
  H   1.06647273501256      1.99556154772234     -0.21194074347924
