17

C	0.0	0.0	0.0
C	-0.623084	0.083224	-1.415148
Br	1.962797	0.0	0.0
H	-1.662447	0.390865	-1.235729
C	-0.332006	1.192921	0.787871
N	-0.509254	2.152344	1.443718
C	-0.488543	-1.246614	0.728363
H	-0.100769	-1.25307	1.747844
H	-1.582326	-1.207791	0.742892
H	-0.14216	-2.142292	0.211426
N	-0.614101	-1.099222	-2.198183
H	0.257901	-1.608623	-2.143028
H	-1.401821	-1.675118	-1.932134
N	0.047586	1.197896	-2.175794
O	0.902973	0.895687	-3.003056
O	-0.292097	2.342542	-1.88238
Cl	-3.644238	0.0	0.0
