17

C	0.0	0.0	0.0
C	-0.622474	0.050468	-1.419229
Br	1.977359	0.0	0.0
H	-1.656296	0.385678	-1.25239
C	-0.337058	1.204437	0.763912
N	-0.516605	2.162168	1.421168
C	-0.477315	-1.236518	0.750958
H	-1.570995	-1.219289	0.759788
H	-0.096122	-1.217133	1.772832
H	-0.112179	-2.137064	0.255843
N	-0.644429	-1.157554	-2.162514
H	-1.439983	-1.70696	-1.86557
H	0.221013	-1.677376	-2.102369
N	0.077786	1.123286	-2.214958
O	-0.20864	2.286821	-1.934664
O	0.902434	0.770394	-3.051838
Cl	-3.637816	0.0	0.0
