17

C	0.0	0.0	0.0
C	-0.300342	-0.011319	-1.530269
Cl	1.843792	0.0	0.0
H	0.41801	0.648919	-2.01817
C	-0.497313	1.29043	0.630451
H	-0.174249	2.154659	0.055857
H	-1.597883	1.246486	0.635112
H	-0.123754	1.35896	1.65251
N	-0.50398	-1.182072	0.615607
H	0.168346	-1.640479	1.218088
H	-1.398012	-1.006527	1.054322
N	-1.649522	0.43864	-1.796863
H	-2.352592	0.170429	-1.045909
H	-1.998802	0.007703	-2.645304
C	0.002363	-1.362063	-2.060635
N	0.237144	-2.384803	-2.58553
H	-3.47409	0.0	0.0
