17

C	0.0	0.0	0.0
C	-0.363026	0.052655	-1.5167
Cl	1.799203	0.0	0.0
H	0.42881	0.631385	-2.003481
C	-0.434561	1.286319	0.692798
H	-0.035851	1.288645	1.712927
H	-1.527604	1.292563	0.722981
H	-0.075359	2.17225	0.165206
N	-0.531613	-1.193347	0.596179
H	-1.553207	-1.115087	0.472342
H	-0.361819	-1.152697	1.597536
N	-1.624041	0.728286	-1.758465
H	-1.928962	0.528586	-2.704202
H	-2.377013	0.382228	-1.103541
C	-0.261599	-1.306862	-2.102203
N	-0.207905	-2.320902	-2.694485
H	-3.358261	0.0	0.0
