17

C	0.0	0.0	0.0
C	-0.544396	0.100521	-1.431322
Cl	1.786167	0.0	0.0
H	-1.640235	0.196472	-1.237227
C	-0.431114	1.226563	0.795423
H	-0.022715	2.146971	0.371629
H	-0.074871	1.129545	1.825724
H	-1.527251	1.239222	0.782716
N	-0.530573	-1.237044	0.525574
H	-0.265241	-1.312059	1.502942
H	-1.561965	-1.079571	0.491011
N	-0.202437	-1.088358	-2.217996
H	-0.228536	-1.856111	-1.551421
H	-0.960955	-1.243332	-2.874693
C	-0.073546	1.307833	-2.112485
N	0.263545	2.28669	-2.667959
H	-3.098833	0.0	0.0
