17

C	0.0	0.0	0.0
C	-0.5167	0.075922	-1.452965
Cl	1.79235	0.0	0.0
H	-1.620938	0.115082	-1.295576
C	-0.438603	1.229206	0.78237
H	-0.021359	2.149399	0.366691
H	-0.115125	1.134763	1.823672
H	-1.535343	1.238506	0.738501
N	-0.528447	-1.237158	0.521625
H	-1.56112	-1.075495	0.484751
H	-0.271148	-1.305661	1.502725
N	-0.193464	-1.068528	-2.296546
H	0.819148	-1.160944	-2.321276
H	-0.539481	-1.881303	-1.794263
C	-0.090649	1.310777	-2.113366
N	0.263082	2.293794	-2.65033
H	-3.071566	0.0	0.0
