17

C	0.0	0.0	0.0
C	-0.318147	0.09237	-1.539148
Cl	1.802855	0.0	0.0
H	0.436704	0.746088	-1.989313
C	-0.464366	1.270615	0.692678
H	-0.088058	1.258783	1.717522
H	-1.557571	1.280941	0.69883
H	-0.094266	2.154601	0.170426
N	-0.542768	-1.130695	0.684042
H	-1.561654	-0.975674	0.702626
H	-0.367786	-1.983144	0.159055
N	-1.632381	0.646239	-1.791197
H	-1.95427	0.369088	-2.710814
H	-2.354222	0.317384	-1.089338
C	-0.096087	-1.247026	-2.130775
N	0.050691	-2.30036	-2.630861
H	-3.373186	0.0	0.0
