17

C	0.0	0.0	0.0
C	-0.501977	0.025987	-1.451135
Cl	1.81928	0.0	0.0
H	-1.607826	0.046888	-1.280306
C	-0.445561	1.252581	0.725838
H	-1.5426	1.264492	0.677144
H	-0.122726	1.186783	1.766416
H	-0.025709	2.150758	0.269163
N	-0.500136	-1.150174	0.689453
H	-1.52303	-0.975616	0.716594
H	-0.371901	-1.944422	0.066629
N	-0.149195	-1.20478	-2.15247
H	0.806453	-1.147141	-2.486751
H	-0.762051	-1.322449	-2.950254
C	-0.101287	1.233714	-2.184143
N	0.201283	2.17117	-2.827666
H	-3.093794	0.0	0.0
