16
Coordinates from ORCA-job run
  C   0.47851117270433      0.31532401919051      0.13344821018988
  C   -0.87952424803895     -0.35895876427147     -0.11224817910902
  H   0.33613322196689      0.98545932092663      0.98589952018189
  H   -0.84210902676763     -0.99638672056011     -0.99927346063609
  N   0.74919202833043      1.13670703645028     -1.03724891059801
  H   1.22338444247540      0.59796505869922     -1.75280676255274
  H   1.33840181562922      1.92168728169377     -0.79443122098014
  C   1.54353548498147     -0.72681571449544      0.45968801964385
  H   2.50183996872756     -0.22982132385794      0.62481169920096
  H   1.66487358411929     -1.42491206466434     -0.37491248408783
  H   1.29967715998686     -1.30204313572219      1.35569912482011
  N   -1.89068329281590      0.71521298917330     -0.43029420402864
  O   -2.44055920689356      0.64951061355066     -1.52168314175443
  O   -2.06152624972463      1.56770805487541      0.43227909650949
  C   -1.34418760965797     -1.11736899514297      1.04411571089490
  N   -1.67695924502279     -1.73326765584531      1.98695698230582
