16
Coordinates from ORCA-job run
  C   0.49313978198564      0.52681699135066     -0.18094775069423
  C   -0.99366914933820      0.17362404244144     -0.38163417609519
  H   0.50645691274855      1.59037131664988      0.07608370504410
  H   -1.42185998135905      0.86461505032174     -1.10977162321385
  N   1.11429682444914      0.37731319435892     -1.49069682016199
  H   1.97280394592566      0.91211970144511     -1.53019664604059
  H   1.35061385070742     -0.59532881459401     -1.65664151288441
  C   1.12496791100206     -0.28524507254544      0.94457638232373
  H   2.18025854842589     -0.01742254941375      1.03364826504316
  H   0.65014482887209     -0.09888838025207      1.91083294116395
  H   1.06087848821848     -1.35642844008030      0.73257467584290
  N   -1.72869333824934      0.40389381857648      0.91273153074192
  O   -2.09089397302852     -0.56836970345631      1.56578654929055
  O   -1.85056653875982      1.58356816867514      1.22846784030711
  C   -1.15571648849362     -1.20460093031992     -0.82822995793479
  N   -1.21216162310637     -2.30703839315756     -1.22858340273237
