16
Coordinates from ORCA-job run
  C   0.54791710933304      0.40068871372222     -0.35658167840552
  C   -0.98536237624765      0.35487655229457     -0.22280880841836
  H   0.74074550543774      1.29004276194931     -0.96826213008423
  H   -1.36216694866408      1.30821842547945      0.15243114500821
  N   1.00747106471800     -0.74388045830084     -1.12154309485130
  H   0.90059052336585     -1.60014830264533     -0.59174261999193
  H   1.98467711835070     -0.63267918807863     -1.35990613006540
  C   1.19670880188578      0.59490133556078      1.01528141111237
  H   2.26686542846000      0.77171302950166      0.88792896319663
  H   1.07852802328690     -0.30070101160239      1.63106519636424
  H   0.77216834913055      1.44351859236801      1.55910151616627
  N   -1.35489376314021     -0.65065036653037      0.84018165519759
  O   -1.16684451567636     -1.83486403287053      0.57630406873473
  O   -1.75244346410742     -0.19721717694629      1.90863389261905
  C   -1.65049400654027      0.00696394533903     -1.47332984835134
  N   -2.22246684959258     -0.21078281924066     -2.47475353823101
