11
Coordinates from ORCA-job run
  C   -0.23140540136132      0.09177690699428      0.32980718618679
  C   1.25876360105229     -0.04347991346187      0.10364020597546
  F   -0.45483633491986      0.34565963335694      1.67442157452708
  H   1.60615280890334     -0.91245096803129      0.66318792778284
  H   1.48296775110985     -0.17334894207688     -0.95689440738695
  H   1.76652288297168      0.85077531003687      0.46444187828687
  N   -0.90959591131167     -1.12725438160611      0.01156760652740
  H   -0.63498389696858     -1.47140725787349     -0.89872614522999
  H   -1.91442178686681     -1.00429451755457      0.03295886331364
  C   -0.76940624630653      1.27466366230065     -0.39852946105358
  N   -1.19975746630239      2.16936046791549     -1.02587522892956
