11
Coordinates from ORCA-job run
  C   -0.20013814719577      0.08147850420924      0.26046006461394
  C   1.23283721560385     -0.01776778329134     -0.21958578123116
  F   -0.16278571624519      0.09013917058472      1.67153471288302
  H   1.82257606575847      0.79338198197203      0.20594246614073
  H   1.26864256501347      0.02913386884212     -1.30739363990842
  H   1.65243415369877     -0.96792195580464      0.11865663201617
  N   -0.99375998804480     -0.97494651522088     -0.24646313967818
  H   -1.94137898640463     -0.92948174495023      0.10619165939454
  H   -0.58526037462714     -1.87139144020788     -0.01371378570013
  C   -0.81257370055306      1.37003774679778     -0.13025415908005
  N   -1.28259308700398      2.39833816706907     -0.44337502945045
