11
Coordinates from ORCA-job run
  C   -0.17528261743464      0.06033464255263      0.37102231517631
  C   1.25596639353925     -0.01608533518547     -0.11536817670183
  F   -0.16774644869109      0.21037539468184      1.74927895993412
  H   1.70741872240198     -0.91366156956680      0.30824249225564
  H   1.29678719561326     -0.06095360729964     -1.20538295956481
  H   1.80413754731516      0.86327911419862      0.22215237226742
  N   -0.87877056351538     -1.15163268181986      0.08160731319535
  H   -1.86717464496976     -1.05911110885797      0.28102555115268
  H   -0.75761901359898     -1.42284609247719     -0.88497435162626
  C   -0.84643922790122      1.27739925478488     -0.16415438968528
  N   -1.37027734275858      2.21290198898895     -0.64344912640333
