15

C	-0.607658	-0.031719	-1.485124
C	0.017145	-0.114933	-0.063779
Br	0.60948	1.178272	-2.578429
H	1.108137	-0.217	-0.124131
C	-0.579821	-1.30193	-2.207677
N	-0.579799	-2.326223	-2.784781
N	-1.915292	0.473714	-1.367029
H	-1.837318	1.267083	-0.727015
H	-2.30671	0.744742	-2.25923
C	-0.571682	-1.273086	0.617232
N	-1.034367	-2.179634	1.20566
N	-0.233657	1.142163	0.626796
H	-0.665973	0.950538	1.522974
H	0.796546	1.439046	0.787008
F	2.254588	1.191607	0.715204
