17

C	0.0	0.0	0.0
C	-0.167673	0.196772	-1.534496
F	1.427631	0.0	0.0
H	0.348489	1.15573	-1.715461
N	-0.483493	1.128863	0.677105
H	-0.821747	0.972665	1.61135
H	0.085513	1.953734	0.580953
C	-0.563301	-1.28344	0.526263
H	-1.651594	-1.217401	0.42263
H	-0.297159	-1.399249	1.58071
H	-0.171622	-2.122599	-0.045393
C	-1.48724	0.377046	-2.15173
N	-2.288971	0.590118	-2.983258
N	0.485504	-0.918409	-2.237679
H	0.319025	-0.827005	-3.233467
H	1.481425	-0.85101	-2.068449
Cl	-3.934479	0.0	0.0
