17

C	0.0	0.0	0.0
C	-0.419952	0.143112	-1.474206
F	1.409602	0.0	0.0
H	-1.517678	0.135836	-1.4534
N	-0.457572	1.094539	0.790321
H	-0.393641	1.933785	0.221566
H	-1.449237	0.934646	0.970007
C	-0.440321	-1.317231	0.594333
H	-0.117154	-1.340491	1.636569
H	-1.527256	-1.398008	0.54459
H	0.025733	-2.146534	0.058925
C	0.056959	-0.986186	-2.291879
N	0.44517	-1.845366	-2.9939
N	0.04824	1.430412	-1.986742
H	-0.412327	1.638307	-2.8632
H	1.046009	1.378387	-2.152697
Cl	-3.671027	0.0	0.0
