17

C	0.0	0.0	0.0
C	-0.345574	0.283511	-1.484242
F	1.402607	0.0	0.0
H	0.494872	-0.150101	-2.035782
N	-0.470323	1.047987	0.853052
H	-0.361543	0.757486	1.816928
H	-1.471186	1.159043	0.698757
C	-0.409313	-1.401896	0.417951
H	-1.49467	-1.474965	0.475243
H	-0.032685	-2.145888	-0.286253
H	0.025685	-1.590823	1.406013
C	-0.279721	1.740589	-1.766691
N	-0.236225	2.860834	-2.118588
N	-1.553455	-0.376541	-1.929529
H	-2.367669	-0.14075	-1.352907
H	-1.767	-0.116841	-2.884586
Cl	-4.063194	0.0	0.0
