17

C	0.0	0.0	0.0
C	-0.503075	0.167282	-1.432099
F	1.427478	0.0	0.0
H	-1.599979	0.176077	-1.329739
N	-0.454595	1.113409	0.735934
H	-0.116432	1.088958	1.686793
H	-0.203558	1.971899	0.265944
C	-0.460416	-1.295613	0.619691
H	-1.552775	-1.315199	0.600966
H	-0.044461	-2.149624	0.081472
H	-0.114237	-1.340531	1.656144
C	-0.0955	-0.973232	-2.272592
N	0.265265	-1.832151	-2.988769
N	-0.050832	1.446802	-1.976272
H	0.900505	1.3579	-2.31227
H	-0.644784	1.714302	-2.750017
Cl	-3.879993	0.0	0.0
