18

C	0.081633	-0.004898	-0.025549
C	-0.462447	-0.1494	-1.469588
F	1.403505	0.500463	-0.106008
H	0.363381	-0.620166	-2.02546
C	-0.742548	0.890879	0.871496
H	-0.508154	1.923614	0.603087
H	-0.482342	0.735404	1.921812
H	-1.820724	0.745269	0.666379
C	0.223959	-1.355874	0.557857
N	0.36024	-2.431804	1.009378
C	-0.776756	1.223777	-2.052578
H	0.031993	1.938662	-1.876936
H	-0.931722	1.119702	-3.129404
H	-1.712972	1.556592	-1.594845
N	-1.657637	-0.960375	-1.577572
H	-1.527184	-1.856712	-1.122399
H	-2.43251	-0.430017	-1.11621
F	-3.302669	0.742716	-0.357972
