18

C	0.084308	-0.008382	-0.025645
C	-0.444854	-0.071728	-1.480943
F	1.414428	0.479921	-0.066071
H	0.380136	-0.527226	-2.050651
C	-0.736446	0.854158	0.906443
H	-0.489402	0.643314	1.95028
H	-1.81438	0.735273	0.684036
H	-0.484461	1.895282	0.691977
C	0.199528	-1.388825	0.490862
N	0.313243	-2.487671	0.890549
C	-0.730775	1.333698	-1.997822
H	-1.666772	1.658733	-1.534206
H	0.087259	2.025602	-1.778651
H	-0.875214	1.285405	-3.080065
N	-1.651132	-0.856873	-1.642554
H	-1.540872	-1.77626	-1.229951
H	-2.423449	-0.336889	-1.164962
F	-3.283682	0.809444	-0.358102
