18

C	0.082974	-0.000433	-0.030064
C	-0.460398	0.09843	-1.478009
F	1.406453	0.507361	-0.026147
H	0.364828	-0.275014	-2.104276
C	-0.738665	0.736227	1.003912
H	-1.817324	0.631143	0.777156
H	-0.500718	1.798499	0.912293
H	-0.479832	0.40571	2.013252
C	0.220529	-1.42971	0.321901
N	0.345836	-2.566344	0.59099
C	-0.771411	1.550088	-1.824754
H	-1.707072	1.80423	-1.318128
H	-0.925999	1.626029	-2.903953
H	0.038466	2.224334	-1.532572
N	-1.656706	-0.680999	-1.72087
H	-2.432121	-0.234776	-1.179065
H	-1.528156	-1.64138	-1.423037
F	-3.297107	0.801122	-0.234393
