17

C	-0.242668	0.028946	-1.527263
C	0.0	0.0	0.0
Br	0.292418	-1.714796	-2.297833
H	1.096668	0.0	0.0
C	-1.650315	0.195982	-1.886333
N	-2.786227	0.359588	-2.149134
C	0.671062	1.089789	-2.138963
H	1.663917	0.894852	-1.713342
H	0.328127	2.079369	-1.823116
H	0.669803	1.03768	-3.228646
C	-0.606055	-1.170671	0.760929
H	-0.101218	-2.093057	0.475715
H	-0.447849	-1.020012	1.831181
H	-1.681981	-1.275977	0.581447
C	-0.474154	1.26572	0.539386
N	-0.863868	2.277908	0.996567
F	2.591704	0.0	0.0
