13

C	-0.557807	-0.064957	-1.403111
C	0.0	0.0	0.0
Cl	-0.237737	1.462999	-2.254708
H	1.089981	0.0	0.0
H	-1.633524	-0.226548	-1.389369
H	-0.048147	-0.860099	-1.939015
N	-0.424063	-1.217024	0.765544
O	-0.510328	-1.115701	1.983596
O	-0.597604	-2.244291	0.113304
N	-0.578376	1.161393	0.737618
O	-1.807836	1.241467	0.717656
O	0.186022	1.936336	1.295933
Cl	3.200493	0.0	0.0
