13

C	-0.560262	0.073485	-1.402481
C	0.0	0.0	0.0
Cl	-0.265979	-1.458565	-2.255081
H	1.089106	0.0	0.0
H	-1.633015	0.252146	-1.385291
H	-0.03976	0.861094	-1.939352
N	-0.584256	-1.161698	0.731221
O	0.175036	-1.97517	1.239484
O	-1.816191	-1.205334	0.75066
N	-0.417503	1.21429	0.771602
O	-0.633415	2.235573	0.122787
O	-0.454322	1.11678	1.993132
Cl	3.201486	0.0	0.0
