13

C	-0.511145	0.00078	-1.409403
C	0.0	0.0	0.0
Cl	-2.266539	0.245179	-1.597623
H	1.091085	0.0	0.0
H	-0.251062	-0.951349	-1.875039
H	-0.013791	0.808796	-1.942895
N	-0.43108	-1.204588	0.772507
O	-1.633172	-1.385814	0.952218
O	0.471705	-1.950669	1.148791
N	-0.430005	1.224183	0.728675
O	-0.260695	2.271602	0.108187
O	-0.745693	1.124557	1.911731
Cl	2.684359	0.0	0.0
