13

C	-0.564606	0.06683	-1.399649
C	0.0	0.0	0.0
Cl	0.111921	-1.193741	-2.444691
H	1.086955	0.0	0.0
H	-1.648463	-0.04519	-1.3834
H	-0.274121	1.029991	-1.818344
N	-0.510219	-1.163713	0.783975
O	-1.356095	-1.890987	0.268217
O	-0.046834	-1.28465	1.909978
N	-0.497901	1.229102	0.709679
O	-1.522395	1.128114	1.383708
O	0.126191	2.262072	0.492198
Cl	3.188626	0.0	0.0
