13

C	-0.571016	-0.089774	-1.396952
C	0.0	0.0	0.0
Cl	0.104498	1.155761	-2.464427
H	1.086955	0.0	0.0
H	-0.282661	-1.059707	-1.802781
H	-1.654334	0.025561	-1.378425
N	-0.497931	-1.20859	0.740173
O	-1.551529	-1.098981	1.36742
O	0.149498	-2.236183	0.591467
N	-0.504641	1.176038	0.767827
O	-1.352588	1.90028	0.248989
O	-0.035326	1.307667	1.891693
Cl	3.194589	0.0	0.0
