13

C	-0.457568	-0.066936	-1.428396
C	0.0	0.0	0.0
Cl	-2.213608	-0.349538	-1.60599
H	1.09391	0.0	0.0
H	0.062652	-0.895909	-1.902578
H	-0.212689	0.869172	-1.923087
N	-0.475744	-1.206184	0.74616
O	-0.082435	-2.269801	0.279329
O	-1.227309	-1.072381	1.705202
N	-0.423655	1.237491	0.715546
O	-0.03362	1.349775	1.871606
O	-1.070872	2.077191	0.089117
Cl	3.15862	0.0	0.0
