14

C	-0.154524	0.054269	-1.526673
C	0.0	0.0	0.0
Cl	-0.056206	-1.713795	-2.176463
H	1.088849	0.0	0.0
H	-0.42357	0.911201	0.426527
C	-1.444338	0.526189	-2.040988
N	-2.467487	0.926533	-2.45976
N	0.913646	0.860114	-1.948346
H	1.784496	0.600498	-1.418751
H	1.032679	0.869766	-2.951491
N	-0.696113	-1.136005	0.62615
O	-1.9229	-1.170829	0.487749
O	-0.037842	-1.958374	1.258245
F	2.654774	0.0	0.0
