14

C	-0.127846	-0.195864	-1.517019
C	0.0	0.0	0.0
Cl	-1.748208	-0.90601	-2.028263
H	1.090359	0.0	0.0
H	-0.473228	0.910673	0.350317
C	-0.121074	1.152232	-2.128284
N	-0.004396	2.191179	-2.67076
N	0.950853	-1.003234	-1.967988
H	1.780324	-0.770864	-1.381234
H	1.137625	-0.860797	-2.951658
N	-0.530259	-1.111652	0.794265
O	-1.206157	-0.80989	1.784176
O	-0.255822	-2.260539	0.464358
F	2.608646	0.0	0.0
