14

C	-0.523706	0.222602	-1.420832
C	0.0	0.0	0.0
Cl	-0.057772	1.885458	-1.931839
H	1.102332	0.0	0.0
H	-0.402457	-0.958998	0.345724
C	0.184917	-0.732834	-2.284992
N	0.657047	-1.553623	-2.978459
N	-1.946316	0.080111	-1.689248
H	-2.426756	0.639951	-0.9902
H	-2.191861	-0.889409	-1.506233
N	-0.573961	1.020597	0.913873
O	-1.810782	1.077772	1.017779
O	0.189943	1.754235	1.530981
F	2.539815	0.0	0.0
