14

C	-0.103725	-0.436136	-1.470552
C	0.0	0.0	0.0
Cl	-1.727729	-1.141125	-1.890046
H	1.102814	0.0	0.0
H	-0.487098	0.943525	0.227429
C	0.01536	0.792863	-2.271943
N	0.101331	1.78421	-2.894554
N	0.94112	-1.353186	-1.874632
H	0.756661	-2.214846	-1.369499
H	1.788481	-0.959912	-1.41825
N	-0.50008	-1.008225	0.929758
O	-0.214256	-2.190373	0.724437
O	-1.160508	-0.61821	1.897256
F	2.578214	0.0	0.0
