14

C	-0.137795	0.158136	-1.51961
C	0.0	0.0	0.0
Cl	-0.404048	-1.721703	-2.123319
H	1.09026	0.0	0.0
H	-0.474011	-0.881895	0.410389
C	-1.366266	0.756862	-2.04289
N	-2.34349	1.257946	-2.461814
N	1.011331	0.718178	-2.003007
H	1.100469	0.793248	-3.003677
H	1.86106	0.472168	-1.433389
N	-0.479615	1.17351	0.74836
O	-0.811191	0.977388	1.919433
O	-0.476345	2.274152	0.198047
F	2.629976	0.0	0.0
