14

C	-0.179759	0.096115	-1.524308
C	0.0	0.0	0.0
Cl	-0.039997	-1.571761	-2.222385
H	1.100927	0.0	0.0
H	-0.390844	0.91478	0.454438
C	-1.469141	0.640115	-1.968605
N	-2.470688	1.155794	-2.302233
N	0.9089	0.886015	-2.056994
H	1.748509	0.643527	-1.485393
H	0.697619	1.868158	-1.919304
N	-0.705709	-1.123043	0.644836
O	-0.097562	-1.799	1.470698
O	-1.888497	-1.28969	0.335141
F	2.630482	0.0	0.0
