15
Coordinates from ORCA-job run
  C   -0.56150041216441     -0.34631427565020      0.45111857129610
  C   0.93175135389968     -0.17832082043448      0.14802983475526
  Cl  -0.69951639520480     -1.52836694469926      1.76504489399472
  H   1.38435979633685     -1.15617943517079     -0.01636441379706
  N   -1.18586857652808     -1.06700190070415     -0.79293617238738
  O   -2.36443789539533     -0.82916998546716     -1.00582476673586
  O   -0.45461417581320     -1.82148184244178     -1.42229097205534
  N   -1.20663937288503      0.83955720094571      0.80670207298722
  H   -1.19265722232893      1.49922603331886      0.03861025789503
  H   -2.15626192108113      0.66976482488091      1.11101623641554
  C   1.61193599024764      0.53438171342632      1.21996905845713
  N   2.18656274402157      1.10100427339939      2.07294227682269
  N   1.17143133716720      0.57894622168283     -1.14954246160056
  O   2.30445772377937      0.50042570229440     -1.59643913169751
  O   0.22899702594860      1.20152923461940     -1.62903528434998
