15
Coordinates from ORCA-job run
  C   -0.58529675273521     -0.36988308578007      0.32827739820444
  C   0.73026087843209      0.41396021191518      0.33193793239878
  Cl  -0.43066052646191     -1.76180535696536      1.45738468929080
  H   0.94527298000306      0.67413970830420      1.37408743479938
  N   -0.91249159965050     -0.91128557910703     -1.06645189656823
  O   -0.20763729759906     -0.52900747431716     -1.98926313552589
  O   -1.90925992001305     -1.61466622495840     -1.13170880459162
  N   -1.65236251531581      0.50251253642349      0.62641096610489
  H   -2.53572170131956      0.00503906634518      0.59554287773584
  H   -1.54219795865906      0.94702593450944      1.52944197884033
  C   0.66440626295915      1.63870970441860     -0.45553947403406
  N   0.63398296847616      2.65848465318660     -1.03703656398913
  N   1.96507822990452     -0.37704589626931     -0.09816620575394
  O   1.82876540595086     -1.53460541728426     -0.45807140370727
  O   3.00686154602832      0.25742721957888     -0.00684579320433
