15
Coordinates from ORCA-job run
  C   -0.59247897393866     -0.33799822551306      0.26691013541489
  C   0.93280169208444     -0.17507656611030      0.21208154983472
  Cl  -0.97234428070495     -1.35899348849816      1.72058832687421
  H   1.38690288244919     -1.14485487096950     -0.00292251755754
  N   -1.04795036448643     -1.21632309679181     -0.91398252954379
  O   -0.36059418161220     -2.19411276087587     -1.15583301407050
  O   -2.08981094035777     -0.88600921104374     -1.46098551778062
  N   -1.23071648222220      0.89631521996788      0.18830512360517
  H   -2.22632224411192      0.80987192271742      0.03238299039118
  H   -1.02660316629517      1.49187780632553      0.98118047506410
  C   1.44722977185700      0.40646441829385      1.44173437093413
  N   1.84168782744488      0.86888273795720      2.44681979886238
  N   1.24795528746230      0.73584996506545     -0.96662580444473
  O   0.96325740128864      0.26872857153851     -2.06050051604228
  O   1.72498577114285      1.83537757793658     -0.72915287154133
