15
Coordinates from ORCA-job run
  C   -0.50852377692648     -0.46548942535136     -0.02223096005921
  C   0.59457038934602      0.59730609005814     -0.12600570902423
  Cl  0.09420441637593     -2.05058727161909     -0.62667035132328
  H   0.13501666982879      1.57659481644146      0.02377214680287
  N   -1.62794936996963     -0.05976453323310     -1.00045560952954
  O   -1.39518814806581      0.85213476988908     -1.78394136618309
  O   -2.66673657160549     -0.69309691697935     -0.89568580091507
  N   -1.10983616579913     -0.46949319397838      1.24728414683703
  H   -0.47717093151825     -0.84228589593278      1.94320094392431
  H   -1.96622126458984     -1.01161062282550      1.22192212131293
  C   1.33071854658764      0.57889053972438     -1.38249257550004
  N   1.96355579880792      0.57393922301929     -2.37185401432354
  N   1.62470859695983      0.48578211380192      0.99646658522321
  O   1.63643126637850     -0.51838230238261      1.69734391184107
  O   2.37442054419001      1.44706260936789      1.08034653091657
