16

C	0.0	0.0	0.0
C	-0.464296	0.233994	-1.432361
Cl	1.810681	0.0	0.0
H	-1.555822	0.163058	-1.337131
H	-0.182108	1.263817	-1.693304
N	-0.545016	1.077809	0.78576
H	-1.568591	0.909222	0.631563
H	-0.363178	0.868217	1.764518
C	-0.430416	-1.377036	0.488245
H	-0.067702	-1.540101	1.508457
H	-0.052927	-2.164132	-0.164796
H	-1.524792	-1.332333	0.467772
N	0.035799	-0.775872	-2.366075
H	-0.536082	-0.74857	-3.200372
H	0.984976	-0.543834	-2.634889
F	-2.939051	0.0	0.0
