16

C	0.0	0.0	0.0
C	-0.304242	-0.074815	-1.522372
Cl	1.854876	0.0	0.0
H	0.063503	0.875297	-1.941538
H	0.338679	-0.856933	-1.943768
N	-0.459576	1.237605	0.515283
H	0.080133	2.017221	0.169411
H	-0.508302	1.251688	1.523578
C	-0.61977	-1.133526	0.768182
H	-1.707107	-0.9467	0.679428
H	-0.308528	-1.116694	1.817852
H	-0.349689	-2.098826	0.335633
N	-1.675858	-0.299046	-1.902065
H	-1.857161	-1.295561	-1.857828
H	-2.355982	0.072764	-1.175761
F	-3.36659	0.0	0.0
