16

C	0.0	0.0	0.0
C	-0.517313	0.01626	-1.432111
Cl	1.869568	0.0	0.0
H	-0.100571	-0.8324	-1.98317
H	-1.603095	-0.103133	-1.251644
N	-0.393655	1.207883	0.653928
H	0.204118	1.976914	0.386568
H	-0.381747	1.100814	1.658989
C	-0.553469	-1.189788	0.736854
H	-0.178239	-1.22803	1.765076
H	-0.289063	-2.118658	0.227497
H	-1.649407	-0.995211	0.683919
N	-0.292704	1.248209	-2.179686
H	0.675821	1.538783	-2.085191
H	-0.879642	1.955946	-1.75403
F	-3.017893	0.0	0.0
