16

C	0.0	0.0	0.0
C	-0.531845	0.227733	-1.407734
Cl	1.868035	0.0	0.0
H	-0.126001	1.172127	-1.792602
H	-1.617542	0.315596	-1.194415
N	-0.374411	1.121497	0.797713
H	0.040345	1.970203	0.435042
H	-0.087384	0.993595	1.759172
C	-0.547826	-1.260179	0.613077
H	-1.645991	-1.078768	0.544691
H	-0.231915	-2.145574	0.057714
H	-0.216617	-1.364755	1.651349
N	-0.282457	-0.833926	-2.375932
H	0.672572	-1.164458	-2.282214
H	-0.899547	-1.605299	-2.154353
F	-3.030211	0.0	0.0
