16

C	0.0	0.0	0.0
C	-0.439841	0.011159	-1.473736
Cl	1.811756	0.0	0.0
H	-0.059584	0.935741	-1.926777
H	-1.532322	0.059945	-1.387147
N	-0.538131	1.129433	0.710524
H	-1.563132	0.921063	0.629356
H	-0.363172	1.96205	0.150994
C	-0.457162	-1.261368	0.708785
H	-1.551343	-1.23237	0.637111
H	-0.040708	-2.156262	0.241649
H	-0.134982	-1.222451	1.75135
N	-0.055199	-1.116659	-2.318786
H	0.921285	-1.334668	-2.156094
H	-0.594767	-1.923517	-2.032536
F	-2.924276	0.0	0.0
