16

C	0.0	0.0	0.0
C	-0.2696	-0.10563	-1.54711
Cl	1.799122	0.0	0.0
H	0.44998	0.569036	-2.01888
H	0.014405	-1.125637	-1.8403
N	-0.580101	1.231204	0.471041
H	-1.596976	1.025955	0.373088
H	-0.39633	1.310378	1.468499
C	-0.494474	-1.21785	0.760545
H	-0.209124	-1.146691	1.815829
H	-1.586717	-1.178187	0.670049
H	-0.093662	-2.149041	0.351002
N	-1.57991	0.21524	-2.062329
H	-2.301849	-0.11262	-1.394663
H	-1.677198	1.223159	-1.996382
F	-3.116192	0.0	0.0
