16

C	0.0	0.0	0.0
C	-0.256807	0.026905	-1.554001
Cl	1.810879	0.0	0.0
H	0.479981	-0.629682	-2.026512
H	0.001003	1.050287	-1.866203
N	-0.580478	1.095228	0.719118
H	-1.598359	0.894583	0.65002
H	-0.405333	1.951408	0.201098
C	-0.492279	-1.293664	0.615904
H	-0.097738	-2.15894	0.076721
H	-1.58502	-1.248764	0.549032
H	-0.180772	-1.34639	1.661854
N	-1.569099	-0.325604	-2.056386
H	-2.290775	-0.037319	-1.363138
H	-1.630333	-1.338281	-2.048648
F	-3.112285	0.0	0.0
