16

C	0.0	0.0	0.0
C	-0.531734	0.170074	-1.412062
Cl	1.826903	0.0	0.0
H	-0.513742	-0.840953	-1.829341
H	-1.586809	0.434137	-1.289863
N	-0.278784	1.27697	0.86888
O	-0.402819	2.35687	0.307211
O	-0.313015	1.098819	2.081506
N	-0.518477	-1.145473	0.608554
H	-0.321039	-1.123834	1.602443
H	-1.538183	-1.106579	0.475942
C	0.181641	1.12611	-2.359289
H	-0.37785	1.16061	-3.298377
H	0.225484	2.13408	-1.953479
H	1.196205	0.792738	-2.585337
Cl	-3.619309	0.0	0.0
