13

C	-0.419595	-0.075173	-1.422926
C	0.0	0.0	0.0
F	-1.788755	-0.017015	-1.609943
H	1.089626	0.0	0.0
H	-0.031438	-0.949129	-1.935598
H	-0.400006	0.879967	0.497036
N	0.130283	1.125045	-2.146953
O	0.832271	0.916791	-3.133246
O	-0.207884	2.22718	-1.723134
N	-0.468614	-1.181243	0.723643
O	-0.745085	-1.048006	1.917113
O	-0.509038	-2.259916	0.123298
F	2.50127	0.0	0.0
