13

C	-0.420294	-0.070783	-1.422631
C	0.0	0.0	0.0
F	-1.788841	0.004469	-1.609397
H	1.08966	0.0	0.0
H	-0.043875	-0.949984	-1.934883
H	-0.397373	0.880197	0.498702
N	0.143945	1.121389	-2.14875
O	-0.177732	2.228541	-1.725076
O	0.837234	0.90241	-3.13863
N	-0.471071	-1.18118	0.722062
O	-0.744215	-1.049195	1.916462
O	-0.516897	-2.258558	0.119666
F	2.500748	0.0	0.0
