13

C	-0.453355	0.005972	-1.422522
C	0.0	0.0	0.0
F	0.180177	-0.957993	-2.137857
H	1.091537	0.0	0.0
H	-0.304439	0.979081	-1.893037
H	-0.381765	-0.855865	0.553954
N	-1.953245	-0.279404	-1.554869
O	-2.679892	0.311982	-0.760453
O	-2.329875	-1.04638	-2.434852
N	-0.432298	1.207704	0.705442
O	-0.702731	1.103381	1.901628
O	-0.430717	2.27657	0.089721
F	2.510042	0.0	0.0
