13

C	-0.540058	-0.045918	-1.388937
C	0.0	0.0	0.0
F	-1.913772	-0.066131	-1.438998
H	1.089516	0.0	0.0
H	-0.161797	-0.941435	-1.885829
H	-0.345101	-0.882205	0.53955
N	-0.074808	1.09301	-2.279094
O	-0.91727	1.843737	-2.75482
O	1.129377	1.115365	-2.490314
N	-0.483791	1.162959	0.744893
O	-0.746254	1.014105	1.940154
O	-0.5425	2.242396	0.15101
F	2.502826	0.0	0.0
