13

C	-0.439463	-0.093081	-1.417836
C	0.0	0.0	0.0
F	-1.811925	-0.106576	-1.578622
H	1.08967	0.0	0.0
H	-0.014021	-0.943685	-1.942009
H	-0.409532	0.880547	0.489054
N	0.044312	1.141601	-2.127227
O	-0.475809	2.205473	-1.798569
O	0.906908	0.99332	-2.987297
N	-0.455071	-1.175814	0.739836
O	-0.458587	-2.264148	0.156593
O	-0.753545	-1.02674	1.926175
F	2.499073	0.0	0.0
