13

C	-0.541675	0.016239	-1.406757
C	0.0	0.0	0.0
F	-0.245856	1.209369	-1.988777
H	1.088443	0.0	0.0
H	-1.618647	-0.155483	-1.480601
H	-0.402654	0.894055	0.480315
N	0.080417	-1.084546	-2.232796
O	0.957423	-0.807428	-3.035252
O	-0.388659	-2.198437	-2.006175
N	-0.605846	-1.143841	0.72248
O	0.080769	-2.137787	0.936296
O	-1.788007	-1.027181	1.068068
F	2.547507	0.0	0.0
