13

C	-0.533119	0.004611	-1.402038
C	0.0	0.0	0.0
F	0.214605	0.732117	-2.26195
H	1.089086	0.0	0.0
H	-1.571576	0.333025	-1.487622
H	-0.338269	-0.874175	0.5524
N	-0.552376	-1.430491	-1.905457
O	-1.333448	-2.177782	-1.319929
O	0.158465	-1.732535	-2.853006
N	-0.488483	1.169637	0.728447
O	-0.470548	1.120209	1.959002
O	-0.852571	2.160163	0.082536
F	2.497408	0.0	0.0
