13

C	-0.534182	-0.157397	-1.382602
C	0.0	0.0	0.0
F	-1.876047	-0.455993	-1.415734
H	1.089531	0.0	0.0
H	0.014036	-0.964095	-1.873386
H	-0.307135	-0.876206	0.573372
N	-0.323264	1.043828	-2.28425
O	0.84504	1.306733	-2.529161
O	-1.310876	1.611622	-2.732825
N	-0.534088	1.161572	0.711067
O	-0.741353	1.043266	1.9207
O	-0.690167	2.21163	0.081495
F	2.503519	0.0	0.0
