17

C	-0.614659	-0.01293	-1.397213
C	0.0	0.0	0.0
F	-0.078321	-1.032853	-2.12805
H	1.088592	0.0	0.0
N	-2.028932	-0.048746	-1.47731
H	-2.429897	-0.370173	-0.60743
H	-2.383788	0.867425	-1.71146
N	-0.132624	1.272091	-2.101558
O	1.021353	1.26451	-2.496937
O	-0.931714	2.200761	-2.223787
N	-0.480202	-1.292518	0.625707
O	-1.520018	-1.24905	1.310741
O	0.148142	-2.320346	0.39927
N	-0.454306	1.154278	0.70395
H	-1.335798	0.998028	1.174013
H	0.259319	1.400319	1.376264
F	2.53004	0.0	0.0
