17

C	-0.106728	0.074401	-1.55321
C	0.0	0.0	0.0
F	-0.164237	1.417444	-1.858506
H	1.091074	0.0	0.0
N	0.963428	-0.516147	-2.244421
H	0.787156	-1.508335	-2.322931
H	1.78796	-0.38553	-1.625954
N	-1.448843	-0.474707	-2.03476
O	-1.477728	-1.523426	-2.675988
O	-2.436545	0.169933	-1.680672
N	-0.499567	-1.342731	0.420585
O	-1.414262	-1.410811	1.239988
O	0.029464	-2.324341	-0.110234
N	-0.578512	1.033906	0.773835
H	-1.479621	1.318766	0.412254
H	0.05841	1.817813	0.773252
F	2.604415	0.0	0.0
