17

C	-0.671098	0.044658	-1.358042
C	0.0	0.0	0.0
F	-2.03889	-0.205527	-1.192104
H	1.089282	0.0	0.0
N	-0.438502	1.274488	-1.989311
H	-0.469412	1.992271	-1.27666
H	-1.120781	1.434174	-2.715166
N	-0.190652	-1.046034	-2.321337
O	-1.046588	-1.690452	-2.920425
O	1.016594	-1.120442	-2.475435
N	-0.431533	-1.260555	0.677367
O	-0.329557	-2.303738	0.033182
O	-0.821499	-1.200645	1.847193
N	-0.376516	1.174848	0.738019
H	-1.209215	1.009688	1.288717
H	0.390969	1.386575	1.362446
F	2.49729	0.0	0.0
