17

C	-0.519385	0.051051	-1.422139
C	0.0	0.0	0.0
F	-0.148378	-1.118441	-2.060502
H	1.086352	0.0	0.0
N	-1.897299	0.33123	-1.565306
H	-2.407924	-0.331432	-0.992207
H	-2.157971	0.24962	-2.540954
N	0.177858	1.156171	-2.218507
O	0.018642	1.087964	-3.437074
O	0.766701	2.043007	-1.620616
N	-0.500153	-1.311927	0.576581
O	-1.720759	-1.535145	0.535118
O	0.306777	-2.063664	1.105236
N	-0.475795	1.04546	0.856575
H	0.297345	1.682786	0.990225
H	-1.265682	1.535289	0.459152
F	2.551028	0.0	0.0
