17

C	-0.401223	0.114742	-1.461847
C	0.0	0.0	0.0
F	-1.736139	0.39071	-1.581797
H	1.090316	0.0	0.0
N	0.358641	1.133621	-2.108786
H	1.331869	0.91239	-1.881371
H	0.138463	1.976561	-1.584772
N	-0.157585	-1.17214	-2.245795
O	1.004741	-1.398252	-2.552747
O	-1.133434	-1.861336	-2.521796
N	-0.507753	-1.241775	0.659951
O	-0.202672	-2.315182	0.143823
O	-1.163757	-1.132979	1.700592
N	-0.410116	1.200832	0.665893
H	-1.310682	1.081691	1.109699
H	0.281055	1.404662	1.375453
F	2.541448	0.0	0.0
