17

C	-0.14463	0.065155	-1.534414
C	0.0	0.0	0.0
F	-0.466369	1.413013	-1.885774
H	1.091926	0.0	0.0
N	0.992816	-0.400535	-2.129475
H	1.077979	-0.206794	-3.113465
H	1.834248	-0.267735	-1.528438
N	-1.416306	-0.60397	-2.075088
O	-2.433355	-0.432525	-1.406828
O	-1.359888	-1.18173	-3.153745
N	-0.457061	-1.340564	0.506323
O	-0.808443	-1.433692	1.677056
O	-0.385179	-2.286819	-0.279296
N	-0.543618	1.06536	0.752938
H	-1.348377	1.475146	0.304647
H	0.167941	1.76219	0.906908
F	2.639803	0.0	0.0
