15

C	0.0	0.0	0.0
C	-0.319935	-0.011945	-1.523989
Br	1.962366	0.0	0.0
H	0.458459	0.609747	-1.989682
H	-0.275512	0.970516	0.415431
C	-0.596307	-1.130333	0.796199
H	-1.686817	-1.045747	0.701254
H	-0.277	-2.095159	0.406513
H	-0.318223	-1.040865	1.848541
C	-1.539433	0.680432	-1.974375
N	-2.263757	1.336057	-2.628853
N	-0.292675	-1.381699	-2.037905
H	0.671363	-1.65127	-2.191541
H	-0.787195	-1.430409	-2.919093
Br	-4.108257	0.0	0.0
