15

C	0.0	0.0	0.0
C	-0.552683	-0.31929	-1.379785
Br	1.95702	0.0	0.0
H	-1.647167	-0.272598	-1.234389
H	-0.290534	1.029353	0.212944
C	-0.496168	-0.954036	1.066278
H	-1.589808	-0.940423	1.044597
H	-0.131728	-1.967817	0.883274
H	-0.152792	-0.634662	2.052548
C	-0.20342	-1.690501	-1.797222
N	0.051088	-2.775767	-2.172149
N	-0.16991	0.695707	-2.355271
H	0.785251	0.539082	-2.655733
H	-0.775902	0.621732	-3.163232
Br	-3.875804	0.0	0.0
