15

C	-0.475386	0.006521	-1.441063
C	0.0	0.0	0.0
Cl	-2.392238	0.22722	-1.397006
H	1.094378	0.0	0.0
H	-0.346566	0.922528	0.470078
C	-0.057383	1.210498	-2.165785
N	0.242156	2.172524	-2.76913
N	-0.108933	-1.136245	-2.155175
H	-0.312805	-1.991616	-1.661576
H	-0.457742	-1.15532	-3.102138
C	-0.461323	-1.216471	0.795917
H	0.040761	-2.12509	0.453272
H	-1.543749	-1.359949	0.760534
H	-0.16236	-1.083557	1.837462
Br	3.613675	0.0	0.0
