15

C	-0.537945	0.011014	-1.425722
C	0.0	0.0	0.0
Cl	0.256769	1.393416	-2.354041
H	1.09195	0.0	0.0
H	-0.334267	-0.946524	0.439957
C	-0.155203	-1.20912	-2.149724
N	0.117887	-2.203198	-2.712452
N	-1.966507	0.110762	-1.448646
H	-2.247909	0.960039	-0.975287
H	-2.304905	0.147682	-2.401403
C	-0.491955	1.171478	0.843585
H	0.060561	1.173957	1.784531
H	-1.557984	1.108468	1.08241
H	-0.286201	2.123935	0.3491
Br	3.65063	0.0	0.0
