12

C	-0.593495	0.024473	-1.405916
C	0.0	0.0	0.0
Br	-0.043241	-1.534637	-2.44733
H	1.097675	0.0	0.0
H	-1.680895	-0.032515	-1.334596
H	-0.350699	-0.919266	0.477679
C	-0.25175	1.238482	-2.138356
N	0.020574	2.218284	-2.72539
N	-0.566036	1.162673	0.704183
H	0.084261	1.932544	0.580294
H	-0.566716	0.959431	1.696521
Cl	3.492907	0.0	0.0
