12

C	-0.588851	0.025769	-1.406507
C	0.0	0.0	0.0
Br	-0.043271	-1.536838	-2.4454
H	1.097668	0.0	0.0
H	-1.675977	-0.029988	-1.334212
H	-0.349165	-0.92015	0.476438
C	-0.248465	1.241742	-2.137949
N	0.018558	2.223632	-2.723545
N	-0.567137	1.16181	0.706414
H	0.081799	1.932492	0.584499
H	-0.56644	0.959459	1.69931
Cl	3.49235	0.0	0.0
