12

C	-0.395476	0.000119	-1.456837
C	0.0	0.0	0.0
Br	-2.39288	-0.037514	-1.587631
H	1.094633	0.0	0.0
H	-0.10726	0.94341	-1.919667
H	-0.341742	-0.932196	0.471858
C	0.116137	-1.135083	-2.213056
N	0.527827	-2.052595	-2.824518
N	-0.478171	1.221764	0.637336
H	-1.418005	1.085961	0.997263
H	0.140623	1.42684	1.41579
Cl	3.198086	0.0	0.0
