12

C	-0.499996	0.036055	-1.442697
C	0.0	0.0	0.0
Br	0.080849	1.643076	-2.375864
H	1.092012	0.0	0.0
H	-0.071095	-0.79663	-2.001647
H	-0.315338	-0.976963	0.399442
C	-1.954495	-0.03778	-1.504194
N	-3.123825	-0.141565	-1.52431
N	-0.514117	1.124419	0.761567
H	-1.295407	0.854853	1.339179
H	0.219474	1.492483	1.351109
Cl	3.482827	0.0	0.0
