12

C	-0.49493	0.00238	-1.439556
C	0.0	0.0	0.0
Br	-0.042944	1.675078	-2.358263
H	1.099294	0.0	0.0
H	0.0205	-0.776394	-2.005435
H	-0.331965	-0.953356	0.429047
C	-1.939063	-0.190259	-1.537591
N	-3.092898	-0.394416	-1.619369
N	-0.614887	1.091171	0.756955
H	-0.500204	0.885145	1.742144
H	-0.066485	1.926959	0.584716
Cl	3.498239	0.0	0.0
