12

C	-0.586297	0.048972	-1.40766
C	0.0	0.0	0.0
Br	-0.048836	-1.504655	-2.464856
H	1.097663	0.0	0.0
H	-1.674651	0.004425	-1.340059
H	-0.350389	-0.927617	0.460807
C	-0.234681	1.270511	-2.123508
N	-0.006073	2.277341	-2.683739
N	-0.567177	1.150292	0.724436
H	-0.565853	0.93242	1.713916
H	0.081161	1.922934	0.614276
Cl	3.490283	0.0	0.0
