12

C	-0.446501	0.06067	-1.452124
C	0.0	0.0	0.0
Br	-2.410848	0.259512	-1.584235
H	1.094658	0.0	0.0
H	-0.041396	0.95869	-1.918113
H	-0.358174	-0.934192	0.450247
C	-0.089953	-1.123517	-2.220252
N	0.182976	-2.079191	-2.845674
N	-0.426135	1.212187	0.689915
H	0.306498	1.482161	1.333367
H	-1.278528	1.055987	1.211493
Cl	3.418066	0.0	0.0
