12

C	-0.538567	0.030958	-1.438433
C	0.0	0.0	0.0
Br	0.071395	-1.51169	-2.482445
H	1.092496	0.0	0.0
H	-1.628025	-0.068555	-1.430736
H	-0.340135	0.930502	0.471459
C	-0.210456	1.257971	-2.151552
N	0.012579	2.279077	-2.685371
N	-0.455153	-1.136478	0.778474
H	0.104681	-1.945657	0.544915
H	-1.429092	-1.351138	0.597286
Cl	3.482653	0.0	0.0
