12

C	-0.44042	-0.006305	-1.477619
C	0.0	0.0	0.0
Br	0.055325	1.654792	-2.382446
H	1.09268	0.0	0.0
H	0.083038	-0.802074	-2.010958
H	-0.370148	0.912798	0.473041
C	-1.881837	-0.19028	-1.6131
N	-3.044403	-0.357436	-1.654995
N	-0.460929	-1.163834	0.733197
H	-1.451309	-1.336012	0.606395
H	0.066074	-1.983801	0.461876
Cl	3.49168	0.0	0.0
