14
Coordinates from ORCA-job run
  C   0.79660208444473     -0.66396349184334     -0.09738720226931
  C   -0.54213317549445      0.03710910905709      0.16604610297283
  Br  1.22438465349690     -0.81536755456960     -1.95819421108636
  H   -0.62955115841549      0.06175755150590      1.26064350524224
  H   0.81310565249256     -1.66571251503506      0.33264808747737
  N   1.85218742517267      0.10829166846792      0.66515432263349
  O   1.73625642311250     -0.00487640759946      1.88417584804627
  O   2.67986106968715      0.77798597171085      0.07310353433109
  N   -1.60446123391047     -0.71581326734945     -0.48961457254000
  H   -2.49180978845339     -0.27064723992693     -0.28595874629021
  H   -1.65016636001175     -1.66672033075144     -0.13766992898072
  N   -0.45449155679813      1.40047964144855     -0.28234728546224
  H   -0.57170642749777      1.43978734986974     -1.28798037121551
  H   -1.15907760782507      1.97668951501521      0.15738091714105
