14
Coordinates from ORCA-job run
  C   0.76814754324910     -0.66148303371787      0.18207172906475
  C   -0.51784640572807     -0.03426432378454     -0.35108020912244
  Br  1.33885199492811     -2.17442886604327     -0.86227783206178
  H   -0.41154056454436      0.09475637632937     -1.43427605236859
  H   0.64916417430979     -0.97904332388014      1.21653175780778
  N   1.88743886605248      0.33824821332865      0.18337362852759
  O   1.95652004673332      1.09588752393679     -0.78252710059885
  O   2.65305328685400      0.31415859448663      1.14017172876223
  N   -0.70527170788138      1.21895675367133      0.38131180333421
  H   -1.66785104347758      1.51541233214666      0.27595947442010
  H   -0.11429323545988      1.94768111936456     -0.00238474246608
  N   -1.58316356470264     -0.97352729607061     -0.10472510097965
  H   -2.37645409185101     -0.79288024386448     -0.70417723537435
  H   -1.87775529848188     -0.90847382590309      0.86302815105508
