14
Coordinates from ORCA-job run
  C   0.86305701441373     -0.60832526876682     -0.30130489351930
  C   -0.57392010237267     -0.07643644389886     -0.42334640726320
  Br  1.77474738759392     -0.54809851338043     -1.99738040706273
  H   -0.92162469113935     -0.42467737060288     -1.40393593720915
  H   0.86024430095715     -1.64940511809561      0.02657973613167
  N   1.69141370815126      0.11149658939789      0.75219651646601
  O   2.90434394739444     -0.03612786061027      0.70794236813275
  O   1.07568919163497      0.72313541109674      1.61948247423735
  N   -0.58089661296516      1.35952923519885     -0.47493484347405
  H   -1.42447075267283      1.70566771176377     -0.90856500558960
  H   -0.47201324933125      1.75223512036510      0.44973419088158
  N   -1.35390804068597     -0.65237060455989      0.67628171743420
  H   -1.67676888750108     -1.58280176560258      0.43452810570618
  H   -2.16789321347716     -0.07482112230500      0.84372238512829
