14
Coordinates from ORCA-job run
  C   0.86744167938434     -0.40493463897156     -0.32742326840355
  C   -0.41981316159343      0.38286506637924     -0.10303386468302
  Br  1.97649694249574      0.34945850565871     -1.71910426179763
  H   -0.12985076707226      1.40349365779209      0.17605762020045
  H   0.66007062442699     -1.44151638486634     -0.58548816457097
  N   1.64771090812374     -0.42300924022362      0.95281668431578
  O   1.90634612226180      0.65972927143321      1.46299389046689
  O   1.94526665151532     -1.52879363778255      1.39092730594895
  N   -1.06727340346676     -0.22645558603649      1.03564704182718
  H   -1.65436849146162     -0.99055243270973      0.72309920683140
  H   -1.62487805374969      0.43953260848459      1.55114439668079
  N   -1.23610425257650      0.28292648165026     -1.30635652455148
  H   -2.10194235079381      0.78675704008015     -1.15276859544842
  H   -0.76910244749386      0.70949928911204     -2.09851146681640
