14
Coordinates from ORCA-job run
  C   0.77276268423936     -0.67771035830924     -0.34823354705323
  C   -0.60180608564277      0.02078649307052     -0.42416298474482
  Br  1.75010058762139     -0.46728634076503     -1.98464809210521
  H   -1.05439893929371     -0.38008810361221     -1.33995313535114
  H   0.66343579784735     -1.74490983156305     -0.16020420084143
  N   1.54764055284086     -0.13498962579348      0.82392114312446
  O   1.17944694071945     -0.59855594233453      1.90733314530924
  O   2.39950771368920      0.72115782581124      0.66208948264604
  N   -0.39924647140187      1.45556670283941     -0.53504408199685
  H   -0.69410284539672      1.81317884081029     -1.43218672012134
  H   -0.94814113931023      1.89584473226436      0.19101534897809
  N   -1.42027247782192     -0.29914159714783      0.73381831351930
  H   -0.92754818798186     -0.82677624416872      1.43938744578987
  H   -2.26737813010853     -0.77707655110172      0.46686788284703
