14
Coordinates from ORCA-job run
  C   0.73357333008191     -0.64027708013665      0.18106988226082
  C   -0.56490150789766     -0.07583605445948     -0.41312818235399
  Br  1.36939921995850     -2.21336227865269     -0.72260866719058
  H   -0.41791342001567      0.00101050242465     -1.49319557746392
  H   0.63002219693101     -0.87609783814279      1.24064427552659
  N   1.78550574868402      0.42683403760004      0.10872103705415
  O   2.24255330661311      0.81988819558237      1.17979553516352
  O   2.05958662575005      0.86760987668455     -1.00195531743579
  N   -0.87521935552640      1.25919199859469      0.07428573265875
  H   -0.25037787516219      1.95852487550515     -0.30733535094106
  H   -0.84634116239060      1.30873240615390      1.08658267653752
  N   -1.60763677448167     -1.03999777721165     -0.15482965703529
  H   -1.80961788128532     -1.07089882743209      0.83929856310773
  H   -2.45163245125908     -0.72532203651000     -0.61834494988843
