14
Coordinates from ORCA-job run
  C   0.70444185864985     -0.61307526565798      0.14500129857903
  C   -0.63096336294244      0.15544606532089      0.10541163449050
  Br  1.23941295186772     -1.33320227409189     -1.55725044905824
  H   -0.70444223038419      0.60597538307491      1.11296160512690
  H   0.63759767497843     -1.44379319499140      0.84478161409942
  N   1.80150911278731      0.25906591593430      0.69329798472890
  O   2.32039401793328     -0.11746771427981      1.74156661696628
  O   2.06465550853113      1.29608666287264      0.09110949927446
  N   -1.77903502840329     -0.70300969674781     -0.05682928912467
  H   -1.72440139965509     -1.17098715082787     -0.95399801013220
  H   -1.85272996389776     -1.38667207292590      0.68578312451016
  N   -0.66440704000175      1.09896481294316     -0.98167788337833
  H   -1.53242484366576      1.61609830063764     -0.92810155430546
  H   0.12039274420259      1.73557022873913     -0.94405619177674
