14
Coordinates from ORCA-job run
  C   0.49301877205958     -0.48019513959368     -0.73497158597341
  C   -0.35706090000839     -0.14127271001787      0.46018521745044
  H   0.46785658608482     -1.55378230911225     -0.92602308517571
  H   -0.02909387170457     -0.61581761738298      1.38138657590318
  H   0.18468688532249      0.07196222726972     -1.62052803653110
  N   1.92228074355897     -0.11666379796184     -0.47604618755510
  O   2.24343071867769      0.13550636327515      0.68241725556499
  O   2.65962387109066     -0.13342584496156     -1.45168662311924
  N   -1.76348038759007     -0.61584223179000      0.18419899556002
  O   -1.88934528083789     -1.83446950670655      0.18917277459562
  O   -2.62466925337846      0.22339877088112     -0.03912295966038
  N   -0.41120259626289      1.33201695391449      0.71785927454051
  O   -0.12288566327521      2.07922385206375     -0.21057400625206
  O   -0.77115962373674      1.65036099012250      1.84473239065224
