14
Coordinates from ORCA-job run
  C   0.64054423121377     -0.77353149960784     -0.07610653709412
  C   -0.55248215161496      0.13752475477261     -0.18773968432053
  H   0.92616962253964     -0.94097976786019      0.96048817612047
  H   -0.82027933758893      0.38777315860760     -1.21099477432922
  H   0.44124411106848     -1.72250182905171     -0.57558181317728
  N   1.82592737573497     -0.16284714600477     -0.75709968036583
  O   1.62328461397018      0.79411614866214     -1.50003977004950
  O   2.90218481150105     -0.69877671603004     -0.53304762005689
  N   -0.35114031903616      1.42728667008102      0.54409169196103
  O   0.50872498724902      1.45283189910360      1.41783869030970
  O   -1.09873476197671      2.33814462945517      0.20923776075049
  N   -1.73798784606857     -0.56544172796944      0.42905354499686
  O   -2.14824385340029     -1.51823654361748     -0.22259965797538
  O   -2.16021148359149     -0.15636203054067      1.50149967323021
