14
Coordinates from ORCA-job run
  C   0.67414672231936     -0.72525091826083     -0.18544608299774
  C   -0.54164423058989      0.16232509935677     -0.20104626281300
  H   0.55304183198199     -1.54555488884825     -0.89417090619826
  H   -0.73815253784791      0.62053745272227     -1.16683276930293
  H   0.88261920148536     -1.10932588520412      0.81106022535753
  N   1.88461461723461      0.04534865460589     -0.61276731163310
  O   2.96110204473264     -0.49482902492366     -0.40013408687682
  O   1.70279982342917      1.12760539737030     -1.16445833350113
  N   -0.44814326142522      1.26843674587908      0.80231863395148
  O   0.34193595901158      1.12560796223886      1.72910149034731
  O   -1.20436649430799      2.21254463374132      0.60831261181385
  N   -1.74255007638362     -0.68222936361117      0.14996531367516
  O   -2.25844450478676     -0.52694915465645      1.24795714427427
  O   -2.06695909485333     -1.47726671041001     -0.72385966609661
