15
Coordinates from ORCA-job run
  C   -0.47772991005802      0.23295169020735     -0.61001321181005
  C   0.93098460315687      0.24783509261136     -0.00782015102054
  F   -0.39152950629596      0.84082085467462     -1.82976880744782
  H   1.62964614289417     -0.11482000068132     -0.76189004755349
  N   -0.79726755004674     -1.24782269372927     -0.99461498202051
  O   0.15707901967083     -1.97837792182372     -1.24117878222660
  O   -1.98458157962444     -1.53319022676857     -1.07164868576270
  N   -1.45376517471682      0.85270762534589      0.15243591332412
  H   -1.49669038988631      0.46627527637620      1.08578189201424
  H   -2.35767018756748      0.80207177541190     -0.30088539651371
  N   1.06852864440209     -0.71006915836437      1.15733488244822
  O   2.19777253967660     -1.11807310139753      1.37707551051649
  O   0.05061033771621     -0.97275543152087      1.79119152302729
  C   1.29997301243392      1.58263674857900      0.44261981866560
  N   1.62363999824509      2.64980947107932      0.81038052435947
