15
Coordinates from ORCA-job run
  C   -0.55900565335935      0.20001569463335     -0.55064277842716
  C   0.89658231885139      0.34174521583340     -0.09325501157396
  F   -0.66007002981550      0.84368717634353     -1.75061478396975
  H   1.54526874308329      0.07428264806300     -0.92739752632203
  N   -0.77105925623708     -1.29497589823244     -0.95335287645429
  O   -1.92809434700776     -1.69247210153389     -0.93026142162532
  O   0.22026676064407     -1.92283160604902     -1.31171202723332
  N   -1.50616224181087      0.69829341866650      0.32832814848029
  H   -1.40833444405528      0.29135947153099      1.24872525075512
  H   -2.44355877818032      0.56167405474318     -0.02905496429235
  N   1.24825441667396     -0.63031828735503      1.01372962078416
  O   0.33631064710726     -0.99518006320976      1.75002411450463
  O   2.42514573184493     -0.94509442783674      1.08900515332586
  C   1.17594638628025      1.69372042750165      0.37022133960743
  N   1.42850974598100      2.77709427690128      0.74625776244068
