15
Coordinates from ORCA-job run
  C   -0.39663476516321      0.02255101545561     -0.65410463023481
  C   0.72180014241035      0.49171908264596      0.27732199833446
  F   0.13956321396403     -0.14126009128385     -1.90671881304324
  H   1.19683648061510      1.35184654125233     -0.20912614039120
  N   -0.93856438952506     -1.33727828685631     -0.23064069674381
  O   -0.67461674693671     -1.71921668092975      0.90100805001517
  O   -1.64702896959002     -1.88890969206371     -1.06153907940073
  N   -1.49095887876143      0.89504855233414     -0.61288750602292
  H   -1.23696381410005      1.84520326567591     -0.85093983808840
  H   -2.23115172680684      0.56567813005892     -1.22237152742291
  N   1.86098286170399     -0.51710695515533      0.41314775738186
  O   1.85386150547927     -1.49113186909093     -0.32262228948627
  O   2.71453512550775     -0.20706753781740      1.23118378487463
  C   0.25608254793401      0.88063262913187      1.59949830426970
  N   -0.12474258673119      1.24729189664255      2.64779062595846
