15
Coordinates from ORCA-job run
  C   -0.47162965529215     -0.05367867075155     -0.69012078983032
  C   0.75741160349617      0.50010459468895      0.07319673868453
  F   -0.01159035951533     -0.43778349590722     -1.89962344606187
  H   1.18889978934364      1.28437646345051     -0.55442370576396
  N   -0.98805636638031     -1.29655442266847      0.03871835232320
  O   -0.68364560972394     -2.38156285119980     -0.42723261679207
  O   -1.65669334246976     -1.06436216365942      1.03940215752749
  N   -1.56241366231122      0.81918652804755     -0.83374263095053
  H   -1.30411136397930      1.70207250068591     -1.25304397320672
  H   -2.06715930747474      0.94480771459400      0.03311826881716
  N   1.82789252679856     -0.56457067141311      0.18989852324917
  O   2.73762693341166     -0.50145048917822     -0.62713309574038
  O   1.66418702009835     -1.40289568544670      1.06857846513393
  C   0.41227799225073      1.01330007693680      1.38865458916072
  N   0.15700380174764      1.44001057182077      2.45275316344965
