16

C	-0.476425	0.003321	-1.46717
C	0.0	0.0	0.0
Br	0.164247	-1.589588	-2.445112
H	1.099307	0.0	0.0
C	-1.94039	-0.001859	-1.550552
N	-3.115713	-0.055701	-1.567511
C	0.044319	1.174209	-2.174346
N	0.427734	2.10661	-2.777789
C	-0.540537	-1.172915	0.792421
H	-1.63177	-1.13126	0.915788
H	-0.276131	-2.128742	0.337878
H	-0.074068	-1.140798	1.780011
N	-0.429532	1.295731	0.52776
H	0.387175	1.743524	0.927222
H	-1.143247	1.197591	1.241064
F	2.593449	0.0	0.0
