16

C	-0.364993	-0.043907	-1.465761
C	0.0	0.0	0.0
Br	-2.379428	-0.028917	-1.77074
H	1.102744	0.0	0.0
C	0.129665	1.135997	-2.172965
N	0.506325	2.071717	-2.775556
C	0.107074	-1.260022	-2.126759
N	0.470325	-2.248552	-2.649124
C	-0.478084	-1.208438	0.778061
H	-0.170561	-2.143122	0.302556
H	-0.007753	-1.17561	1.763816
H	-1.568749	-1.219402	0.90411
N	-0.413329	1.284262	0.541908
H	-1.20064	1.188007	1.1723
H	0.375893	1.665029	1.05068
F	2.549932	0.0	0.0
