16

C	-0.494588	-0.019131	-1.461796
C	0.0	0.0	0.0
Br	0.132601	-1.629267	-2.418318
H	1.099308	0.0	0.0
C	-1.957813	-0.02668	-1.526648
N	-3.131928	-0.081709	-1.532164
C	0.015818	1.139277	-2.19848
N	0.392156	2.058728	-2.82794
C	-0.539924	-1.152933	0.818957
H	-0.292794	-2.119274	0.372007
H	-0.05574	-1.113186	1.798131
H	-1.628563	-1.098052	0.959972
N	-0.431247	1.308855	0.507437
H	-1.086229	1.217565	1.272515
H	0.396707	1.788009	0.844321
F	2.599123	0.0	0.0
