16

C	-0.325815	0.003504	-1.523674
C	0.0	0.0	0.0
Br	0.414334	-1.57721	-2.443544
H	1.095577	0.0	0.0
C	-1.769664	0.005261	-1.768339
N	-2.942986	0.018535	-1.856766
C	0.266136	1.183111	-2.157046
N	0.719931	2.126943	-2.689575
C	-0.613781	-1.18178	0.716252
H	-0.262817	-1.14467	1.748918
H	-1.711717	-1.143579	0.72491
H	-0.294722	-2.130271	0.281406
N	-0.436778	1.247634	0.60134
H	-1.371894	1.53577	0.32835
H	0.232072	1.976192	0.385839
F	2.589225	0.0	0.0
