16

C	-0.37038	0.164881	-1.455373
C	0.0	0.0	0.0
Br	-2.385352	0.192208	-1.757152
H	1.109533	0.0	0.0
C	0.101501	1.444425	-1.98137
N	0.467455	2.460849	-2.443882
C	0.120824	-0.930945	-2.289224
N	0.493862	-1.827478	-2.951771
C	-0.475481	-1.306627	0.599244
H	0.006065	-1.420659	1.574272
H	-0.179329	-2.163411	-0.011853
H	-1.565002	-1.331413	0.734618
N	-0.41386	1.193026	0.723569
H	-1.168695	0.996421	1.368265
H	0.390577	1.52148	1.243425
F	2.549458	0.0	0.0
