16

C	-0.382321	0.2699	-1.433712
C	0.0	0.0	0.0
Br	-2.404709	0.28617	-1.714466
H	1.110466	0.0	0.0
C	0.060418	1.593968	-1.866566
N	0.404253	2.64751	-2.257162
C	0.115401	-0.752753	-2.352633
N	0.495589	-1.591987	-3.082703
C	-0.452843	-1.357447	0.500297
H	-0.154713	-2.159983	-0.179586
H	0.045139	-1.540591	1.45599
H	-1.53957	-1.407674	0.648413
N	-0.419587	1.127519	0.81576
H	-1.215924	0.893039	1.397112
H	0.362459	1.381762	1.407109
F	2.546938	0.0	0.0
