16

C	-0.463138	0.161137	-1.463256
C	0.0	0.0	0.0
Br	0.325947	1.783943	-2.248747
H	1.110142	0.0	0.0
C	-0.048161	-0.963202	-2.302752
N	0.245635	-1.884935	-2.970683
C	-1.918612	0.303992	-1.545102
N	-3.09317	0.368435	-1.54037
C	-0.498954	-1.319447	0.568648
H	-0.165945	-2.170862	-0.029474
H	-1.594139	-1.356626	0.660365
H	-0.060449	-1.432417	1.563559
N	-0.466449	1.15983	0.747712
H	0.336517	1.54872	1.226397
H	-1.16555	0.903198	1.433377
F	2.594373	0.0	0.0
