12
Coordinates from ORCA-job run
  C   0.11189803393425      0.02435246658991      0.22443004942629
  C   -0.94607141943953     -0.91578069088394     -0.31464519862995
  Br  0.10330982667150     -0.18572785497900      2.24779832072429
  H   -1.93991706488409     -0.63855099473759      0.04091972223374
  H   -0.72370925926342     -1.93422284722237     -0.00326685127790
  H   -0.93460361557144     -0.85742358159634     -1.40697790378648
  N   1.42699207977472     -0.41112903269628     -0.17467933580924
  H   2.14258429293251      0.09179203223181      0.33640424643798
  H   1.53096332242808     -0.20238332419677     -1.16328035316140
  N   -0.17285219632822      1.36647106046992     -0.15567925550975
  H   -1.10015190015465      1.65234294299041      0.13433621954690
  H   0.50355789990030      2.01125982403024      0.23464033980553
