12
Coordinates from ORCA-job run
  C   0.11744220713573      0.11822131933182      0.05636957709952
  C   -0.91118268769492     -0.93736618380208     -0.26912439568520
  Br  0.22734090421925     -0.00050000664096      2.25356575537169
  H   -0.58391347120279     -1.91614762993629      0.07984653171139
  H   -1.03714084193514     -0.95468759378321     -1.35461553199025
  H   -1.86317009171311     -0.70941344318411      0.20905341035046
  N   1.38366079896000     -0.18143601729837     -0.45200209690223
  H   1.69925717830906     -1.09000273205960     -0.14325841723676
  H   2.07941158628654      0.51163752897162     -0.20863094669586
  N   -0.30075944725074      1.40751341603621     -0.28187631824178
  H   0.37671474259284      2.11781667766570     -0.03661696500636
  H   -1.18666087770673      1.63236466469927      0.14828939722539
