12
Coordinates from ORCA-job run
  C   0.12592500965303      0.14456278693628      0.23386224623712
  C   -0.84636438184180     -0.90547915737715     -0.27965571028055
  Br  0.10048879233656     -0.07416863542775      2.27927603129971
  H   -0.53857647400033     -1.90009825580842      0.04223190126682
  H   -0.84743176412613     -0.85997427716346     -1.37282588264057
  H   -1.85997056793057     -0.72658712444856      0.08498168861585
  N   1.50883225192338     -0.02340864293838     -0.12251010727606
  H   1.85761036121296     -0.92045017414058      0.18840782210851
  H   1.58725183241287      0.04486547975804     -1.13182911907519
  N   -0.25713206827949      1.43370529332680     -0.18089261556811
  H   -1.20940270552275      1.65762776797311      0.07238747996279
  H   0.37976971416227      2.12940493931007      0.18556626534967
