12
Coordinates from ORCA-job run
  C   0.04550425302656      0.11730591977930      0.37369921604721
  C   -0.81537926724792     -0.89521833173623     -0.36641592770197
  Br  -0.10483863255896     -0.31245167028165      2.31689723310655
  H   -0.48173224509542     -1.91079194476459     -0.15409808686836
  H   -1.86257865346467     -0.79674917871026     -0.07902773981536
  H   -0.72121954388405     -0.71804021467453     -1.44464031362228
  N   1.46949629641929      0.05304311070680      0.09738716802735
  H   1.85205049726382     -0.84960086911292      0.35436713842792
  H   1.60934031609566      0.19524669591947     -0.89875047673012
  N   -0.46772850090965      1.43147280176230      0.16530999028331
  H   0.22603615909411      2.11877524237007      0.43158439848956
  H   -0.74895067873877      1.56700843874222     -0.79731259964381
