17

C	-0.20776	0.222027	-1.521921
C	0.0	0.0	0.0
F	-0.062006	-1.078681	-2.097206
H	1.092263	0.0	0.0
C	-1.575669	0.693767	-1.960708
H	-1.600667	0.751741	-3.052955
H	-1.783247	1.679358	-1.544621
H	-2.338899	-0.010221	-1.627598
N	0.83781	1.088718	-1.89349
H	1.717323	0.780724	-1.442192
H	0.917304	1.162118	-2.898844
N	-0.608651	-1.290221	0.417216
O	-1.827299	-1.301824	0.625307
O	0.125763	-2.267585	0.499016
C	-0.553296	1.084341	0.782311
N	-0.964831	1.984591	1.416185
F	2.57971	0.0	0.0
