17

C	-0.381754	-0.032595	-1.478155
C	0.0	0.0	0.0
F	-1.79384	0.199772	-1.588723
H	1.091249	0.0	0.0
C	0.335927	1.125147	-2.143518
H	-0.083536	2.076195	-1.8175
H	1.385145	1.053835	-1.850158
H	0.233373	1.049951	-3.230031
N	-0.02952	-1.242146	-2.122492
H	-0.308645	-1.190659	-3.094276
H	-0.46535	-2.028118	-1.663607
N	-0.469677	-1.118973	0.850594
O	-0.765327	-2.198755	0.32814
O	-0.479335	-0.927298	2.06576
C	-0.448398	1.239701	0.609452
N	-0.782408	2.272319	1.059946
F	2.48283	0.0	0.0
