17

C	-0.194467	0.025509	-1.538241
C	0.0	0.0	0.0
F	0.235633	-1.205168	-2.013846
H	1.095078	0.0	0.0
C	-1.611491	0.237358	-2.017358
H	-2.240361	-0.576181	-1.652564
H	-1.612815	0.234107	-3.108326
H	-2.007016	1.189975	-1.657846
N	0.723493	0.996418	-2.073018
H	1.613522	0.841851	-1.581286
H	0.398488	1.933392	-1.873319
N	-0.560318	-1.132828	0.772638
O	-1.034966	-2.096666	0.172258
O	-0.485053	-1.044006	1.999249
C	-0.46868	1.240992	0.580197
N	-0.845933	2.28099	0.980696
F	2.515271	0.0	0.0
