16

C	0.0	0.0	0.0
C	-0.627017	-0.21537	-1.359094
Br	1.945356	0.0	0.0
H	-1.716133	-0.339769	-1.195048
H	-0.29533	1.001237	0.310619
C	-0.474978	-1.03623	1.009034
H	-0.094375	-0.774312	1.998083
H	-0.115176	-2.032042	0.748501
H	-1.566469	-1.028469	1.022642
N	-0.085088	-1.424502	-2.048025
O	0.834546	-1.275529	-2.847755
O	-0.580888	-2.495876	-1.708695
N	-0.479302	0.941012	-2.29999
O	0.034705	1.97518	-1.884031
O	-0.947217	0.768243	-3.420271
Cl	-3.615756	0.0	0.0
