16

C	0.0	0.0	0.0
C	-0.620266	-0.145859	-1.37215
Br	1.939563	0.0	0.0
H	-1.710474	-0.275513	-1.221482
H	-0.302451	0.9825	0.35993
C	-0.480319	-1.088151	0.949125
H	-0.123367	-0.866045	1.956484
H	-0.101621	-2.066077	0.651572
H	-1.572073	-1.093101	0.942411
N	-0.078971	-1.319966	-2.118665
O	0.846212	-1.135054	-2.904414
O	-0.584003	-2.404819	-1.838322
N	-0.465291	1.058634	-2.251715
O	-0.918059	0.942078	-3.386003
O	0.036626	2.072494	-1.775074
Cl	-3.609428	0.0	0.0
