16

C	0.0	0.0	0.0
C	-0.622839	-0.156177	-1.370088
Br	1.943194	0.0	0.0
H	-1.71064	-0.299487	-1.217653
H	-0.299942	0.986439	0.351272
C	-0.479142	-1.076025	0.963625
H	-1.571062	-1.062625	0.97445
H	-0.123312	-2.061198	0.661758
H	-0.099223	-0.856984	1.963062
N	-0.067015	-1.322412	-2.118409
O	-0.53315	-2.417645	-1.813688
O	0.831627	-1.121547	-2.930545
N	-0.486817	1.049286	-2.250823
O	0.037544	2.059122	-1.790388
O	-0.972097	0.935278	-3.371289
Cl	-3.612266	0.0	0.0
