18

C	0.0	0.0	0.0
C	-0.290228	-0.188229	-1.527028
F	1.373362	0.0	0.0
H	-0.111974	-1.26426	-1.656952
N	-0.352031	1.410953	0.453495
O	-0.42531	1.602052	1.663448
O	-0.433036	2.279932	-0.409126
C	-0.663251	-1.000427	0.87956
H	-0.356318	-0.860559	1.916598
H	-1.754108	-0.807914	0.741136
H	-0.392369	-2.004551	0.542935
C	0.760791	0.469658	-2.323073
N	1.545411	0.965084	-3.043533
C	-1.650176	0.148611	-2.146899
H	-1.732578	1.227172	-2.273595
H	-2.464891	-0.15248	-1.458527
H	-1.692521	-0.327819	-3.132377
F	-3.171219	0.0	0.0
