18

C	0.0	0.0	0.0
C	-0.61867	-0.035884	-1.38612
F	1.360024	0.0	0.0
H	-1.727575	0.069555	-1.099191
N	-0.340755	1.34109	0.68712
O	-1.003653	2.188965	0.104142
O	0.138604	1.476977	1.811877
C	-0.509517	-1.095854	0.901464
H	-0.103088	-0.947854	1.902232
H	-0.16826	-2.05683	0.510762
H	-1.604786	-1.011409	0.869638
C	-0.408248	-1.367435	-1.942231
N	-0.231252	-2.416316	-2.444382
C	-0.075956	0.996035	-2.380088
H	-0.342323	2.001897	-2.064612
H	1.011528	0.921576	-2.474272
H	-0.514239	0.817846	-3.364779
F	-2.888361	0.0	0.0
