18

C	0.0	0.0	0.0
C	-0.604854	-0.060461	-1.393466
F	1.359887	0.0	0.0
H	-1.710802	0.067074	-1.125306
N	-0.348116	1.350857	0.659138
O	0.077264	1.489232	1.804725
O	-0.955246	2.20827	0.032061
C	-0.5088	-1.086096	0.913313
H	-0.161671	-2.050104	0.535552
H	-0.10848	-0.923812	1.913817
H	-1.604098	-1.003282	0.87305
C	-0.414895	-1.410107	-1.91504
N	-0.254805	-2.47166	-2.395227
C	-0.026066	0.931201	-2.407743
H	-0.267212	1.951867	-2.121624
H	1.059876	0.824425	-2.487872
H	-0.458037	0.738981	-3.392995
F	-2.872682	0.0	0.0
