18

C	0.0	0.0	0.0
C	-0.626964	-0.017967	-1.38095
F	1.359978	0.0	0.0
H	-1.737308	0.068579	-1.084649
N	-0.333151	1.336646	0.70283
O	-1.063796	2.158139	0.165414
O	0.21061	1.487509	1.79615
C	-0.513438	-1.098129	0.896715
H	-0.100089	-0.958719	1.896152
H	-0.182652	-2.059896	0.498852
H	-1.608226	-1.004522	0.869651
C	-0.394859	-1.333843	-1.964795
N	-0.202169	-2.370584	-2.486262
C	-0.109157	1.048602	-2.351033
H	0.980846	1.010191	-2.437816
H	-0.410161	2.03882	-2.01772
H	-0.534552	0.877187	-3.342467
F	-2.903559	0.0	0.0
