18

C	0.0	0.0	0.0
C	-0.464146	-0.107281	-1.471422
F	1.371018	0.0	0.0
H	0.456869	0.053293	-2.048112
N	-0.303828	1.392034	0.554076
O	0.025516	2.32413	-0.178869
O	-0.70711	1.507014	1.703214
C	-0.45227	-1.052849	0.972285
H	-1.543357	-0.967589	1.008724
H	0.017308	-0.856056	1.936564
H	-0.121741	-2.028138	0.610445
C	-1.399701	0.917887	-1.945998
N	-2.017925	1.70436	-2.562294
C	-1.053816	-1.479976	-1.810772
H	-1.965019	-1.554187	-1.216371
H	-0.346775	-2.285256	-1.592783
H	-1.294135	-1.514164	-2.877188
F	-2.65741	0.0	0.0
