18

C	0.0	0.0	0.0
C	-0.636477	-0.077307	-1.375341
F	1.360219	0.0	0.0
H	-1.745103	0.024537	-1.074108
N	-0.330541	1.371188	0.634271
O	-1.135214	2.121979	0.100988
O	0.276433	1.610219	1.677887
C	-0.515356	-1.052506	0.952123
H	-0.110358	-0.856631	1.946421
H	-1.612297	-0.965512	0.914566
H	-0.178309	-2.030954	0.606454
C	-0.414331	-1.414972	-1.90926
N	-0.217034	-2.465598	-2.400733
C	-0.127376	0.953037	-2.385505
H	-0.386785	1.957924	-2.057053
H	0.956139	0.883028	-2.519366
H	-0.60311	0.782171	-3.354087
F	-2.920842	0.0	0.0
