18

C	0.0	0.0	0.0
C	-0.624673	-0.015628	-1.382904
F	1.359912	0.0	0.0
H	-1.735117	0.085148	-1.085443
N	-0.335887	1.332563	0.707792
O	-1.002604	2.187566	0.14415
O	0.151569	1.45343	1.831112
C	-0.510597	-1.106281	0.888353
H	-1.605479	-1.015819	0.863144
H	-0.097666	-0.976138	1.888963
H	-0.178835	-2.063439	0.480846
C	-0.421227	-1.339269	-1.959129
N	-0.256358	-2.382644	-2.476569
C	-0.089525	1.031304	-2.364916
H	-0.533379	0.865968	-3.349723
H	-0.356221	2.032241	-2.034008
H	0.997824	0.960968	-2.467323
F	-2.89161	0.0	0.0
