15

C	-0.491324	-0.034082	-1.425065
C	0.0	0.0	0.0
F	-0.025876	1.118449	-2.102924
H	1.092675	0.0	0.0
H	-0.346978	-0.920932	0.482522
C	0.072929	-1.181257	-2.175656
N	0.445426	-2.09692	-2.807741
N	-1.919436	-0.108127	-1.542152
H	-2.322056	0.632168	-0.981176
H	-2.189953	0.034349	-2.509092
C	-0.480071	1.233432	0.757023
H	-1.553681	1.250112	0.991665
H	0.066972	1.283251	1.701238
H	-0.227813	2.135121	0.195084
F	2.664032	0.0	0.0
