15

C	-0.151902	0.019402	-1.530981
C	0.0	0.0	0.0
F	-0.436737	-1.308009	-1.947107
H	1.093309	0.0	0.0
H	-0.457544	-0.900418	0.411474
C	-1.319243	0.800531	-2.012958
N	-2.251095	1.428536	-2.356123
N	1.046328	0.462129	-2.151015
H	1.845744	0.390462	-1.481947
H	0.974887	1.361907	-2.596498
C	-0.476432	1.277431	0.674996
H	-0.202405	1.255387	1.733166
H	-1.557665	1.438544	0.599347
H	0.03052	2.140338	0.23379
F	2.750158	0.0	0.0
