14

C	-0.016433	0.06703	-1.474038
C	-0.031202	0.045974	0.056223
Br	-1.890861	0.538213	-2.108325
H	1.044698	-0.0489	0.27634
H	-0.396358	1.023646	0.387189
N	0.93182	0.952037	-2.045852
H	0.772318	1.865885	-1.626998
H	1.862761	0.562614	-1.610352
C	0.2089	-1.298094	-1.971
N	0.356544	-2.411259	-2.316085
N	-0.886969	-1.002368	0.614297
H	-0.994294	-0.834641	1.607658
H	-0.39816	-1.886768	0.522428
F	2.766831	-0.125227	-0.709266
