14

C	-0.641007	0.105002	-1.50425
C	0.057443	0.154058	-0.12279
Br	0.454943	-1.126289	-2.724766
H	1.141537	0.230219	-0.255085
H	-0.321536	1.077396	0.33971
N	-1.95604	-0.357162	-1.32311
H	-1.856851	-1.126465	-0.650783
H	-2.390412	-0.650226	-2.187552
C	-0.606288	1.388198	-2.202872
N	-0.582449	2.446299	-2.714938
N	-0.264813	-1.04529	0.615984
H	0.737415	-1.459974	0.818208
H	-0.6678	-0.77312	1.504392
F	2.14357	-1.546345	0.96491
