13

C	-0.484653	-0.010146	-1.466614
C	0.0	0.0	0.0
Cl	0.131197	1.388263	-2.384461
H	1.095201	0.0	0.0
H	-1.576887	0.065736	-1.486405
C	-0.106955	-1.259013	-2.12607
N	0.170055	-2.265222	-2.664454
N	-0.415023	-1.181409	0.73651
H	-1.330568	-1.514672	0.461305
H	0.273233	-1.910265	0.598867
C	-0.525408	1.205993	0.649177
N	-0.99851	2.150669	1.16197
Br	3.410521	0.0	0.0
