13

C	-0.402141	-0.025152	-1.471449
C	0.0	0.0	0.0
Cl	-2.186975	-0.183798	-1.661743
H	1.095916	0.0	0.0
H	0.036964	-0.927948	-1.899336
C	0.042821	1.15435	-2.206955
N	0.366155	2.10913	-2.810666
N	-0.416352	-1.240535	0.634156
H	0.218373	-1.433171	1.400295
H	-1.359686	-1.167186	0.995647
C	-0.497695	1.211462	0.66607
N	-0.906879	2.142474	1.255251
Br	3.396373	0.0	0.0
