13

C	-0.452775	-0.002806	-1.46551
C	0.0	0.0	0.0
Cl	0.125021	-1.483069	-2.282037
H	1.101189	0.0	0.0
H	0.021351	0.835825	-1.980149
C	-1.905786	0.085799	-1.601098
N	-3.068089	0.188262	-1.732027
N	-0.574361	-1.150285	0.70605
H	-0.475754	-0.987255	1.702211
H	0.022973	-1.944164	0.494391
C	-0.4677	1.245337	0.610315
N	-0.84738	2.241427	1.103689
Br	3.445328	0.0	0.0
