13

C	-0.452897	0.039223	-1.465297
C	0.0	0.0	0.0
Cl	0.127642	-1.415723	-2.323454
H	1.101203	0.0	0.0
H	0.018088	0.89414	-1.956042
C	-1.906266	0.128451	-1.596187
N	-3.068663	0.236269	-1.722752
N	-0.567899	-1.175304	0.670227
H	0.067028	-1.945633	0.482851
H	-0.529666	-1.017938	1.671422
C	-0.470558	1.224417	0.647367
N	-0.860615	2.202309	1.168043
Br	3.438179	0.0	0.0
