13

C	-0.551177	-0.016018	-1.433973
C	0.0	0.0	0.0
Cl	-0.07386	1.43804	-2.348792
H	1.099727	0.0	0.0
H	-1.642847	-0.022119	-1.385845
C	-0.130428	-1.223119	-2.14165
N	0.128533	-2.201191	-2.737206
N	-0.460373	-1.232314	0.651875
H	0.360838	-1.751477	0.937247
H	-1.012978	-1.034138	1.471564
C	-0.484425	1.190648	0.697573
N	-0.901466	2.104095	1.307437
Br	3.405854	0.0	0.0
