13

C	-0.551006	-0.038827	-1.432422
C	0.0	0.0	0.0
Cl	-0.083785	1.410681	-2.363426
H	1.095027	0.0	0.0
H	-1.643353	-0.048147	-1.388534
C	-0.117702	-1.248297	-2.1283
N	0.201708	-2.205507	-2.727799
N	-0.43504	-1.226627	0.670894
H	0.371693	-1.639658	1.122424
H	-1.147797	-1.045656	1.364585
C	-0.488408	1.202424	0.679271
N	-0.960478	2.113638	1.252181
Br	3.404662	0.0	0.0
