13

C	-0.549518	0.107333	-1.431073
C	0.0	0.0	0.0
Cl	0.008969	1.589081	-2.245533
H	1.100033	0.0	0.0
H	-1.640272	0.152202	-1.375899
C	-0.188428	-1.073358	-2.213817
N	0.045676	-2.039179	-2.84009
N	-0.51568	-1.269659	0.548187
H	0.222238	-1.954192	0.407567
H	-0.622043	-1.176168	1.552425
C	-0.50066	1.124194	0.785697
N	-0.936588	1.996852	1.440768
Br	3.415041	0.0	0.0
