13

C	-0.426502	-0.059491	-1.464172
C	0.0	0.0	0.0
Cl	-2.204842	-0.301567	-1.615092
H	1.096313	0.0	0.0
H	0.045031	-0.945113	-1.891479
C	-0.055171	1.131243	-2.221127
N	0.207617	2.099346	-2.831268
N	-0.383518	-1.238171	0.664433
H	-1.277808	-1.150603	1.12851
H	0.329388	-1.459523	1.348504
C	-0.506156	1.212285	0.652896
N	-0.912832	2.168875	1.201305
Br	3.383048	0.0	0.0
