13

C	-0.483237	-0.020601	-1.467383
C	0.0	0.0	0.0
Cl	0.132155	1.371904	-2.393323
H	1.095174	0.0	0.0
H	-1.576102	0.054088	-1.488494
C	-0.105745	-1.27388	-2.117486
N	0.169705	-2.284306	-2.648321
N	-0.41466	-1.176139	0.745118
H	0.270979	-1.908756	0.609121
H	-1.333205	-1.507045	0.476196
C	-0.528361	1.209578	0.639276
N	-1.001418	2.160478	1.140993
Br	3.410631	0.0	0.0
