13

C	-0.451055	0.001809	-1.466309
C	0.0	0.0	0.0
Cl	0.125095	-1.47779	-2.285078
H	1.10115	0.0	0.0
H	0.025604	0.840491	-1.978455
C	-1.903639	0.093878	-1.603103
N	-3.066337	0.204227	-1.723338
N	-0.575242	-1.152014	0.702137
H	0.030324	-1.943011	0.500792
H	-0.493158	-0.98599	1.699398
C	-0.467613	1.243961	0.613246
N	-0.850901	2.238426	1.107276
Br	3.444756	0.0	0.0
