15

C	-0.408343	-0.006296	-1.452044
C	0.0	0.0	0.0
F	-1.81923	-0.079619	-1.560199
H	1.095647	0.0	0.0
H	-0.128469	0.946396	-1.916989
H	-0.331889	-0.941045	0.454912
C	0.192119	-1.158863	-2.223351
H	-0.111621	-1.125381	-3.272932
H	-0.143353	-2.106068	-1.793086
H	1.281581	-1.109622	-2.152588
C	-0.544966	1.192596	0.773953
H	-0.172596	2.127827	0.346067
H	-1.6379	1.215773	0.753488
H	-0.216567	1.158269	1.815433
Br	3.753976	0.0	0.0
