15

C	-0.496374	-0.051874	-1.431966
C	0.0	0.0	0.0
F	-0.212928	1.165821	-2.071999
H	1.094634	0.0	0.0
H	0.067102	-0.816563	-1.977768
H	-0.304095	-0.935574	0.486744
C	-1.987156	-0.287951	-1.585729
H	-2.275601	-1.237652	-1.126887
H	-2.55201	0.517111	-1.110528
H	-2.25755	-0.314238	-2.644351
C	-0.515257	1.199303	0.788792
H	-0.253328	2.124543	0.273927
H	-0.040973	1.22371	1.772213
H	-1.599945	1.179755	0.936129
Br	3.814068	0.0	0.0
