17

C	-0.498435	-0.087051	-1.445004
C	0.0	0.0	0.0
Br	-0.425783	1.649607	-2.388327
H	1.096706	0.0	0.0
H	-1.564773	-0.332819	-1.438724
C	0.302011	-1.098248	-2.243658
H	-0.058923	-1.175523	-3.271584
H	0.201851	-2.067538	-1.751473
H	1.35664	-0.815699	-2.240785
N	-0.41628	-1.282047	0.610606
H	-1.155385	-1.116975	1.284102
H	0.37827	-1.664648	1.109537
C	-0.514741	1.191307	0.791825
H	-0.171308	1.102277	1.826046
H	-1.612671	1.220953	0.786075
H	-0.143213	2.134927	0.393853
Cl	3.523685	0.0	0.0
