17

C	-0.519663	-0.010519	-1.436692
C	0.0	0.0	0.0
Br	0.235951	-1.529684	-2.421357
H	1.09433	0.0	0.0
H	-0.130162	0.864775	-1.96388
C	-2.032414	-0.094463	-1.54186
H	-2.373967	-0.996319	-1.031153
H	-2.35331	-0.136168	-2.584444
H	-2.49831	0.779627	-1.07526
N	-0.475987	-1.185449	0.723098
H	0.318716	-1.635013	1.16022
H	-1.125747	-0.918279	1.452666
C	-0.418276	1.295278	0.698978
H	-1.497935	1.333866	0.885755
H	-0.13486	2.17558	0.115028
H	0.100555	1.356741	1.658611
Cl	3.530369	0.0	0.0
