9
Coordinates from ORCA-job run
  C   0.25993073013743      0.55021382955711     -0.04013734304282
  C   -0.95679715398104     -0.34922199260847     -0.09435284276497
  F   0.49031172525938      1.09108207431991     -1.29533196126302
  H   -0.78819517074638     -1.15640752093558     -0.80744410905428
  H   0.10567460648871      1.38567890695971      0.64797519211996
  H   -1.15974418831064     -0.77816465278763      0.88838296717863
  H   -1.82010067914370      0.23524420536914     -0.41458828063721
  C   1.46322763456331     -0.18678945525027      0.38182642846995
  N   2.40469249573293     -0.79163539462392      0.73366994899376
