18

C	-0.233711	0.026668	-1.497835
C	0.0	0.0	0.0
F	-0.200571	-1.268353	-2.031222
H	1.105654	0.0	0.0
N	-1.665031	0.468073	-1.853405
O	-1.828816	1.516766	-2.468869
O	-2.563007	-0.280505	-1.482709
N	0.694942	0.88989	-2.070252
H	1.625736	0.68347	-1.681225
H	0.681315	0.875537	-3.080505
C	-0.57305	-1.184034	0.738945
H	-0.245036	-2.117465	0.282272
H	-1.663777	-1.148742	0.756084
H	-0.197092	-1.167383	1.76689
N	-0.526195	1.264467	0.547362
H	-0.22526	1.29628	1.519013
H	-0.012365	2.0105	0.085168
H	2.924023	0.0	0.0
