18

C	-0.304717	-0.180126	-1.48517
C	0.0	0.0	0.0
F	-1.519788	-0.802416	-1.733009
H	1.094362	0.0	0.0
N	-0.511597	1.222505	-2.11617
O	0.513636	1.828014	-2.410335
O	-1.653694	1.644507	-2.254639
N	0.735104	-0.898983	-2.080809
H	1.63837	-0.64686	-1.655935
H	0.759353	-0.804511	-3.086667
C	-0.470043	-1.216926	0.778948
H	-0.135664	-2.137276	0.296189
H	-1.562722	-1.243263	0.859101
H	-0.036239	-1.177947	1.782514
N	-0.464115	1.274482	0.524161
H	0.284946	1.671929	1.077911
H	-1.275983	1.151247	1.115218
H	2.871804	0.0	0.0
