17
Coordinates from ORCA-job run
  C   -0.76695836917685      0.43172390621361     -0.15661833877678
  C   0.43273787576198     -0.48372910936015     -0.45823427107784
  Cl  -1.13038104734683      1.28202097754202     -1.75503274265170
  H   0.17671087979539     -1.12268814023768     -1.30442393776562
  N   -1.85927323751683     -0.37599076804767      0.26897187254073
  H   -2.10927999208735     -1.08167674277019     -0.41446843179358
  H   -2.67320937179270      0.18919483215996      0.47653627754823
  N   -0.42017882889785      1.47344216646610      0.76224115332808
  H   -1.17042143286812      2.14942874656437      0.83614424129981
  H   -0.23985023559961      1.05602545313499      1.66905155827176
  N   0.57228873673544     -1.43228040327427      0.69890572768609
  O   0.92308125348697     -0.95464050862545      1.77597143153414
  O   0.32767494571005     -2.61686647442087      0.48858798123268
  C   1.74462365822621      0.23821119723454     -0.67638936170708
  H   2.00391444526211      0.82362715984070      0.20248921203236
  H   2.53516862928729     -0.48674678282676     -0.88249433232672
  H   1.65335209102069      0.90994449040675     -1.52923803937455
