17
Coordinates from ORCA-job run
  C   -0.65075086249882      0.44160560881508      0.31816644268596
  C   0.49442732123640     -0.36392205914423     -0.32354420931982
  Cl  -0.15261473120224      1.12756467567463      1.89895397802430
  H   0.18064161291098     -0.57056203560627     -1.35094381989905
  N   -0.86460574171841      1.58748342748921     -0.55717665310730
  H   -1.39868950241891      1.28287070117060     -1.36488806109315
  H   -1.39785886045767      2.30023978369563     -0.07290756765755
  N   -1.75358589325478     -0.44055768215745      0.58234127198605
  H   -1.99985906727076     -0.98419219192481     -0.23683272882196
  H   -2.55748796351298      0.07308600886180      0.92011705198864
  N   0.56443703657425     -1.72286542299236      0.30615824477015
  O   1.19186421355007     -1.83600123865752      1.35323158732850
  O   -0.02664853091878     -2.63003659047304     -0.27986583068537
  C   1.84674115537474      0.31020792684084     -0.29924787826590
  H   2.55375032110814     -0.25350468123621     -0.91144628770250
  H   1.74374173214023      1.31732716966809     -0.70135433652804
  H   2.22749776035855      0.36125659997600      0.71823879629703
