17
Coordinates from ORCA-job run
  C   -0.85016120804085      0.25861749537008      0.04878277152339
  C   0.35371065774945     -0.64253431793443     -0.25288796718651
  Cl  -2.15084748701650     -0.92708003945628      0.80668337398134
  H   0.03948763613253     -1.38364645699180     -0.98807757368946
  N   -0.54657895773849      1.31300847279956      0.92600406991834
  H   -0.06641194207061      0.96904354548260      1.74779078341862
  H   -1.38229502602136      1.81202538987804      1.20426318089299
  N   -1.34412407806428      0.75791298971630     -1.18658662806478
  H   -1.88917785190765      0.05969319590588     -1.67426902134529
  H   -1.90636801987702      1.58792641745460     -1.05118483540955
  N   0.75769689700704     -1.45247990488356      0.93970454068107
  O   0.85075464373581     -2.66604332396862      0.79100560339993
  O   1.01902149803660     -0.83964470896975      1.97582553380627
  C   1.56177261760746      0.14486642586783     -0.72992573874380
  H   2.36437378369038     -0.54193169739497     -1.00808336146340
  H   1.27353565606121      0.73441215073296     -1.59891767585734
  H   1.91461118071629      0.81685436639157      0.05087294413818
