17
Coordinates from ORCA-job run
  C   -0.68546349342782      0.44802348572409      0.25334918564052
  C   0.45452499892311     -0.36383567233055     -0.37844369693649
  Cl  -0.18439960312898      1.05140955772229      1.91073943201978
  H   0.18785741765383     -0.45989752733526     -1.43360256017085
  N   -0.81894715387571      1.63606784237046     -0.56585905210065
  H   -1.19675221616361      2.40260372233558     -0.02470940475342
  H   -1.45022725395672      1.42292877380924     -1.33074300592243
  N   -1.88826543923597     -0.31264994809150      0.28415090762692
  H   -2.65602652610058      0.27148945292893      0.59332347824898
  H   -1.80365784366403     -1.10389137163335      0.91078284404584
  N   0.52432827612765     -1.78408646423016      0.10353924437819
  O   0.11754997655313     -2.05411026429016      1.23312903206769
  O   1.04902237538596     -2.58101272795093     -0.66879224282551
  C   1.83808543208323      0.24402642204231     -0.24227718872978
  H   2.52999798273606     -0.27448052229817     -0.90706512256663
  H   2.19709841194716      0.16278036374592      0.78359800496720
  H   1.78427465814326      1.29563487748125     -0.52011985498936
