17
Coordinates from ORCA-job run
  C   -0.76042008386726      0.44444100257687     -0.15320050932237
  C   0.42043963558580     -0.49344725786114     -0.45965152359931
  Cl  -1.12081094064168      1.29323945452511     -1.75316680840313
  H   0.14652768830884     -1.13261541319161     -1.30008130463333
  N   -1.86354056495583     -0.34158187728594      0.28490211528935
  H   -2.66540144753015      0.23917579976755      0.49645751914852
  H   -2.13169081743077     -1.04566402365741     -0.39331669700359
  N   -0.38836807407303      1.48434837848959      0.75783904982581
  H   -0.21061995837964      1.06872214838578      1.66596139800576
  H   -1.12481770999013      2.17530008588926      0.83192785940694
  N   0.55205363309262     -1.43895008102687      0.70131630054652
  O   0.91906988532748     -0.96224461551516      1.77339083871752
  O   0.28609601292777     -2.62020399140715      0.49836480625804
  C   1.74348188581467      0.20364319472635     -0.69054591846884
  H   2.01828542684492      0.78917036476087      0.18354693045504
  H   2.51964601325041     -0.53652969758416     -0.89715419819392
  H   1.65906941571597      0.87219652840805     -1.54658985802898
