17
Coordinates from ORCA-job run
  C   -0.82503887863444      0.35101938903028     -0.15243177105362
  C   0.41308894663098     -0.50478216446162     -0.44911372681909
  Cl  -1.24682163456529      1.07888358006237     -1.81584427005541
  H   0.19771321489244     -1.08715644143668     -1.34380658046491
  N   -1.94146506681496     -0.49494638432166      0.17239283517452
  H   -2.81587686211383     -0.03088878797824     -0.03513793706171
  H   -1.89190848192053     -0.72398907710088      1.15822796502585
  N   -0.57151148760590      1.36241849440356      0.80440263179581
  H   -1.41967860589795      1.86990324317650      1.02265694636603
  H   0.13999443473089      2.01687348694003      0.50572127236003
  N   0.63320946926225     -1.55514642279380      0.61120501597097
  O   1.31060413816742     -2.51469259951323      0.25228391181973
  O   0.18777365025665     -1.38425650976991      1.74251484140489
  C   1.71427425456967      0.26619041256488     -0.58956073789718
  H   2.00041280776956      0.70957422450762      0.36653218655088
  H   2.50760095370892     -0.40955616281068     -0.90904482452332
  H   1.60662914756412      1.05055171950145     -1.33999775859348
