17
Coordinates from ORCA-job run
  C   -0.84433141256984      0.41814937625035     -0.12975731931990
  C   0.41304702709728     -0.44501961052391     -0.41922423341710
  Cl  -1.08317085400266      1.38725253899329     -1.70235002791912
  H   0.15759798497899     -1.12137971045811     -1.23652164581766
  N   -2.08251518590523     -0.28052123362632      0.04677001771593
  H   -2.32654870268935     -0.80298203300397     -0.78427031616735
  H   -2.00050958759045     -0.92119612860356      0.82749584599091
  N   -0.64207719588534      1.20845092081754      1.01379404001226
  H   0.16826334536037      1.80808525817689      0.95971264742565
  H   -1.47508099224054      1.74463989220917      1.21851209436542
  N   0.60070261835213     -1.34289950648925      0.77660221257012
  O   -0.13528429476832     -2.32923017211414      0.84050732317703
  O   1.44006959640589     -1.02984002980455      1.61470752226275
  C   1.70421915274025      0.29639471561652     -0.70109027955513
  H   2.51296980541779     -0.42146945389055     -0.84837620557253
  H   1.59969285304286      0.89274613237008     -1.60534557207743
  H   1.99195584225616      0.93781904408052      0.13083389632616
