17
Coordinates from ORCA-job run
  C   -0.77826053226444      0.41961611301642     -0.27032969268058
  C   0.43485051810805     -0.50277866298578     -0.47449570050814
  Cl  -1.10316709733010      1.14840838999321     -1.88473615390728
  H   0.21383650010205     -1.14424135851344     -1.32655716804796
  N   -1.93172042117715     -0.41660697105690      0.02229907686449
  H   -1.92488483163152     -0.64626473545319      1.01021825654973
  H   -2.78722232682625      0.08507488961144     -0.18376630696131
  N   -0.46087898457633      1.51117046331355      0.61444678899189
  H   -1.25172131257267      2.14123050536992      0.68215679427708
  H   -0.25849713767497      1.12920098056682      1.53183962325612
  N   0.55244623104462     -1.45650921182606      0.67962870107352
  O   0.29313744612211     -1.03191616721751      1.80937405207370
  O   0.95391099000075     -2.58595899181074      0.42747719584492
  C   1.76838950288135      0.20507707362386     -0.62564185855519
  H   2.55008759879565     -0.52623040607081     -0.84042757510152
  H   2.01741574082335      0.75636839632473      0.28019041754813
  H   1.71027811617550      0.91435969311447     -1.45067645071759
