17
Coordinates from ORCA-job run
  C   -0.80680499100079      0.43656408810363      0.18659943371995
  C   0.42315401476757     -0.37221249380227     -0.27070689235087
  Cl  -0.47415314397818      1.11379351880952      1.86426615528579
  H   0.24044906171709     -0.59593018087040     -1.32559005979855
  N   -1.03929263524873      1.59560170703859     -0.63909313877681
  H   -0.29783660393675      2.27677625267363     -0.56114048707670
  H   -1.16413697985598      1.30927287934878     -1.60317087082252
  N   -1.97521521121495     -0.35621198734171      0.10318951804828
  H   -2.78081520529464      0.23612717188078      0.26291959476251
  H   -1.95836269692334     -1.11294457961463      0.77333521071678
  N   0.53253473804934     -1.74054335541213      0.35500401837712
  O   -0.07708513044634     -1.98354022500777      1.39428928418851
  O   1.27727095452153     -2.52275552513501     -0.22841481274646
  C   1.77375210833339      0.30369785886615     -0.10435386383978
  H   2.53270080808781     -0.26975529958292     -0.63628700606295
  H   1.74791063244489      1.31080736782976     -0.52134512902191
  H   2.04593027997808      0.37125280221599      0.94849904539760
