17
Coordinates from ORCA-job run
  C   -0.85646656235757      0.40073815771591     -0.13927704544419
  C   0.38463547096891     -0.47201074990896     -0.45254909948411
  Cl  -1.19680722314100      1.25986087689486     -1.75157505907365
  H   0.15965088708475     -1.11467512991537     -1.30468341062631
  N   -1.90729282465419     -0.43355477236410      0.28520996438708
  H   -2.72791104871875      0.11685982210011      0.50124900753023
  H   -2.12575866972266     -1.17256387838066     -0.36969777526786
  N   -0.71350780876873      1.44349242997884      0.82993600264090
  H   -0.06877200109005      2.15658157155518      0.51819611331711
  H   -0.38658413313234      1.03703123318299      1.69986243188148
  N   0.55263182335097     -1.41590419143209      0.70145509678429
  O   0.29013132114024     -2.59937050769902      0.50624762818567
  O   0.93054916395852     -0.93309399524344      1.76797728045608
  C   1.67378893887284      0.29401681678346     -0.65801074590977
  H   2.48975723799581     -0.40095875722341     -0.86599182865873
  H   1.57528772041496      0.97203638487987     -1.50523074644513
  H   1.92866770779829      0.86051468907583      0.23688218572691
