17
Coordinates from ORCA-job run
  C   -0.78351065744512      0.52527357654018     -0.25391548906606
  C   0.39473492525398     -0.45453577320955     -0.47272394794325
  Cl  -1.07332139280603      1.25195451886866     -1.89131306389333
  H   0.14728176471816     -1.09128467363209     -1.32194231600749
  N   -2.02918553073615     -0.10463881533587      0.11270484907442
  H   -1.96943906183742     -0.47872630837086      1.05273165966097
  H   -2.29703795747943     -0.83758999337516     -0.53369661661118
  N   -0.41629721682344      1.56814950003921      0.64557912535071
  H   -0.02221294394761      1.17306104136748      1.49178268996102
  H   -1.23942996983317      2.11534924133576      0.86810272399356
  N   0.41901153929729     -1.39765314253836      0.69313379973378
  O   0.66735066162241     -0.91875676564225      1.80208738409920
  O   0.16532488931482     -2.58001015399673      0.47650210233085
  C   1.75790697078719      0.18744396567069     -0.63180642445057
  H   1.73130913306780      0.88117637548953     -1.47148658991448
  H   2.03392435375875      0.74065419096538      0.26351752123341
  H   2.51059049308798     -0.57886678417603     -0.83125740755155
