17
Coordinates from ORCA-job run
  C   -0.86190253368017      0.39139470264018     -0.13408701417480
  C   0.39123374494434     -0.45939402533226     -0.45923279387535
  Cl  -1.21128901036995      1.27141097325744     -1.73329802558888
  H   0.17551335842704     -1.09201636401684     -1.32123126958295
  N   -1.90170678774670     -0.46390308062570      0.27528312052721
  H   -2.10859936299068     -1.19551496034719     -0.39158667281153
  H   -2.73042666298540      0.07138131235318      0.49840553083659
  N   -0.73470861777615      1.42049424043096      0.85175359701357
  H   -0.40341008330141      1.00478027105770      1.71562644527127
  H   -0.09966449446735      2.14745620048064      0.55243381301730
  N   0.57139960511812     -1.41878426776677      0.68015494964408
  O   0.32784942400598     -2.60291644752199      0.46543007303928
  O   0.94007654740580     -0.94747435150701      1.75497597250702
  C   1.67033712325883      0.32673321453326     -0.65105434105170
  H   1.56449021059118      1.01530914108890     -1.48884037400663
  H   1.91564359946995      0.88408030243404      0.25224010776660
  H   2.49616394009658     -0.35403686115854     -0.86697311853109
