17
Coordinates from ORCA-job run
  C   -0.77637204803033      0.41537491688433     -0.12907483178470
  C   0.54387806761905     -0.28459220850539     -0.47514911191000
  Cl  -2.04028754276438     -0.31722655292624     -1.36780714104213
  H   0.80865995134270     -0.01074360000540     -1.49658504591034
  N   -1.18175684586798      0.20631134451539      1.19973036176259
  H   -2.11136364603656      0.57255346596341      1.36264938861969
  H   -1.15899306833122     -0.77862320900261      1.43115586507853
  N   -0.61909285281498      1.80277320692401     -0.39481046618832
  H   -0.68590777140216      1.99710392722550     -1.38489763774729
  H   -1.30694955488349      2.35379976140983      0.10183180117944
  N   0.39147015018730     -1.77349743808603     -0.51927973964207
  O   -0.05298607149580     -2.32550055872194      0.48815274453623
  O   0.76691696058443     -2.34781422903170     -1.53546584265662
  C   1.65380095363891      0.05566591465318      0.50412105271066
  H   1.76858792182722      1.13795131662895      0.53939502051204
  H   1.40951450459455     -0.30575936870423      1.50180887377665
  H   2.59088089183273     -0.39777668922110      0.17322470870565
