17
Coordinates from ORCA-job run
  C   -0.87243943961400      0.35333848634140     -0.22847406924600
  C   0.52511315237445     -0.26209425392489     -0.44929641256635
  Cl  -1.91678992391009     -0.37204028119546     -1.58162308459915
  H   0.85748893316289      0.02363057054081     -1.44781015412045
  N   -1.36081019140853      0.11567100939887      1.06928029087157
  H   -1.36186779511985     -0.86903123693182      1.29939563176212
  H   -2.28443734619592      0.51765279472452      1.16574707703390
  N   -0.92107309251644      1.76986589560070     -0.45012168258273
  H   -0.60402487781024      2.02614926982053     -1.37528792971062
  H   -0.39371446652935      2.25125895495983      0.26671997943241
  N   0.47820380340289     -1.76003990221796     -0.49512894017802
  O   0.96822012184003     -2.30834777545598     -1.47678675156580
  O   -0.01270505537604     -2.33912377733205      0.47448158891933
  C   1.53386792072986      0.13614583575863      0.61463821090527
  H   1.65199737165463      1.22023915623752      0.63194368433259
  H   2.50624072194691     -0.30511583854903      0.38469228226627
  H   1.20573016336881     -0.19715890777563      1.59763027904568
