17
Coordinates from ORCA-job run
  C   -0.81430920341563      0.35737777146401     -0.18479251077405
  C   0.45317142170672     -0.49120262984904     -0.42944804022842
  Cl  -0.95513739083726      1.51805680101173     -1.61369527372319
  H   0.19158851807228     -1.22589838047845     -1.19237988804740
  N   -1.98247454317004     -0.46990874218608     -0.27828994649139
  H   -1.96133993125004     -1.16009042337558      0.46374408297076
  H   -2.82210929989399      0.09166029843668     -0.20251076305733
  N   -0.69534998548016      1.04878529371920      1.05352879641001
  H   0.11017201110564      1.66189129449477      1.08539654129128
  H   -1.52838391909503      1.59096084745669      1.24578853092878
  N   0.66767944893019     -1.29151736932861      0.83433792443960
  O   1.56023461736418     -0.93892794337826      1.59718812426392
  O   -0.09537474095748     -2.23832360212978      1.02312450836270
  C   1.72368606615329      0.25460203669595     -0.78117932367279
  H   1.94475301560382      1.05209841136578     -0.07212403795444
  H   2.56658635766807     -0.43718789249171     -0.76941177086870
  H   1.63560755749543      0.67862422857271     -1.77927695384935
