17
Coordinates from ORCA-job run
  C   -0.85235433446660      0.24787925147759      0.06041837875594
  C   0.35903054219618     -0.63053309943031     -0.27590564766744
  Cl  -2.13819663659557     -0.97557684154316      0.78218612324101
  H   0.04884512302073     -1.34954019817362     -1.03439727937891
  N   -0.55545752223108      1.27512797735360      0.97160704053324
  H   -0.06954504870738      0.90833424059590      1.78004152443440
  H   -1.39505550969311      1.75621401482369      1.26916991954547
  N   -1.35605715122462      0.78409571985225     -1.15552986056779
  H   -1.92419845281881      1.60445101524631     -0.98935346911884
  H   -1.89790684503915      0.09829373652615     -1.66392895699365
  N   0.77590654148772     -1.47586349601116      0.88730873683075
  O   1.03488292034513     -0.89528904560220      1.94234530650595
  O   0.88086868661337     -2.68265539255145      0.69747815751989
  C   1.55721972195600      0.18466850226193     -0.73054456346346
  H   1.90846561510843      0.83078987387172      0.07252179372374
  H   2.36447739578285     -0.48421276150435     -1.03744914077121
  H   1.25907495426591      0.80281650280713     -1.57596806312910
