17
Coordinates from ORCA-job run
  C   -0.84832377550516      0.37789352119537     -0.35534769627120
  C   0.52789796211498     -0.31419412343949     -0.50647061420395
  Cl  -1.87209283364751     -0.25847640400618     -1.69091641391516
  H   0.89434253825329     -0.09399934423154     -1.50767334958359
  N   -1.58065420609763      0.16647425149044      0.86439951521482
  H   -1.11080888102477      0.62976402673341      1.63332080753116
  H   -1.65617822579747     -0.82082482537027      1.07916374817965
  N   -0.62245600762737      1.78047601671364     -0.62257741531632
  H   -0.17497768422566      2.20746495505277      0.18241681332952
  H   -1.52795591468244      2.22417631784892     -0.73473520114566
  N   0.38381771947666     -1.80310628364734     -0.46966973456964
  O   0.74618819410982     -2.42983929204461     -1.46070662993132
  O   -0.06321280882847     -2.30297081363178      0.56426791364390
  C   1.52924093127152      0.08690696151124      0.56199657670798
  H   2.45789185384907     -0.47166744553344      0.42784531008676
  H   1.14635327286574     -0.12816638878007      1.56015373298027
  H   1.77092786549539      1.14708887013895      0.47453263726279
