17
Coordinates from ORCA-job run
  C   -0.95313557213375      0.02434527230480      0.13235701947823
  C   0.34433993866584     -0.69568245043897     -0.28193736340742
  Cl  -2.21671390669776     -1.26800004785293      0.40813110247024
  H   0.06290039319855     -1.49142196599757     -0.96854231225562
  N   -0.77914909435050      0.76376519736676      1.32498533032730
  H   0.16938556052672      0.97422950724420      1.59029855363768
  H   -1.42177437107939      1.53055263052951      1.43802360247263
  N   -1.42152176444896      0.74282161840851     -1.04431280466268
  H   -0.97910766641560      1.65519992535593     -1.06345656811274
  H   -2.42496071409259      0.87022224906187     -0.99951310761106
  N   0.95435458663480     -1.39098815740389      0.89776110200760
  O   1.61898666919235     -0.69941032049528      1.67236128327786
  O   0.76553490430657     -2.59843912061612      1.00628821230763
  C   1.37501506070580      0.22978197802710     -0.90480535867841
  H   1.01219193539740      0.55755677916871     -1.87827211593675
  H   1.57917469111907      1.09828016321873     -0.27824424086213
  H   2.31547934947145     -0.30481325788134     -1.04912233445237
