17
Coordinates from ORCA-job run
  C   -0.79171036790674      0.51079267303644     -0.25748692189604
  C   0.40738725629943     -0.44407292805239     -0.47155783082175
  Cl  -1.08203698637120      1.24077023203206     -1.89362529116785
  H   0.17929516670798     -1.08112054828518     -1.32598578429044
  N   -2.02726822081201     -0.14576260289750      0.09538730683052
  H   -2.27439865691225     -0.88257922347211     -0.55479289797636
  H   -1.96868083767684     -0.51998596199038      1.03539571747984
  N   -0.45285237210491      1.55625443783295      0.65018186771081
  H   -0.05933188401448      1.16486050604773      1.49838109349356
  H   -1.28821185797023      2.08685488309215      0.86737021506252
  N   0.44173706732069     -1.39255952343420      0.68984118606224
  O   0.67160440194047     -0.91421144109217      1.80301722644956
  O   0.21335103880894     -2.57860710808108      0.46519401742682
  C   1.75903515531724      0.22509842430242     -0.61702275618707
  H   2.01601474917301      0.78243352813123      0.28138655257397
  H   2.52835852152760     -0.52615741485743     -0.81032674155236
  H   1.72670782667329      0.91899206768746     -1.45635695919797
