17
Coordinates from ORCA-job run
  C   -0.85981687609767      0.39423630411264     -0.13967965724520
  C   0.39134088606387     -0.46269070230655     -0.45577576466290
  Cl  -1.19953252676757      1.26797624211264     -1.74392345724752
  H   0.17753490983402     -1.09799334216891     -1.31626736383040
  N   -1.90456308526599     -0.45542460436469      0.26956491626095
  H   -2.73244319331612      0.08398030435269      0.48583267395243
  H   -2.11121053513987     -1.18926580278055     -0.39496724992117
  N   -0.73279218555024      1.42717973098760      0.84204211939454
  H   -0.09219768315726      2.14942715627212      0.54311268472194
  H   -0.40865972462853      1.01361708908540      1.70965136382716
  N   0.56282051160864     -1.41858959715212      0.68812613135720
  O   0.31486803523827     -2.60237457132294      0.47664489507290
  O   0.92816022502848     -0.94443770890087      1.76280949673545
  C   1.67439713342492      0.31789617615163     -0.64463065475546
  H   2.49780794952290     -0.36661125839227     -0.85791104396207
  H   1.57388112632242      1.00668533161753     -1.48290444241255
  H   1.91940503287975      0.87438925269665      0.25927535271470
