17
Coordinates from ORCA-job run
  C   -0.87263242730436      0.37745079040061     -0.27410624348855
  C   0.39394213880569     -0.48771126373751     -0.47249496568235
  Cl  -1.16669315900227      1.11327732126520     -1.89391991539207
  H   0.23441614897045     -1.12583350289897     -1.34058168223528
  N   -1.97770099584634     -0.50446900998360      0.00009966698379
  H   -2.82827819505787      0.04750506943642     -0.02880697158843
  H   -1.88290053446737     -0.86142527742329      0.94572690633402
  N   -0.79142785607827      1.47896165245172      0.65372249979166
  H   -0.11830921068469      2.17432486768695      0.35557733019969
  H   -0.51943967504311      1.11730572714446      1.56105411236128
  N   0.54220790312082     -1.44782347082382      0.67141106497467
  O   0.30321719137798     -1.02807325146823      1.80759786254386
  O   0.93851296235387     -2.57704545128107      0.40688429277343
  C   1.69296995867736      0.28971076313845     -0.57487097301163
  H   1.89709492122517      0.82429141909021      0.35423739475836
  H   1.63526947563337      1.00443920248921     -1.39612835188520
  H   2.51975135331959     -0.39488558548675     -0.77240202743725
