18

C	-0.469781	0.026948	-1.453709
C	0.0	0.0	0.0
Br	0.337687	-1.635191	-2.3703
H	1.094809	0.0	0.0
N	-1.885898	-0.019216	-1.570628
H	-2.253781	-0.854783	-1.131757
H	-2.155586	-0.027957	-2.546868
C	0.121845	1.204633	-2.20217
H	-0.09486	1.137382	-3.271554
H	-0.31816	2.123354	-1.804046
H	1.202429	1.215718	-2.041136
C	-0.454735	-1.195933	0.837304
H	-1.532244	-1.201844	1.030962
H	0.065297	-1.156217	1.797136
H	-0.163236	-2.12246	0.341581
C	-0.436204	1.237005	0.639388
N	-0.772549	2.224443	1.182645
H	2.760857	0.0	0.0
