18

C	-0.445632	0.036043	-1.463797
C	0.0	0.0	0.0
Br	0.24259	-1.695917	-2.344336
H	1.094791	0.0	0.0
N	-1.856754	0.110877	-1.609005
H	-2.309253	-0.666407	-1.143336
H	-2.114698	0.092527	-2.589111
C	0.262051	1.150917	-2.205804
H	1.336101	1.064546	-2.024736
H	0.054737	1.099929	-3.278161
H	-0.096629	2.107397	-1.815382
C	-0.481274	-1.180613	0.840893
H	-0.152243	-2.114493	0.38481
H	-1.568132	-1.198642	0.977108
H	-0.016041	-1.109047	1.827221
C	-0.427316	1.247655	0.625839
N	-0.752887	2.236081	1.174289
H	2.771303	0.0	0.0
