18

C	-0.475837	0.015089	-1.470837
C	0.0	0.0	0.0
Br	0.040033	-1.708396	-2.299563
H	1.095882	0.0	0.0
N	-1.91127	0.131142	-1.68738
H	-2.204508	1.020745	-1.290209
H	-2.388369	-0.604565	-1.176691
C	0.255574	1.112748	-2.220478
H	-0.065993	2.085893	-1.833103
H	0.019826	1.061259	-3.284762
H	1.33011	1.007666	-2.044162
C	-0.465765	-1.171139	0.862149
H	-1.556882	-1.263289	0.911885
H	-0.085688	-1.029949	1.877253
H	-0.040474	-2.097482	0.475233
C	-0.460046	1.249634	0.592409
N	-0.869131	2.250926	1.057658
H	2.774476	0.0	0.0
