18

C	-0.435582	0.036475	-1.474725
C	0.0	0.0	0.0
Br	-0.001164	-1.706043	-2.32272
H	1.095805	0.0	0.0
N	-1.878753	0.171744	-1.596015
H	-2.120872	0.249966	-2.579245
H	-2.143604	1.040707	-1.139595
C	0.390185	1.081035	-2.214351
H	1.454288	0.904712	-2.021357
H	0.125876	2.071717	-1.828148
H	0.179804	1.053643	-3.287797
C	-0.51229	-1.184999	0.814684
H	0.023418	-2.083803	0.506724
H	-0.297232	-1.015746	1.872291
H	-1.585909	-1.335272	0.679348
C	-0.446086	1.251802	0.598939
N	-0.832621	2.25465	1.080102
H	2.785274	0.0	0.0
