18

C	-0.345425	0.003378	-1.472707
C	0.0	0.0	0.0
Br	-2.365937	0.143662	-1.751848
H	1.100947	0.0	0.0
N	0.234293	1.186117	-2.038038
H	0.164034	1.164075	-3.049524
H	1.22037	1.192248	-1.760265
C	0.071831	-1.289987	-2.151226
H	-0.096777	-1.213136	-3.228661
H	-0.477533	-2.155888	-1.779897
H	1.143422	-1.415762	-1.951739
C	-0.452229	-1.216765	0.800355
H	0.03402	-2.117956	0.422488
H	-0.137704	-1.091722	1.83897
H	-1.537954	-1.343834	0.771344
C	-0.438896	1.225257	0.655291
N	-0.785218	2.17084	1.262381
H	2.730341	0.0	0.0
