16

C	0.0	0.0	0.0
C	-0.291815	0.160372	-1.538324
Cl	1.785804	0.0	0.0
H	0.363673	1.011997	-1.787399
N	-0.598483	0.98755	0.805484
H	-0.554502	1.8666	0.303846
H	-1.60696	0.733656	0.843597
N	-0.425289	-1.362891	0.556043
O	-0.584003	-2.27192	-0.247588
O	-0.521292	-1.447595	1.771081
N	-1.659699	0.505854	-1.844164
H	-1.96181	0.027111	-2.686082
H	-2.342997	0.234543	-1.061075
C	0.245546	-0.939634	-2.361013
N	0.676335	-1.697618	-3.149301
H	-3.216767	0.0	0.0
