16

C	0.0	0.0	0.0
C	-0.345676	0.285595	-1.518417
Cl	1.769818	0.0	0.0
H	0.004741	1.323892	-1.603975
N	-0.618022	0.920309	0.845597
H	-0.396204	0.691897	1.809858
H	-1.64624	0.77331	0.703677
N	-0.348818	-1.471174	0.374691
O	-0.552317	-2.269706	-0.53089
O	-0.369061	-1.721399	1.575363
N	-1.703465	0.191537	-1.993182
H	-1.88419	-0.778705	-2.228946
H	-2.381524	0.353538	-1.202227
C	0.498147	-0.504499	-2.432125
N	1.121832	-1.089084	-3.237967
H	-3.198128	0.0	0.0
