15

C	-0.531659	-0.05333	-1.420839
C	0.0	0.0	0.0
Cl	0.362541	1.049536	-2.520703
H	1.090663	0.0	0.0
H	-1.573858	0.271759	-1.468168
C	-0.441305	-1.403556	-1.972685
N	-0.432464	-2.486446	-2.427404
C	-0.395898	-1.200912	0.845321
H	-1.47908	-1.377278	0.879801
H	-0.023371	-1.03343	1.854494
H	0.104623	-2.085069	0.450608
N	-0.492582	1.229804	0.6545
O	-1.172008	2.036628	0.006811
O	-0.184338	1.398009	1.834536
F	2.509752	0.0	0.0
