15

C	-0.32887	-0.041918	-1.46453
C	0.0	0.0	0.0
Cl	-2.110341	-0.1559	-1.83038
H	1.093607	0.0	0.0
H	0.095445	-0.978482	-1.832437
C	0.241852	1.027694	-2.281704
N	0.676124	1.802246	-3.049856
C	-0.426341	-1.237115	0.758571
H	-0.027367	-2.112604	0.240304
H	-1.512316	-1.333731	0.852006
H	0.017679	-1.210887	1.752039
N	-0.489773	1.222582	0.645428
O	-0.646683	1.203031	1.869699
O	-0.674659	2.223965	-0.051806
F	2.490818	0.0	0.0
