15

C	-0.333795	-0.045906	-1.463593
C	0.0	0.0	0.0
Cl	-2.115775	-0.164959	-1.822102
H	1.093587	0.0	0.0
H	0.090785	-0.982756	-1.83089
C	0.231152	1.02347	-2.285188
N	0.658119	1.801518	-3.053964
C	-0.424874	-1.235093	0.763153
H	-0.031758	-2.112691	0.244089
H	0.025288	-1.207741	1.753506
H	-1.510432	-1.328674	0.863373
N	-0.48795	1.22356	0.643709
O	-0.679374	2.222876	-0.055192
O	-0.634423	1.208496	1.869043
F	2.490856	0.0	0.0
