15

C	-0.325882	0.027455	-1.465767
C	0.0	0.0	0.0
Cl	-2.106341	-0.069763	-1.838526
H	1.093593	0.0	0.0
H	0.098919	-0.890662	-1.876183
C	0.243093	1.133003	-2.234367
N	0.657104	1.941092	-2.978862
C	-0.428908	-1.270923	0.698468
H	0.01452	-1.29372	1.691852
H	-1.515078	-1.369659	0.787435
H	-0.032145	-2.121881	0.139359
N	-0.488884	1.191907	0.698655
O	-0.640986	2.232445	0.052454
O	-0.676338	1.110462	1.916327
F	2.489853	0.0	0.0
