15

C	-0.321362	-0.028892	-1.466674
C	0.0	0.0	0.0
Cl	-2.103125	-0.120219	-1.841704
H	1.093608	0.0	0.0
H	0.09433	-0.967834	-1.839681
C	0.263599	1.039661	-2.275138
N	0.682551	1.812428	-3.053398
C	-0.437394	-1.239479	0.745471
H	-0.037363	-2.112703	0.225075
H	-1.524344	-1.332986	0.827545
H	-0.004053	-1.222891	1.743388
N	-0.48594	1.222652	0.648949
O	-0.609385	2.242226	-0.035499
O	-0.699293	1.184697	1.864746
F	2.491066	0.0	0.0
