15

C	0.0	0.0	0.0
C	-0.172202	-0.309474	-1.51004
F	1.420441	0.0	0.0
H	0.416064	0.455278	-2.027911
H	0.344275	-1.256525	-1.693735
N	-0.498078	1.277778	0.310821
H	-0.669633	1.428948	1.29215
H	0.039605	2.023002	-0.104813
C	-0.567671	-1.050443	0.910471
H	-0.197573	-2.03867	0.631922
H	-0.273567	-0.84494	1.94393
H	-1.659141	-1.012298	0.820928
C	-1.465228	-0.375092	-2.186196
N	-2.327056	-0.482451	-2.976288
Br	-4.246619	0.0	0.0
