15

C	0.0	0.0	0.0
C	-0.478218	-0.221712	-1.434186
F	1.414604	0.0	0.0
H	-0.208639	0.646019	-2.044831
H	-1.576081	-0.27774	-1.392014
N	-0.468236	1.272534	0.415102
H	-0.425653	1.386054	1.41722
H	0.044136	2.014859	-0.042726
C	-0.48039	-1.085969	0.930908
H	-0.094604	-0.898247	1.937139
H	-1.574162	-1.076216	0.93961
H	-0.111437	-2.057276	0.596653
C	0.095937	-1.417677	-2.042
N	0.564549	-2.373164	-2.537459
Br	-4.019819	0.0	0.0
