15

C	0.0	0.0	0.0
C	-0.193582	-0.052335	-1.534354
F	1.420239	0.0	0.0
H	0.523579	-0.79283	-1.9005
H	0.138739	0.914864	-1.927871
N	-0.506882	1.195778	0.53629
H	-0.654579	1.175806	1.532213
H	0.008575	2.009839	0.239904
C	-0.547839	-1.202664	0.717879
H	-1.640921	-1.159315	0.668856
H	-0.186156	-2.121059	0.253495
H	-0.219807	-1.189627	1.761451
C	-1.472245	-0.38352	-2.159935
N	-2.328852	-0.708828	-2.892876
Br	-4.297699	0.0	0.0
