15

C	0.0	0.0	0.0
C	-0.441739	-0.084223	-1.471404
F	1.38987	0.0	0.0
H	-0.084189	-1.015314	-1.921594
H	-1.539251	-0.080773	-1.477588
N	-0.448496	1.179365	0.679545
H	-1.462122	1.104131	0.774456
H	-0.252738	1.998514	0.11222
C	-0.452638	-1.23165	0.755282
H	-1.541639	-1.300736	0.741928
H	-0.015888	-2.124205	0.300768
H	-0.101327	-1.145008	1.784944
C	0.070699	1.040242	-2.248082
N	0.474302	1.944064	-2.879481
Br	-3.834847	0.0	0.0
