15

C	-0.356627	-0.068784	-1.468288
C	0.0	0.0	0.0
F	-1.738959	-0.238188	-1.64512
H	1.103491	0.0	0.0
H	-0.126966	0.897733	-1.929491
N	0.302246	-1.201426	-2.063512
H	0.297169	-1.116031	-3.071979
H	1.271613	-1.202704	-1.753882
N	-0.521827	-1.189131	0.691954
H	-0.601727	-1.939002	0.012129
H	0.18083	-1.482754	1.362718
N	-0.482938	1.241797	0.578622
H	-1.41291	1.051976	0.936781
H	0.107374	1.473037	1.368366
Br	3.622212	0.0	0.0
