15

C	-0.495048	0.01811	-1.443778
C	0.0	0.0	0.0
F	-0.127013	1.223887	-2.034976
H	1.099508	0.0	0.0
H	0.013331	-0.756381	-2.034903
N	-1.930459	-0.067675	-1.455488
H	-2.267329	-0.339567	-2.369519
H	-2.173671	-0.780654	-0.774842
N	-0.531644	-1.226132	0.628818
H	-0.464468	-1.056475	1.626113
H	0.113234	-1.98403	0.422038
N	-0.477214	1.14171	0.759761
H	0.172712	1.902762	0.610024
H	-1.378005	1.424964	0.389016
Br	3.678372	0.0	0.0
