15

C	-0.506103	0.044965	-1.428871
C	0.0	0.0	0.0
F	-1.932463	0.19132	-1.381406
H	1.098514	0.0	0.0
H	-0.159588	0.942603	-1.950733
N	-0.127297	-1.115714	-2.1242
H	-0.610683	-1.191311	-3.007412
H	-0.310724	-1.916912	-1.529072
N	-0.446507	-1.245221	0.612145
H	0.193299	-1.494666	1.354555
H	-1.361837	-1.07335	1.012838
N	-0.515166	1.165659	0.742202
H	0.145714	1.345472	1.492482
H	-0.476263	1.985051	0.142431
Br	3.741156	0.0	0.0
