15

C	-0.498512	0.007379	-1.436888
C	0.0	0.0	0.0
F	-0.060055	1.20743	-2.046532
H	1.099646	0.0	0.0
H	-0.044482	-0.799619	-2.015606
N	-1.918784	-0.087869	-1.462017
H	-2.271392	0.645122	-0.855192
H	-2.267905	0.04232	-2.401981
N	-0.430378	-1.188775	0.719117
H	-1.297414	-1.52948	0.322281
H	0.284104	-1.899714	0.628932
N	-0.583218	1.177079	0.660211
H	-0.046793	1.98703	0.367603
H	-0.414422	1.042928	1.649782
Br	3.712316	0.0	0.0
