15

C	0.0	0.0	0.0
C	-0.598581	0.145874	-1.382337
F	1.397194	0.0	0.0
H	-1.701069	0.094477	-1.101079
H	-0.321061	-0.972725	0.382058
C	-0.482343	1.090671	0.92687
H	-0.087858	0.917002	1.932835
H	-1.575611	1.016383	0.906214
H	-0.143131	2.062297	0.564791
C	-0.226667	-0.990726	-2.237199
N	0.081132	-1.86162	-2.966285
N	-0.260516	1.432304	-1.994367
H	-0.900481	1.611878	-2.75748
H	0.678222	1.395641	-2.375389
F	-2.911918	0.0	0.0
