15

C	0.0	0.0	0.0
C	-0.349222	-0.194495	-1.504348
F	1.398066	0.0	0.0
H	0.43562	-0.873315	-1.862486
H	-0.326085	-0.908534	0.517019
C	-0.596927	1.20836	0.656277
H	-0.283157	2.124697	0.150932
H	-0.296124	1.25802	1.707184
H	-1.686893	1.060461	0.57811
C	-0.106652	1.0756	-2.220135
N	0.110984	2.081977	-2.785322
N	-1.642152	-0.733677	-1.870629
H	-2.375987	-0.354428	-1.193404
H	-1.603983	-1.728034	-1.671421
F	-3.199382	0.0	0.0
