15

C	0.0	0.0	0.0
C	-0.632509	-0.068369	-1.37924
F	1.385296	0.0	0.0
H	-1.696473	-0.291346	-1.086678
H	-0.308796	-0.91378	0.518804
C	-0.497876	1.202869	0.766112
H	-1.591763	1.121104	0.75149
H	-0.112021	1.173286	1.78984
H	-0.147438	2.114405	0.276738
C	-0.044355	-1.134398	-2.177182
N	0.424809	-1.991154	-2.830669
N	-0.555654	1.224077	-2.09288
H	-1.455629	1.664332	-1.946677
H	-0.463888	1.062329	-3.086735
F	-2.949369	0.0	0.0
