15

C	0.0	0.0	0.0
C	-0.591552	0.141903	-1.386543
F	1.396946	0.0	0.0
H	-1.694331	0.092964	-1.111755
H	-0.318863	-0.972898	0.383547
C	-0.485458	1.092285	0.922916
H	-0.083634	0.929075	1.928479
H	-1.578582	1.00716	0.904922
H	-0.156633	2.065099	0.55265
C	-0.211073	-0.9974	-2.234917
N	0.103847	-1.872113	-2.956462
N	-0.244928	1.426045	-1.996894
H	-0.84262	1.581889	-2.798802
H	0.714252	1.398785	-2.325331
F	-2.908267	0.0	0.0
