15

C	0.0	0.0	0.0
C	-0.415977	0.098671	-1.458706
F	1.400129	0.0	0.0
H	-0.08862	1.09809	-1.800595
H	-0.339139	-0.948965	0.412268
C	-0.413261	1.1757	0.855961
H	0.041404	1.07928	1.847222
H	-0.048834	2.104336	0.403024
H	-1.499956	1.159343	0.910709
C	-1.863064	0.001738	-1.801124
N	-2.586766	-0.061497	-2.741176
N	0.271421	-0.974115	-2.204102
H	-0.090037	-0.95924	-3.150175
H	1.260151	-0.755997	-2.229222
F	-2.656806	0.0	0.0
