15

C	0.0	0.0	0.0
C	-0.200786	0.070745	-1.536893
F	1.391336	0.0	0.0
H	0.548784	-0.644662	-1.905148
H	-0.392577	-0.940777	0.37589
C	-0.44367	1.195696	0.800591
H	-0.085734	1.089378	1.833382
H	-0.000157	2.087696	0.380974
H	-1.541951	1.213059	0.77424
C	0.314381	1.388775	-2.01557
N	0.727367	2.382028	-2.480525
N	-1.478314	-0.14506	-2.104518
H	-2.163716	-0.265649	-1.337769
H	-1.46599	-0.905226	-2.749827
F	-2.840838	0.0	0.0
