15

C	0.0	0.0	0.0
C	-0.549485	0.138363	-1.403239
F	1.397931	0.0	0.0
H	-1.65549	0.139773	-1.169446
H	-0.335268	-0.961756	0.392356
C	-0.469199	1.117181	0.902474
H	-0.07794	0.955512	1.911811
H	-0.10825	2.074504	0.523241
H	-1.562908	1.057585	0.880022
C	-0.185461	-1.036319	-2.213426
N	0.118476	-1.932056	-2.913017
N	-0.087893	1.386349	-2.01685
H	-0.547151	1.511123	-2.910701
H	0.909557	1.313218	-2.190799
F	-2.864623	0.0	0.0
