15

C	0.0	0.0	0.0
C	-0.419001	-0.001283	-1.490011
F	1.394508	0.0	0.0
H	0.476227	-0.340704	-2.026786
H	-0.320137	-0.970545	0.386696
C	-0.565926	1.109963	0.838046
H	-0.255353	0.986721	1.879851
H	-0.22936	2.085139	0.477051
H	-1.658477	1.005458	0.745261
C	-0.668997	1.376323	-1.98116
N	-0.875537	2.441762	-2.434025
N	-1.506206	-0.933767	-1.726504
H	-2.296462	-0.629813	-1.074061
H	-1.817087	-0.825436	-2.686402
F	-3.118254	0.0	0.0
