16

C	-0.291357	0.048055	-1.491466
C	0.0	0.0	0.0
Cl	-2.04001	0.379925	-1.862947
H	1.106345	0.0	0.0
H	-0.141211	-0.955674	-1.908841
N	0.516271	1.077309	-2.09363
H	0.541537	0.96002	-3.099104
H	1.465293	0.983801	-1.730183
N	-0.551795	-1.228753	0.581291
H	-0.501324	-1.137013	1.59074
H	0.083364	-1.987329	0.349826
C	-0.507841	1.217373	0.744147
H	-1.593387	1.16477	0.861758
H	-0.04135	1.264765	1.732544
H	-0.251087	2.126495	0.199878
Cl	3.494021	0.0	0.0
