16

C	-0.528108	0.019521	-1.424359
C	0.0	0.0	0.0
Cl	0.142254	-1.454924	-2.326221
H	1.098817	0.0	0.0
H	-0.101797	0.854874	-1.979332
N	-1.948527	0.055365	-1.436324
H	-2.313459	-0.090526	-2.367369
H	-2.271277	-0.682749	-0.819614
N	-0.559108	-1.185043	0.677213
H	-0.391808	-1.071932	1.671337
H	0.000638	-1.983176	0.393074
C	-0.454166	1.257303	0.730737
H	-1.537752	1.269992	0.864475
H	0.039099	1.303392	1.706285
H	-0.15647	2.14969	0.1752
Cl	3.570951	0.0	0.0
