16

C	-0.588478	-0.020318	-1.408604
C	0.0	0.0	0.0
Cl	-0.392272	1.633043	-2.182152
H	1.094843	0.0	0.0
H	-1.681689	-0.107342	-1.329547
N	-0.012811	-1.011019	-2.249665
H	-0.716663	-1.586961	-2.693599
H	0.635135	-1.594539	-1.726401
N	-0.382736	-1.293077	0.609146
H	-1.215899	-1.188556	1.17792
H	0.367204	-1.582824	1.22207
C	-0.470041	1.1786	0.842857
H	-1.56819	1.221794	0.873965
H	-0.092464	1.047565	1.859303
H	-0.094722	2.126689	0.461474
Cl	3.493693	0.0	0.0
