16

C	-0.451847	-0.013227	-1.459007
C	0.0	0.0	0.0
Cl	0.04822	-1.533307	-2.273009
H	1.095328	0.0	0.0
H	0.079244	0.774347	-2.007453
N	-1.905548	0.060436	-1.559404
H	-2.196506	0.974323	-1.229096
H	-2.178237	-0.014659	-2.532887
N	-0.48333	-1.135665	0.776402
H	-1.395406	-1.40203	0.418305
H	0.147255	-1.913488	0.625143
C	-0.460757	1.297921	0.661222
H	-0.20401	2.176516	0.059202
H	-1.539342	1.287725	0.853722
H	0.047125	1.386398	1.621915
Cl	3.556749	0.0	0.0
