12
Coordinates from ORCA-job run
  C   0.58378080055173     -0.31991033155217      0.68945785380999
  C   -0.53925407572124     -0.69897256254420     -0.25997136953018
  Cl  -0.02777083190049      0.25135232512590      2.23724862867794
  H   -1.13925828781582     -1.47666896375455      0.23213518060599
  H   1.25966001954833     -1.15427369490150      0.87295078436059
  H   -0.07212455093380     -1.13625213982822     -1.14433053053696
  N   1.42662256817672      0.73722633497451      0.00234593707697
  O   2.02376364700385      0.30239395457757     -0.97798859422914
  O   1.44160087123841      1.88122191089979      0.42019183037644
  N   -1.26206364292080      0.49530211435984     -0.65537696087460
  H   -1.80135290179460      0.32335387503960     -1.49211169520486
  H   -1.89460361543229      0.79522717760342      0.07444893546781
