12
Coordinates from ORCA-job run
  C   0.55674733423270     -0.27520642391565      0.70174007890757
  C   -0.86656821150406      0.03348599106560      0.28571078426166
  Cl  0.88617618694349      0.24363078239416      2.35928056045978
  H   -1.02836970397770      1.10385470500708      0.42032740743832
  H   0.80716277223186     -1.32904503514043      0.60713563933956
  H   -1.54103531693483     -0.49483210331070      0.96678606956652
  N   1.50236729141701      0.44231946754415     -0.22644038878889
  O   2.44445373239163     -0.21085275816443     -0.66003388075219
  O   1.25599333414122      1.61817226138818     -0.46803294863983
  N   -1.01798715129586     -0.36576523638825     -1.10529175508036
  H   -1.63597876870808     -1.15659660745798     -1.20728160003096
  H   -1.36196149893738      0.39283495697828     -1.67389996668118
