12
Coordinates from ORCA-job run
  C   0.58909090053429     -0.33864374408462      0.67662640865897
  C   -0.56197686007985     -0.68427736774468     -0.25165434944656
  Cl  0.02383971609128      0.24078686150860      2.23872083131917
  H   -1.17225004062707     -1.44852289527584      0.24885341313977
  H   1.24864758436353     -1.18954851332382      0.84259409091464
  H   -0.12420123871132     -1.12907934488372     -1.14717909203097
  N   1.44429752648245      0.70084185042655     -0.02345751471964
  O   1.49704297148059      1.84204094912534      0.39873817091504
  O   2.00979758516998      0.25562427426711     -1.01776608370912
  N   -1.26148130064602      0.53017122626000     -0.62726346168399
  H   -1.87037234374061      0.84338164361631      0.11696534345911
  H   -1.82243450031726      0.37622506010876     -1.45317775681643
