12
Coordinates from ORCA-job run
  C   0.47732932722786      0.09503456799232      0.60384901193098
  C   -0.51866935739207     -0.15439794263849     -0.51252816564624
  Cl  0.16583034441268      1.63044442222332      1.41895664215188
  H   -0.46045027209463      0.68252413680554     -1.21875161637554
  H   0.46024883920866     -0.70073533069607      1.34344605344225
  H   -0.19364842254926     -1.06231679645535     -1.03072721278544
  N   1.86316940469894      0.10856072444579      0.02158234500028
  O   2.11625288285467      0.97696399572997     -0.80549766238843
  O   2.61110658934411     -0.79689290608548      0.38344387214780
  N   -1.82777370574418     -0.39498098739192      0.07372566191772
  H   -2.42394674097776     -0.86825859959506     -0.59150564787160
  H   -2.26944888898901      0.48305471566545      0.31400671847634
