12
Coordinates from ORCA-job run
  C   0.46749037121209      0.05841132659195      0.61837733250544
  C   -0.50715354035159     -0.12405710868746     -0.52970568370855
  Cl  0.09972615540407      1.50880000135019      1.55549966667926
  H   -0.14890654025249     -0.97493508328282     -1.11798595285594
  H   0.46590566880743     -0.79775580644078      1.28733680645333
  H   -0.46503480479685      0.77152147818131     -1.16133747209663
  N   1.85852032519843      0.15974793498304      0.05698358438098
  O   2.10290784262218      1.11455455981758     -0.67137306440461
  O   2.61880938608977     -0.76683375193424      0.32832524629459
  N   -1.81594363467108     -0.44993672327372      0.01432504212508
  H   -2.28981154161551      0.39256444558249      0.31318274556534
  H   -2.38650968764640     -0.89008127288755     -0.69462825093830
