12
Coordinates from ORCA-job run
  C   0.59736919399415     -0.42938680181454      0.57353580958840
  C   -0.86575739934206     -0.15588717131318      0.31018145087376
  Cl  0.98764916760724     -0.35385750935793      2.29660209235102
  H   -1.14443328906338      0.78595062496574      0.79233710922637
  H   0.91236038483770     -1.39290804808809      0.18062105439335
  H   -1.42989034544074     -0.96034035669299      0.78792108723514
  N   1.45039272379812      0.58814674886082     -0.14187693429491
  O   0.99067520732156      1.72075776578713     -0.26167638563282
  O   2.54677661973865      0.20464984058437     -0.53168782527064
  N   -1.06944882447622     -0.19061350797881     -1.13088382390922
  H   -0.99314277047354      0.74056855915505     -1.51681965885993
  H   -1.98255066850148     -0.55608014410757     -1.35925397570055
