12
Coordinates from ORCA-job run
  C   0.66092936178687     -0.50463322385086      0.52655613662596
  C   -0.64569636071015     -0.60305286311866     -0.25167604918659
  Cl  0.38171260215873     -0.26448734200525      2.24186276227129
  H   -0.39563806379088     -0.91725845734860     -1.26660045160731
  H   1.28769528723731     -1.38760113979142      0.39549709383205
  H   -1.23937593078862     -1.39770407088622      0.21038883715758
  N   1.45845917627483      0.63958381637747     -0.07098180030684
  O   1.70703351504007      0.47453904918554     -1.26298082868399
  O   1.78045939184255      1.59486014291261      0.61252428383273
  N   -1.31282472194784      0.68535581048588     -0.24929102890400
  H   -1.52411910521096      0.99813094927423     -1.18400682052864
  H   -2.15863515189190      0.68126732876527      0.29870786549778
