12
Coordinates from ORCA-job run
  C   0.57069241186870     -0.31357633576695      0.70307777722817
  C   -0.54530877152610     -0.69712634809301     -0.25219444179367
  Cl  -0.05170183120384      0.29871199183409      2.23090036652485
  H   -1.16230958385739     -1.45636366695114      0.24766467688137
  H   1.23404880573459     -1.15172865397177      0.91297445117792
  H   -0.07334278700470     -1.15829999721254     -1.12175013591182
  N   1.43668722532918      0.71801704456317      0.00449008146526
  O   1.46178864359556      1.87029621174975      0.39823005366249
  O   2.03903598752976      0.25476987600353     -0.95943838354142
  N   -1.24683106205893      0.49841051885818     -0.68134312744841
  H   -1.78162986277872      0.31488619044142     -1.51853694100468
  H   -1.88112917562812      0.82400316854525      0.03592562275994
