12
Coordinates from ORCA-job run
  C   0.53875216150686     -0.33332490473920      0.68659124739837
  C   -0.57105468871044     -0.78110883923433     -0.27555929919652
  Cl  -0.10748330549238      0.26311092938597      2.20789374722258
  H   -0.07795094570136     -1.21898785217780     -1.14773277621605
  H   1.24240240839541     -1.13766123688351      0.89508316118678
  H   -1.12522627527641     -1.57668689990378      0.22878396517860
  N   1.34318589069935      0.72920293161089     -0.02081548936125
  O   2.13719803019672      0.27868364903321     -0.84345414180168
  O   1.09943048802454      1.91024095111988      0.18515106968732
  N   -1.49423883577174      0.23563700963575     -0.71396277066324
  H   -1.03896494327583      0.94431102149850     -1.27315545577778
  H   -1.94604998459469      0.68658324065440      0.07017674234287
