12
Coordinates from ORCA-job run
  C   0.94528486615800      0.08406858924063      0.18511593565345
  C   -0.33338161691053      0.14159858607427     -0.28814914487761
  C   1.27338198476822     -0.71606654405214      1.32627082399586
  N   1.53638972908933     -1.37414705185213      2.26604584127128
  C   2.01457891048119      0.81375224576163     -0.42578544522900
  N   2.90030197228552      1.40909093656625     -0.92246517266414
  C   -1.48984333383304     -0.59934966913396      0.30924484263952
  H   -1.93069809210951     -1.26204578591387     -0.44050277810715
  H   -2.26418799961793      0.10953132303379      0.61475016440448
  H   -1.18388983862932     -1.18914329353568      1.17320631804897
  C   -0.60097043409962      0.96034571847880     -1.43046250871436
  N   -0.86696614758231      1.62236494533240     -2.36826887642129
