12
Coordinates from ORCA-job run
  C   0.89187509962812      0.03976889203129      0.37026250516235
  C   -0.39432772020481      0.24033395094991     -0.03933894019107
  C   1.58598282897708     -1.17163949877035      0.05279146347303
  N   2.15318124947008     -2.16859980878960     -0.21135159186406
  C   1.60878311634637      1.01907953120311      1.12921414151816
  N   2.20638529155128      1.81770397655612      1.75414936856291
  C   -1.19190873189897     -0.74821044768928     -0.83310677074010
  H   -0.61461180041011     -1.64793015836592     -1.04657445559936
  H   -1.51170072574924     -0.29498402742007     -1.77546090012468
  H   -2.09394419294097     -1.02420192242307     -0.28021631313054
  C   -1.03595284110321      1.47087860015372      0.30817358155768
  N   -1.60476157366562      2.46880091256414      0.57045791137569
