12
Coordinates from ORCA-job run
  C   0.94334890730898      0.14427662799447      0.15316238601989
  C   -0.35706062883465      0.13886853841888     -0.26037497922620
  C   1.38705455875608     -0.72453845582377      1.20105928097552
  N   1.74664697555269     -1.43934605429659      2.06417714916174
  C   1.92320688858055      1.00952517651923     -0.43038479243376
  N   2.73757041009617      1.71747837846242     -0.90071094281564
  C   -1.42300481131832     -0.74277070353431      0.31387617612018
  H   -1.84729953636362     -1.37087503598265     -0.47415416141141
  H   -2.23395324835146     -0.12823557996709      0.71426391123984
  H   -1.03156809292653     -1.37929018252068      1.10738772516002
  C   -0.74137317167304      1.02916558674218     -1.31232818313209
  N   -1.10256825082684      1.74474170398790     -2.17597356965810
