12
Coordinates from ORCA-job run
  C   0.95676820824197      0.05039676857694      0.12284767069159
  C   -0.34533586857880      0.14169047586973     -0.27522198533150
  C   1.32068342762455     -0.69781009896502      1.28826359046912
  N   1.61455181900066     -1.31634180379700      2.24556142897557
  C   2.01759276295669      0.68784928191501     -0.59635937560293
  N   2.89690211612076      1.21036545088558     -1.17900877153011
  C   -1.49372640439034     -0.50370328362722      0.43715593271227
  H   -2.21406613104441      0.25919406417027      0.74536174453279
  H   -2.01108524319757     -1.18845092999655     -0.24059282929942
  H   -1.16023000845978     -1.05633101979298      1.31537733589525
  C   -0.64621324429196      0.90041532660717     -1.45021027100011
  N   -0.93784143398178      1.51372576815406     -2.41317447051254
