12
Coordinates from ORCA-job run
  C   0.94923978268440      0.13431124070642      0.12559443155951
  C   -0.36052006946200      0.13431011273128     -0.25752038861307
  C   1.40266801053139     -0.69585337926999      1.20044127835443
  N   1.76954939162419     -1.38073637562559      2.08456514654937
  C   1.92926014306866      0.95469034484578     -0.51924820261283
  N   2.74289614613256      1.62483767393459     -1.04318962784746
  C   -1.42701866714386     -0.70248641502112      0.37922417606815
  H   -1.88146788068845     -1.35529866312668     -0.37101642995241
  H   -2.21725287078161     -0.05750307142792      0.77296262613065
  H   -1.02676533477776     -1.31266915998550      1.18884664736539
  C   -0.75485650606122      0.98565567943942     -1.33757055745974
  N   -1.12473214512630      1.67074201279931     -2.22208909954199
