12
Coordinates from ORCA-job run
  C   0.90143334281109      0.04790665689584      0.34055146755820
  C   -0.39986987800121      0.23861193379669     -0.02374378998760
  C   1.59907150754337     -1.15211369531519     -0.00883677758525
  N   2.17192950261292     -2.13887581270236     -0.29844226414757
  C   1.63650047910013      1.02602554457645      1.08310388252998
  N   2.26343414211172      1.81091823032534      1.69840112756094
  C   -1.21295730794026     -0.75324669459707     -0.79635135969868
  H   -1.54417898968580     -0.30725232840280     -1.73810339855720
  H   -2.10868150797821     -1.02132746949715     -0.22933227069588
  H   -0.64178049568982     -1.65578866517738     -1.01178476988665
  C   -1.04443969838646      1.45843155871232      0.35254926070509
  N   -1.62146109649746      2.44771074138531      0.63098889220462
