12
Coordinates from ORCA-job run
  C   0.94909489817433      0.06914387466903      0.16935034951115
  C   -0.33917668822007      0.16160979547765     -0.27111005731606
  C   2.01032458411651      0.82661861579263     -0.42132056538560
  N   2.89122678461066      1.44330156578096     -0.90033340121486
  C   1.29709005796039     -0.80120757333975      1.25166373800665
  N   1.57725456197973     -1.51807491298005      2.14213224128748
  C   -1.48714347187116     -0.60705777358351      0.30720721628958
  H   -2.24940377452031      0.08602319188719      0.67347367023811
  H   -1.94997522411010     -1.22044491710682     -0.47083363833839
  H   -1.16583468016002     -1.25074918895098      1.12608951158145
  C   -0.62619211872082      1.04800248867859     -1.35679189226130
  N   -0.90726492923915      1.76383483367506     -2.24952717239820
