12
Coordinates from ORCA-job run
  C   0.89868927242268      0.00797983054059      0.35498517254250
  C   -0.38697940471219      0.25394762019469     -0.03066779506108
  C   1.66528280882189      0.95992388276808      1.09983165113412
  N   2.30872940159703      1.73433007914854      1.70990984883397
  C   1.54285843716104     -1.22801327268245      0.02653784496273
  N   2.06771181266518     -2.24658979370461     -0.24256879741879
  C   -1.23202287063743     -0.70348421152417     -0.81323812988606
  H   -0.69510575875683     -1.62729363292458     -1.02845426950184
  H   -2.14096153623535     -0.93837173775808     -0.25268057595405
  H   -1.53930862959888     -0.24008011996788     -1.75492000286241
  C   -0.97922689321368      1.50567625045197      0.32877686185846
  N   -1.50866663951345      2.52197510545790      0.60348819135246
