12
Coordinates from ORCA-job run
  C   0.95095883169015      0.08836087930719      0.14744665401919
  C   -0.34389732914776      0.13208826717680     -0.28106671973647
  C   1.31713835126815     -0.65952630899024      1.31221880866334
  N   1.61445889279878     -1.27938046551290      2.26753043306823
  C   2.00198196592823      0.77630230964744     -0.53903561833946
  N   2.87424524610472      1.33797645905175     -1.09527928212919
  C   -1.48177413303262     -0.56834357524744      0.39555520098923
  H   -2.24021787273945      0.16073707749136      0.69359566422830
  H   -1.14755387967920     -1.11675434534720      1.27621163050623
  H   -1.95421921709127     -1.26443464409992     -0.30305290589696
  C   -0.64784683532794      0.89083243525602     -1.45519406014634
  N   -0.94327402077182      1.50114191126686     -2.41892980522616
