12
Coordinates from ORCA-job run
  C   0.94644835475750      0.13013370973458      0.17728857777973
  C   -0.33239855553070      0.11493515489315     -0.29756256180391
  C   1.99203314172971      0.85650403275736     -0.47565628396560
  N   2.86489456522209      1.44562325701896     -1.00197074787618
  C   1.29888804725165     -0.59958426070278      1.35803993269872
  N   1.57350580326738     -1.21682209293487      2.32191398266968
  C   -1.46282259989349     -0.63162857833986      0.34183846850325
  H   -1.83687723793709     -1.39664361920194     -0.34368380803323
  H   -2.28913686675140      0.05373136205928      0.54552471487596
  H   -1.15165364115633     -1.10698167633846      1.27211712248241
  C   -0.63753163818870      0.86824623905547     -1.47449847543753
  N   -0.96634937277063      1.48248647199910     -2.42535092189330
