12
Coordinates from ORCA-job run
  C   0.92198953958710      0.07056137274449      0.28321090984029
  C   -0.40162110907177      0.22944980537752     -0.00878151660122
  C   1.68224087486128      1.09063700621787      0.93946074277807
  N   2.31504381893559      1.92280127296651      1.48050732301346
  C   1.61252125075296     -1.13640965803771     -0.05831528514891
  N   2.17525224617406     -2.13018473180070     -0.34313527569905
  C   -1.24644068591166     -0.80157190870866     -0.69150786859954
  H   -2.09006939364049     -1.07187319724858     -0.05054054188918
  H   -0.67265617013636     -1.69845413855664     -0.92503720410537
  H   -1.65841338119429     -0.38840717956933     -1.61639061494631
  C   -1.03656899233753      1.45880812520606      0.35540564066173
  N   -1.59927799801889      2.45564323140916      0.63512369069604
