12
Coordinates from ORCA-job run
  C   0.91739929843299      0.07273900312866      0.29605822173943
  C   -0.39759356905706      0.23550316865791     -0.03026080576004
  C   1.68577734633776      1.11901923479601      0.89934897873518
  N   2.32813790870812      1.97245681894013      1.39408488097334
  C   1.59132857720308     -1.16519991087687      0.04439613518085
  N   2.14010026946470     -2.18524380080284     -0.16472783486117
  C   -1.24822909790354     -0.82207517287868     -0.66337882890986
  H   -2.10717441901854     -1.03869260448622     -0.02243364817299
  H   -1.63668844496632     -0.46011344046154     -1.61926688202208
  H   -0.68611449012012     -1.74072795443078     -0.83089796587942
  C   -1.01715068230313      1.49538934251092      0.24480732421814
  N   -1.56879269677794      2.51594531590329      0.45127042475863
