12
Coordinates from ORCA-job run
  C   0.93753715060249      0.09687915243619      0.21481398590272
  C   -0.33281621565974      0.16021775701344     -0.27927525382878
  C   1.99073243524237      0.92450296158809     -0.28928418934870
  N   2.86302214090284      1.60182578348520     -0.69660926989081
  C   1.27291650716296     -0.81014664403175      1.27070284638983
  N   1.54259374720256     -1.55508468364543      2.14118323491239
  C   -1.47178069984926     -0.68153739655410      0.20820296803558
  H   -2.27897320691034     -0.03884719465354      0.57001965969533
  H   -1.87178215841889     -1.27568269179564     -0.61820108028694
  H   -1.16029690425597     -1.35021083943787      1.01073084258322
  C   -0.60881296888790      1.08800984470169     -1.33265754816328
  N   -0.88133982713110      1.83807395089373     -2.19962619600056
