12
Coordinates from ORCA-job run
  C   0.91484892249571      0.06422659293819      0.30500185881276
  C   -0.40083233744101      0.23154190653797     -0.01606197028636
  C   1.66656594982756      1.07792251974253      0.98064337118930
  N   2.29399559414917      1.90598683711995      1.53412282164630
  C   1.60718203132970     -1.14417743053603     -0.02732153321676
  N   2.17192268395023     -2.13907328973294     -0.30431974516302
  C   -1.23515750182571     -0.79257660626702     -0.72179546927772
  H   -2.09208146131097     -1.06393132904308     -0.09907147893138
  H   -1.62649070818890     -0.37337347179430     -1.65275467269453
  H   -0.65970618012688     -1.69028452790919     -0.94788727447769
  C   -1.03770071040293      1.46239274830812      0.33915624175512
  N   -1.60254628245597      2.46034605063579      0.61028785064399
