12
Coordinates from ORCA-job run
  C   0.91400455076596      0.01576864461608      0.31555656751531
  C   -0.39133582603180      0.24663575145484     -0.00879020774018
  C   1.69117521192738      0.96313419287329      1.05584322887584
  N   2.33732902614061      1.73579733215457      1.66495990006836
  C   1.56668417457729     -1.19720321201302     -0.07508343400393
  N   2.09740633793915     -2.19609558764621     -0.40064114663485
  C   -1.25271178978415     -0.70721745454671     -0.77743996376752
  H   -1.61969596269891     -0.22394453323090     -1.68688976596650
  H   -2.12522482517624     -0.98138531051147     -0.17813888275067
  H   -0.70656178352411     -1.61080725274169     -1.04791964509170
  C   -0.98916297002290      1.47785583702145      0.40793208258540
  N   -1.52190614411227      2.47846159256977      0.72961126691045
