12
Coordinates from ORCA-job run
  C   0.92145748354032      0.07606064947702      0.28029014641494
  C   -0.40380163093937      0.22746560035242     -0.00761660850632
  C   1.67753641148543      1.09764500090144      0.93905175257547
  N   2.30989211044680      1.92851154906324      1.48253340345542
  C   1.61911355485142     -1.12482529240410     -0.06783565170387
  N   2.18917390984207     -2.11309392694473     -0.35718839831518
  C   -1.24380449054709     -0.80704743095411     -0.69098451542321
  H   -2.08314222033291     -1.08509514633607     -0.04773141083297
  H   -0.66463450172343     -1.69917691949716     -0.92920396486359
  H   -1.66166858483933     -0.39396191867911     -1.61312059679597
  C   -1.04593574110125      1.45111037593153      0.36292110530450
  N   -1.61518630068263      2.44240745908963      0.64888473869080
