12
Coordinates from ORCA-job run
  C   0.92122954566273      0.08094888946739      0.28455500144877
  C   -0.40002425165593      0.23094787608611     -0.02242448427429
  C   1.68618832994864      1.13339749831020      0.88137707297066
  N   2.32287225402138      1.99539923467069      1.36864745368642
  C   1.60432677578797     -1.14858438387730      0.01686552980574
  N   2.15741483928864     -2.16337337678542     -0.20578964315659
  C   -1.24729990290136     -0.83179481232435     -0.65165101743655
  H   -1.64918666162588     -0.46862143140127     -1.60169456200669
  H   -2.09747696924631     -1.05987651012817     -0.00285250795270
  H   -0.67804203879286     -1.74411859226328     -0.82980157846909
  C   -1.02998927496258      1.48160205685182      0.26996616149845
  N   -1.59001264552444      2.49407355139357      0.49280257388586
