12
Coordinates from ORCA-job run
  C   0.91330478824298      0.07525314499344      0.30756761348859
  C   -0.39820916264153      0.23413859492399     -0.03434590727697
  C   1.66749481988132      1.11942386263249      0.93193037849378
  N   2.29684346695377      1.97183055359072      1.44479234779644
  C   1.59672258773059     -1.15725925582603      0.05415988179630
  N   2.15326052541142     -2.17265737545097     -0.15692151222233
  C   -1.23467714630349     -0.82209962544078     -0.68846181140694
  H   -1.61575258600096     -0.45268808100879     -1.64439472458484
  H   -2.09848430028577     -1.05182146503120     -0.05871250898000
  H   -0.66440367488993     -1.73499170768788     -0.85975962052980
  C   -1.02845009815961      1.48736278481030      0.24618590496114
  N   -1.58764921993879      2.50250856949470      0.45895995846464
