12
Coordinates from ORCA-job run
  C   0.94199795070816      0.15717226586914      0.14825162051576
  C   -0.35908268928289      0.12984599445853     -0.26235863834146
  C   1.39587178283337     -0.68105325735411      1.21662318035370
  N   1.76388333867589     -1.37240095153250      2.09522197112770
  C   1.91340108276306      1.01348931706770     -0.46221562585699
  N   2.71980490097882      1.71263174940497     -0.95868377511175
  C   -1.41598375806220     -0.74543015418324      0.33770987807160
  H   -2.22908882832592     -0.12762146308881      0.72893598277728
  H   -1.83939684571070     -1.39490160023148     -0.43314902168313
  H   -1.01545957787774     -1.36092616482402      1.14316922098929
  C   -0.75341735788663      0.98921827096226     -1.33592685855477
  N   -1.12252999881323      1.68097599345156     -2.21557793428725
