12
Coordinates from ORCA-job run
  C   0.90640165961031      0.01988949343619      0.33457876583437
  C   -0.38782246241579      0.25196925708666     -0.03060732848507
  C   1.68410019253182      0.99429611840029      1.03794214463942
  N   2.33338737059876      1.78830068697889      1.61561973621754
  C   1.54757561883614     -1.22265659976798      0.02583449709941
  N   2.06942148144203     -2.24622738692358     -0.22968108881375
  C   -1.24677607566545     -0.72934331546070     -0.76689727192141
  H   -2.13698762848056     -0.95851507944550     -0.17473431898292
  H   -1.58513830509155     -0.29003424300039     -1.70934254248165
  H   -0.70880860975359     -1.65394769218660     -0.97622292790176
  C   -0.97538169159812      1.51181962225235      0.30723200199529
  N   -1.49897155001401      2.53544913863038      0.56527833280054
