12
Coordinates from ORCA-job run
  C   0.89142453862840      0.00176883048577      0.37425753827432
  C   -0.38285311618170      0.25731315484882     -0.04198012076274
  C   1.64869086158042      0.95242678529891      1.13039043511299
  N   2.28004708000014      1.72717903243599      1.75239549239165
  C   1.53039246094943     -1.24277636208074      0.06878228512371
  N   2.04967007014977     -2.26758548953449     -0.18711814189896
  C   -1.22057704234064     -0.69859639980670     -0.83412595110394
  H   -2.13785101046172     -0.92861027505725     -0.28528980351630
  H   -1.51319711062500     -0.23655291317767     -1.78089690782644
  H   -0.68478264719634     -1.62525009807541     -1.03926811142440
  C   -0.96924957891855      1.51805176724183      0.29473730032227
  N   -1.49071450558420      2.54363196742095      0.54911598530785
