12
Coordinates from ORCA-job run
  C   0.91463994027061      0.04567843755366      0.30568501621650
  C   -0.40004327223347      0.23643124142855     -0.00644479736411
  C   1.59621683884912     -1.15397603332695     -0.07740556717621
  N   2.15188948560791     -2.14219690621201     -0.39366153275647
  C   1.67574510026444      1.02071671163717      1.02617015560907
  N   2.31706591355154      1.81059223565781      1.61834644605471
  C   -1.24069546376162     -0.74843550298696     -0.75909404572276
  H   -0.67801614407884     -1.64919536903267     -1.00448775327003
  H   -1.60612615470638     -0.29174119785078     -1.68319887129353
  H   -2.11458770921058     -1.02222471739639     -0.16186256803783
  C   -1.02839215894065      1.45382147595469      0.40581078402258
  N   -1.58669637561208      2.43952962457388      0.73014273371807
