12
Coordinates from ORCA-job run
  C   0.90449095009847      0.00138779997969      0.34236717556557
  C   -0.38813750338397      0.25139756082800     -0.01672008942361
  C   1.67590010275177      0.93673366889225      1.10335359249880
  N   2.31887870910951      1.70050498118352      1.72694411231948
  C   1.55089088565318     -1.21936297457801     -0.03452212461000
  N   2.07707541602185     -2.22441498613213     -0.34829979046044
  C   -1.24121854279500     -0.68823536811969     -0.81188739014404
  H   -1.57359583809784     -0.19777459630251     -1.73089717839923
  H   -2.13509378616215     -0.95044009579146     -0.23928321163867
  H   -0.70096095913862     -1.59955422661405     -1.06823263294633
  C   -0.97960881147699      1.49065621500856      0.38491311081338
  N   -1.50662062258021      2.49910202164583      0.69126442642507
