12
Coordinates from ORCA-job run
  C   0.91658237373819      0.05007143173244      0.30258065611843
  C   -0.38882339757360      0.24857609391589     -0.04214484993158
  C   1.71494946229654      1.08605231955882      0.88421297880804
  N   2.38150979095452      1.92897840048726      1.36456799904555
  C   1.54886064361469     -1.21757694879639      0.09420807727042
  N   2.06334195527473     -2.26189030294726     -0.07929476824369
  C   -1.27007498859167     -0.79767550542186     -0.65165323548133
  H   -1.63901304893056     -0.45134188207087     -1.62095482151345
  H   -2.14060228987579     -0.96635081566867     -0.01177921041413
  H   -0.73836304337086     -1.73947851257477     -0.78701713536243
  C   -0.96604656929928      1.53710234728335      0.18883754428628
  N   -1.48232088823691      2.58253337450206      0.35943676541788
