12
Coordinates from ORCA-job run
  C   0.90450128240606      0.05234608312613      0.33780179041352
  C   -0.37415981979978      0.25591533823294     -0.09302390806233
  C   1.72738345753728      1.12503553471820      0.80836131397037
  N   2.41222740846342      1.99985004216378      1.19736300783622
  C   1.48335299024285     -1.25725595242296      0.33508963448019
  N   1.95374332931662     -2.33612171954301      0.32958726343558
  C   -1.27941504972715     -0.82628855778916     -0.59528073366460
  H   -2.18429914091668     -0.86510116603119      0.01739583564292
  H   -0.79011671582270     -1.80005225743516     -0.57263664457770
  H   -1.58788676946164     -0.60360656678972     -1.62046268204660
  C   -0.89687030059128      1.58772346903494     -0.07174520596880
  N   -1.36846067164699      2.66755575273521     -0.07244967145877
