12
Coordinates from ORCA-job run
  C   0.90971372609832      0.03451835109776      0.32347843041461
  C   -0.39661920428981      0.23989650747110     -0.01403182941053
  C   1.58462466830826     -1.17370628936896     -0.04426289385030
  N   2.13411793190633     -2.16877680778825     -0.34989085787404
  C   1.66845590176330      1.00565175891442      1.05139775747139
  N   2.30186243543063      1.79667031475209      1.65039564444277
  C   -1.23621245642588     -0.73842558386238     -0.77612353995184
  H   -2.10948213227214     -1.01956249252089     -0.18140637317185
  H   -0.67232227783030     -1.63626724699812     -1.02882219325353
  H   -1.60162940893486     -0.27381838677827     -1.69613236274084
  C   -1.01625174006562      1.46789386052470      0.37965061806898
  N   -1.56525744368822      2.46492601455679      0.68474759985519
