15

C	0.0	0.0	0.0
C	-0.49625	0.300402	-1.410566
F	1.353444	0.0	0.0
H	-0.166892	-0.457077	-2.114587
H	-1.592129	0.366926	-1.371255
N	-0.49468	0.747743	1.078872
H	-1.502206	0.570865	1.132468
H	-0.357571	1.72639	0.856518
N	-0.34682	-1.494034	0.255398
O	-0.853046	-1.807886	1.319879
O	0.018277	-2.266729	-0.630233
N	0.038456	1.59261	-1.915898
O	0.143904	2.541014	-1.137353
O	0.312099	1.645733	-3.113205
Cl	-3.529494	0.0	0.0
