15

C	0.0	0.0	0.0
C	-0.496322	-0.384184	-1.386849
F	1.361425	0.0	0.0
H	-0.036044	-1.309574	-1.727905
H	-1.588438	-0.48628	-1.353617
N	-0.49461	1.161765	0.608345
H	-0.28309	1.944427	0.002676
H	-1.510129	1.053141	0.683638
N	-0.348533	-1.205005	0.915178
O	-0.671806	-0.984639	2.070657
O	-0.161462	-2.314649	0.416626
N	-0.170594	0.639421	-2.41997
O	0.443027	1.658574	-2.099764
O	-0.523135	0.370581	-3.564973
Cl	-3.50787	0.0	0.0
