15

C	0.0	0.0	0.0
C	-0.507745	-0.02338	-1.423601
F	1.389686	0.0	0.0
H	-1.600363	0.032574	-1.409809
H	-0.141125	-0.907279	-1.933719
N	-0.505833	1.024959	0.771352
H	-1.524352	1.045899	0.649127
H	-0.282039	0.863546	1.746447
N	-0.252579	-1.424237	0.626372
O	-0.340567	-2.392619	-0.11962
O	-0.251966	-1.4607	1.85244
N	0.038848	1.150233	-2.159107
O	0.98189	0.936862	-2.926373
O	-0.487184	2.24305	-1.97071
Cl	-3.52386	0.0	0.0
