15

C	0.0	0.0	0.0
C	-0.577048	-0.224149	-1.388734
F	1.355071	0.0	0.0
H	-1.646587	-0.425621	-1.296882
H	-0.403052	0.693663	-1.951953
N	-0.528415	1.164245	0.553641
H	-0.292428	1.196949	1.539448
H	-1.55173	1.112112	0.46702
N	-0.27236	-1.259562	0.883634
O	-0.282529	-1.073946	2.096343
O	-0.359615	-2.343089	0.317822
N	0.052559	-1.315876	-2.184066
O	1.269699	-1.265945	-2.361888
O	-0.698003	-2.156213	-2.673248
Cl	-3.566953	0.0	0.0
