15

C	0.0	0.0	0.0
C	-0.537417	-0.316359	-1.369795
F	1.388057	0.0	0.0
H	-1.63421	-0.323458	-1.327893
H	-0.159703	-1.278069	-1.707879
N	-0.549016	1.104968	0.606413
H	-1.565899	1.068014	0.468636
H	-0.348422	1.096623	1.59866
N	-0.211584	-1.328073	0.864466
O	0.058867	-2.400147	0.33455
O	-0.515186	-1.168583	2.039983
N	-0.131088	0.663999	-2.419922
O	-0.493841	0.365873	-3.557495
O	0.516951	1.662482	-2.124189
Cl	-3.554408	0.0	0.0
