12

C	0.0	0.0	0.0
C	-0.449627	0.072514	-1.462487
Cl	1.842085	0.0	0.0
H	-0.120726	1.025015	-1.890573
H	-0.290954	-0.957952	0.427138
H	-1.548237	0.0529	-1.432223
N	-0.501786	1.04768	0.825557
H	-0.390881	1.937752	0.35029
H	-1.506218	0.869679	0.917226
C	0.04689	-1.012906	-2.302108
N	0.449975	-1.876401	-2.989883
Cl	-3.531358	0.0	0.0
