12

C	0.0	0.0	0.0
C	-0.486703	0.339839	-1.403328
Cl	1.830987	0.0	0.0
H	-0.171201	1.356855	-1.659131
H	-0.30284	-1.011149	0.264121
H	-1.586978	0.304257	-1.354688
N	-0.516499	0.917122	0.928012
H	-0.087512	1.828038	0.884687
H	-0.585618	0.565961	1.867476
C	0.02057	-0.576973	-2.420149
N	0.42212	-1.312683	-3.241701
Cl	-3.751726	0.0	0.0
