12

C	0.0	0.0	0.0
C	-0.499834	0.497144	-1.351889
Cl	1.788025	0.0	0.0
H	-0.177735	1.534339	-1.475566
H	-0.282048	-1.051287	0.121454
H	-1.596985	0.45991	-1.312355
N	-0.505282	0.882773	1.015722
H	-0.286776	0.4932	1.926239
H	-1.52605	0.851648	0.916972
C	-0.01944	-0.297808	-2.476484
N	0.368031	-0.909073	-3.400256
Cl	-3.570256	0.0	0.0
