17

C	0.0	0.0	0.0
C	-0.355456	0.07643	-1.605064
Br	1.978218	0.0	0.0
H	-1.338163	0.44047	-1.843318
N	-0.280686	1.461996	0.938639
O	0.733948	1.775164	1.63149
O	-1.283484	2.186966	0.871444
N	-0.383086	-1.3071	0.654371
H	-0.15246	-1.222826	1.6343
H	0.038021	-2.111548	0.181182
N	-0.247337	-1.170586	-2.27621
H	-1.073879	-1.7179	-2.056007
H	0.599424	-1.673436	-2.05826
N	0.42011	1.192707	-2.324789
O	1.133268	0.939514	-3.289529
O	0.221286	2.299957	-1.845451
Cl	-2.587048	0.0	0.0
