16

C	-0.54942	-0.001311	-1.586162
C	0.128887	0.054222	-0.226382
Cl	-0.135621	1.459081	-2.557808
H	1.210288	0.121765	-0.348071
H	-0.200463	0.989174	0.25497
N	0.034315	-1.17955	-2.359261
O	-0.749683	-1.998485	-2.834735
O	1.252128	-1.224844	-2.462436
C	-2.048781	-0.13152	-1.508422
H	-2.282088	-1.050066	-0.972182
H	-2.502599	-0.162688	-2.498175
H	-2.43717	0.728448	-0.958237
N	-0.157129	-1.165615	0.497243
H	-0.945259	-0.99752	1.114155
H	0.727539	-1.22165	1.130563
F	1.949376	-0.791562	1.805243
