17

C	0.0	0.0	0.0
C	-0.378464	0.046545	-1.500412
F	1.334448	0.0	0.0
H	-1.420168	-0.276763	-1.560573
N	-0.293095	1.310737	0.772755
O	0.501786	1.582464	1.666028
O	-1.267655	1.981366	0.449087
N	-0.790239	-1.061962	0.680721
O	-0.753217	-1.014383	1.939208
O	-0.77037	-2.159455	0.032744
C	0.526963	-0.876876	-2.329889
H	0.510508	-1.865331	-1.877078
H	1.548614	-0.500014	-2.369543
H	0.138292	-0.933253	-3.349471
C	-0.283138	1.397977	-2.052954
N	-0.14515	2.435122	-2.589142
H	-2.159298	0.0	0.0
