17

C	0.0	0.0	0.0
C	-0.379708	0.050589	-1.498245
F	1.336275	0.0	0.0
H	-1.463208	-0.101529	-1.535545
N	-0.297996	1.334665	0.726041
O	-1.257869	2.000359	0.354089
O	0.479757	1.634115	1.625149
N	-0.792739	-1.038286	0.719291
O	-0.744862	-0.940835	1.974288
O	-0.782987	-2.16064	0.119049
C	0.357651	-1.010396	-2.327848
H	0.136055	-1.988954	-1.908457
H	1.434779	-0.838027	-2.320284
H	0.005644	-0.956564	-3.361639
C	-0.069767	1.365774	-2.058987
N	0.237293	2.389769	-2.547116
H	-2.201886	0.0	0.0
