14

C	-0.380137	0.073813	-1.486812
C	0.0	0.0	0.0
Cl	-0.099146	-1.572066	-2.254511
H	1.095758	0.0	0.0
H	-1.449506	0.242648	-1.632928
N	0.386752	1.114543	-2.061786
H	1.3747	0.970278	-1.862273
H	0.243891	1.186768	-3.059225
N	-0.498155	-1.171992	0.702562
H	0.250154	-1.537154	1.277251
H	-1.282328	-0.939159	1.296806
C	-0.455624	1.246937	0.6312
N	-0.904514	2.178357	1.190742
Cl	3.331378	0.0	0.0
