14

C	-0.262215	-0.137237	-1.495493
C	0.0	0.0	0.0
Cl	-2.0055	-0.362181	-1.883502
H	1.105658	0.0	0.0
H	0.009708	0.804388	-1.983261
N	0.472603	-1.294315	-1.949402
H	1.447786	-1.166059	-1.674026
H	0.422473	-1.360709	-2.958892
N	-0.542903	-1.135238	0.752793
H	0.077827	-1.284407	1.542024
H	-0.431119	-1.943643	0.146917
C	-0.524622	1.263613	0.515264
N	-0.951516	2.276252	0.928618
Cl	3.328186	0.0	0.0
