14

C	-0.261477	-0.161489	-1.491771
C	0.0	0.0	0.0
Cl	-2.012845	-0.381379	-1.873452
H	1.10568	0.0	0.0
H	0.010174	0.772104	-1.994788
N	0.467121	-1.327357	-1.928727
H	1.43856	-1.206222	-1.636705
H	0.438258	-1.394144	-2.938191
N	-0.543922	-1.122553	0.771178
H	0.079175	-1.263899	1.559777
H	-0.439024	-1.940005	0.176683
C	-0.521191	1.272641	0.494797
N	-0.93732	2.295369	0.893241
Cl	3.328495	0.0	0.0
