14

C	-0.592762	-0.096171	-1.410235
C	0.0	0.0	0.0
Cl	0.048448	-1.569737	-2.22025
H	1.093226	0.0	0.0
H	-1.661825	-0.316456	-1.291533
N	-0.281571	1.053575	-2.210672
H	-0.874278	1.100017	-3.026748
H	-0.358565	1.911188	-1.67531
N	-0.455747	-1.150349	0.802105
H	-0.970769	-0.852201	1.62143
H	0.379091	-1.635194	1.123446
C	-0.461487	1.257604	0.598649
N	-0.885503	2.254348	1.055596
Cl	3.328082	0.0	0.0
