14

C	-0.375896	0.080261	-1.482474
C	0.0	0.0	0.0
Cl	-0.150593	-1.612647	-2.234628
H	1.103006	0.0	0.0
H	-1.44084	0.261627	-1.630924
N	0.424363	1.069632	-2.077989
H	0.285768	1.138145	-3.075989
H	1.407888	0.922851	-1.859058
N	-0.612067	-1.140737	0.688466
H	-0.354491	-1.065388	1.667267
H	-0.145016	-1.971704	0.341311
C	-0.469665	1.235843	0.632965
N	-0.844799	2.218505	1.154714
Cl	3.360286	0.0	0.0
