14

C	-0.467587	0.008682	-1.446924
C	0.0	0.0	0.0
Cl	-2.373612	0.165632	-1.414973
H	1.093946	0.0	0.0
H	-0.179912	0.923741	-1.961308
N	-0.027723	-1.135505	-2.098859
H	-0.176693	-1.953698	-1.523912
H	-0.377362	-1.239792	-3.038394
N	-0.414341	-1.246367	0.639176
H	-1.338105	-1.15582	1.044146
H	0.253043	-1.470905	1.366896
C	-0.446585	1.203367	0.715415
N	-0.794999	2.139055	1.334531
Cl	3.317845	0.0	0.0
