17

C	0.0	0.0	0.0
C	-0.342785	-0.117896	-1.497843
Cl	1.83106	0.0	0.0
H	0.261951	-0.949671	-1.864553
N	-0.57977	1.079786	0.647499
H	-0.424346	1.032814	1.647361
H	-1.587348	1.086426	0.467726
N	-0.302635	-1.372361	0.693117
O	-0.548298	-1.31568	1.890946
O	-0.225065	-2.388191	0.013874
C	0.137114	1.092439	-2.171999
N	0.48612	2.038573	-2.773609
C	-1.80038	-0.378146	-1.864299
H	-1.841429	-0.543083	-2.94472
H	-2.1871	-1.257786	-1.356242
H	-2.462733	0.441799	-1.605199
Cl	-4.359335	0.0	0.0
