17

C	0.0	0.0	0.0
C	-0.581959	-0.149008	-1.401759
Cl	1.815554	0.0	0.0
H	-1.622981	-0.466773	-1.204639
N	-0.528961	1.102875	0.667578
H	-0.473909	0.997737	1.670506
H	-0.140485	1.976566	0.348825
N	-0.34506	-1.241739	0.838417
O	-0.357178	-1.094672	2.054081
O	-0.512063	-2.28907	0.233842
C	0.121213	-1.129605	-2.222417
N	0.635472	-1.872917	-2.972648
C	-0.652899	1.200506	-2.120037
H	-1.384366	1.81997	-1.602024
H	-1.002043	1.044519	-3.141598
H	0.324699	1.690551	-2.16189
Cl	-3.639209	0.0	0.0
