16

C	0.0	0.0	0.0
C	-0.560555	0.036748	-1.397455
F	1.370189	0.0	0.0
H	-1.637286	-0.152518	-1.226697
H	-0.465026	1.076401	-1.739925
C	-0.560442	1.079019	0.880735
H	-0.24487	2.049289	0.482126
H	-1.657363	0.943631	0.801152
H	-0.184596	0.964642	1.898179
N	-0.331107	-1.355119	0.648231
O	0.102149	-1.503726	1.79401
O	-0.932598	-2.210313	0.01755
N	0.114951	-0.914343	-2.282366
H	0.755398	-0.433516	-2.899752
H	-0.577977	-1.388818	-2.846588
F	-2.959915	0.0	0.0
