16

C	0.0	0.0	0.0
C	-0.567866	0.024241	-1.40064
F	1.368987	0.0	0.0
H	-1.656352	-0.063881	-1.208797
H	-0.188778	-0.840678	-1.950659
C	-0.530198	1.097444	0.870235
H	-0.101896	1.030727	1.870276
H	-0.252034	2.040475	0.398199
H	-1.622757	0.955543	0.861588
N	-0.335277	-1.361568	0.623485
O	-0.269075	-2.343582	-0.114707
O	-0.536975	-1.419553	1.831402
N	-0.226224	1.30074	-2.043323
H	0.48431	1.163405	-2.749242
H	-1.053375	1.666941	-2.493225
F	-2.947169	0.0	0.0
