16

C	0.0	0.0	0.0
C	-0.574406	0.012098	-1.397092
F	1.369039	0.0	0.0
H	-1.65001	-0.163443	-1.211808
H	-0.122548	-0.799761	-1.970786
C	-0.534779	1.092182	0.874026
H	-0.106611	1.019174	1.873908
H	-1.626952	0.948432	0.861354
H	-0.25588	2.038903	0.409079
N	-0.323432	-1.364242	0.627886
O	-0.36872	-2.335386	-0.124709
O	-0.398552	-1.435564	1.850254
N	-0.334639	1.326036	-2.015451
H	-1.232279	1.719859	-2.270088
H	0.21284	1.219051	-2.858149
F	-2.950775	0.0	0.0
