16

C	0.0	0.0	0.0
C	-0.519238	0.001561	-1.427284
F	1.37295	0.0	0.0
H	-1.597478	-0.184107	-1.311075
H	-0.397994	1.031573	-1.781744
C	-0.544259	1.129001	0.822083
H	-0.206765	2.068918	0.375606
H	-1.642549	1.004832	0.740244
H	-0.182845	1.06023	1.848091
N	-0.339948	-1.322884	0.698027
O	-0.137463	-1.37009	1.909556
O	-0.696056	-2.282931	0.021221
N	0.147198	-0.894973	-2.369396
H	1.148824	-0.824587	-2.228157
H	-0.116884	-1.838851	-2.120887
F	-2.89197	0.0	0.0
