16

C	0.0	0.0	0.0
C	-0.3829	0.23101	-1.488152
F	1.37982	0.0	0.0
H	-0.386709	1.322821	-1.603646
H	0.475941	-0.151109	-2.049191
C	-0.613341	0.936348	0.98396
H	-1.704787	0.782581	0.868267
H	-0.331452	1.956206	0.708611
H	-0.281731	0.720891	2.00025
N	-0.31152	-1.447887	0.378471
O	-0.744652	-1.695733	1.498482
O	-0.012355	-2.298157	-0.460817
N	-1.604163	-0.306271	-2.03216
H	-1.499236	-1.312813	-2.069685
H	-2.368291	-0.123187	-1.331967
F	-3.136172	0.0	0.0
