16

C	0.0	0.0	0.0
C	-0.537092	-0.078719	-1.418583
F	1.381605	0.0	0.0
H	-0.044754	-0.90803	-1.928758
H	-1.613247	-0.259376	-1.270885
C	-0.535654	1.137641	0.812027
H	-0.215282	2.075465	0.352799
H	-0.154782	1.089241	1.831288
H	-1.633482	1.001344	0.756972
N	-0.32175	-1.326587	0.701644
O	-0.195868	-2.3469	0.02627
O	-0.575845	-1.316589	1.900113
N	-0.344256	1.15152	-2.185906
H	-0.987992	1.847757	-1.828438
H	0.59805	1.498893	-2.041958
F	-2.89847	0.0	0.0
