16

C	0.0	0.0	0.0
C	-0.553931	-0.153473	-1.427074
F	1.369233	0.0	0.0
H	-1.277423	-0.960152	-1.391089
H	0.288817	-0.449122	-2.063924
C	-0.508543	1.161925	0.796242
H	-1.599795	1.030965	0.819163
H	-0.229064	2.08539	0.284321
H	-0.059962	1.151779	1.788448
N	-0.281441	-1.301895	0.776798
O	-0.41252	-1.240509	1.995217
O	-0.218732	-2.35063	0.138761
N	-1.279249	0.983544	-1.965611
H	-0.75164	1.838709	-1.834611
H	-2.11156	0.988049	-1.357244
F	-2.865152	0.0	0.0
