16
Coordinates from ORCA-job run
  C   0.95431429654487     -0.18288101073978     -0.06724081442826
  C   -0.53485644917826      0.14302088885919     -0.21989778383882
  Br  1.78150829104749     -0.44301475273734     -1.82954124791857
  H   -0.60336138228112      1.11026973462463     -0.73224703270223
  H   1.05931087131484     -1.15450868711222      0.42706937768503
  C   1.73207306793542      0.88524082268952      0.67881963740013
  H   2.78132306240321      0.60355176918268      0.77938227482555
  H   1.29154973105359      1.02085865611677      1.66622273596279
  H   1.68182624477476      1.83438360559105      0.14000710683430
  N   -1.06046854436555      0.33610819127706      1.13834540727040
  H   -1.25750861064735     -0.57124760260283      1.54910375884306
  H   -1.94220834073905      0.83304172881378      1.08985619399094
  C   -1.31570443114571     -0.90302609482018     -1.01271962164454
  H   -2.38067247372597     -0.65677391879799     -0.99250923931924
  H   -1.18840645410007     -1.89156427430762     -0.55807142140249
  H   -0.99871887889110     -0.96545905603673     -2.05357933155804
