16
Coordinates from ORCA-job run
  C   0.88867203133280     -0.14025529953395     -0.11601899395062
  C   -0.62078351352137      0.09202840991758     -0.29931061156577
  Br  1.76508359537039     -0.26053893928904     -1.87335079816110
  H   -0.74079025692647      0.99841211369133     -0.90515661723130
  H   1.05037138174231     -1.12261014948555      0.34011906733050
  C   1.59372400808487      0.94205995132451      0.68421608020279
  H   1.41837055273590      1.92428240388993      0.23781554881585
  H   2.66977131715685      0.76776183199268      0.71117982000634
  H   1.23194685123773      0.95037992964526      1.71492737207304
  N   -1.31287858636296      0.32801942234321      0.96592917924211
  H   -1.19755223092485     -0.46513232811776      1.58743391969679
  H   -0.96140340683903      1.15277245281805      1.43407023818920
  C   -1.31026004771165     -1.07121258794466     -0.99873632569815
  H   -1.18317738120096     -1.99027037285758     -0.41575449439757
  H   -0.91106837174392     -1.24537969658720     -1.99699369609806
  H   -2.37802594242963     -0.86131714180681     -1.07036968845406
