16
Coordinates from ORCA-job run
  C   0.87059563270053      0.28204033121160     -0.52445245267872
  C   -0.66458482095291      0.17262166117812     -0.56422103031984
  Br  1.39668282559021      2.09202601627184     -1.09161844872382
  H   -0.97010761161370      0.45703619004937     -1.57718040760412
  H   1.29237886786161     -0.36491407126728     -1.29826285938688
  C   1.50754568619379     -0.01458201057537      0.81984608596945
  H   2.59097646655342      0.09836846427562      0.76788885628169
  H   1.28869097054945     -1.04226557984127      1.12216797271272
  H   1.13741803409201      0.66645541399765      1.58811737066166
  N   -1.39270546703850      1.03566390483230      0.35163672908630
  H   -1.12546015700325      2.00316148112228      0.21372772836363
  H   -1.18981228872742      0.78647826889830      1.31239543392082
  C   -1.09602812673390     -1.27182853627750     -0.32700114037795
  H   -0.91552629696313     -1.57585489273325      0.70771046940257
  H   -2.16680457398255     -1.35875898265311     -0.51586151139484
  H   -0.56525914052565     -1.96464765848931     -0.98489279591266
