16

C	-0.430615	-0.155463	-1.468747
C	0.0	0.0	0.0
F	-0.295354	-1.531304	-1.691896
H	1.090707	0.0	0.0
H	-0.411434	-0.785898	0.62878
C	-1.880053	0.195272	-1.732666
H	-2.053301	1.265404	-1.613291
H	-2.115209	-0.090578	-2.758329
H	-2.530492	-0.350899	-1.045657
N	0.436903	0.499488	-2.407312
H	0.338807	1.498137	-2.262505
H	1.398523	0.278617	-2.146066
N	-0.457851	1.286395	0.564939
O	-1.017753	1.27011	1.661992
O	-0.256292	2.310469	-0.091469
Cl	3.344906	0.0	0.0
