16

C	-0.437783	0.029802	-1.475004
C	0.0	0.0	0.0
F	-0.328198	-1.310059	-1.867026
H	1.089319	0.0	0.0
H	-0.413705	-0.856011	0.527604
C	-1.882242	0.435389	-1.684474
H	-2.539631	-0.182784	-1.068307
H	-2.037287	1.484714	-1.429782
H	-2.125147	0.285138	-2.736882
N	0.437361	0.779249	-2.332891
H	1.393912	0.496998	-2.117383
H	0.374835	1.751767	-2.053487
N	-0.456143	1.209343	0.716667
O	-1.046427	1.061469	1.788023
O	-0.225916	2.305545	0.200774
Cl	3.346397	0.0	0.0
