16

C	-0.563187	0.085186	-1.405784
C	0.0	0.0	0.0
F	-2.00056	0.030924	-1.25769
H	1.090132	0.0	0.0
H	-0.363659	0.847307	0.578261
C	-0.248613	1.44884	-1.989153
H	0.834971	1.593478	-1.992879
H	-0.727726	2.235986	-1.402027
H	-0.627332	1.502026	-3.014608
N	-0.109309	-0.940254	-2.263552
H	-0.627741	-0.922804	-3.132536
H	-0.172894	-1.847235	-1.820216
N	-0.478255	-1.194006	0.744301
O	-0.904606	-1.016209	1.882959
O	-0.400845	-2.297723	0.201773
Cl	3.360659	0.0	0.0
