15

C	-0.142743	0.014576	-1.500772
C	0.0	0.0	0.0
F	-0.039105	1.308204	-1.98802
H	1.08919	0.0	0.0
H	-0.37335	-0.929788	0.424785
N	0.848329	-0.8403	-2.004843
H	1.723278	-0.64248	-1.473658
H	0.961886	-0.700079	-3.000692
N	-1.491585	-0.468002	-2.045503
O	-2.226613	-1.102941	-1.293909
O	-1.708701	-0.24799	-3.235281
N	-0.662495	1.109448	0.693704
O	-1.618504	1.664226	0.146211
O	-0.254683	1.378967	1.822304
F	2.623032	0.0	0.0
