15

C	-0.529114	0.011405	-1.420421
C	0.0	0.0	0.0
F	-0.209971	-1.164375	-2.017593
H	1.089106	0.0	0.0
H	-0.397548	0.871316	0.524092
N	-1.911149	0.279313	-1.689281
H	-2.098941	1.231573	-1.401061
H	-2.445866	-0.333491	-1.081038
N	0.23311	1.123866	-2.137352
O	-0.014728	2.254182	-1.723717
O	0.979753	0.832922	-3.052652
N	-0.567839	-1.188895	0.688089
O	-1.806569	-1.268464	0.775532
O	0.197983	-2.027607	1.149889
F	2.545716	0.0	0.0
