15

C	-0.143304	-0.008948	-1.511968
C	0.0	0.0	0.0
F	-0.078971	1.268073	-1.974531
H	1.08899	0.0	0.0
H	-0.393968	-0.924997	0.421134
N	0.899719	-0.778676	-2.106479
H	1.751263	-0.560981	-1.543247
H	0.687399	-1.760404	-1.974993
N	-1.478467	-0.576148	-1.995296
O	-1.704881	-1.737765	-1.653718
O	-2.213195	0.123674	-2.675124
N	-0.695176	1.125047	0.648797
O	-0.122114	1.728642	1.551059
O	-1.84338	1.366218	0.26227
F	2.630087	0.0	0.0
