17

C	-0.443424	0.029532	-1.470932
C	0.0	0.0	0.0
Cl	-0.091839	-1.515534	-2.40391
H	1.096299	0.0	0.0
N	-1.865337	0.215148	-1.546586
H	-2.058296	0.991202	-0.917811
H	-2.129957	0.464637	-2.492537
N	0.346707	1.099515	-2.019846
H	0.227732	1.130354	-3.02718
H	1.331804	0.909981	-1.808643
N	-0.471304	-1.148821	0.792308
O	-1.019631	-0.922793	1.878833
O	-0.188116	-2.276935	0.394479
N	-0.503493	1.238349	0.600236
H	0.180434	1.947485	0.346146
H	-0.464504	1.111938	1.605211
H	2.686386	0.0	0.0
