17

C	-0.415108	-0.05717	-1.477194
C	0.0	0.0	0.0
Cl	-0.277271	1.661074	-2.15803
H	1.091276	0.0	0.0
N	0.456948	-0.944263	-2.145803
H	0.426905	-0.796258	-3.145874
H	1.41127	-0.829425	-1.793992
N	-1.826659	-0.376574	-1.62277
H	-2.1449	-0.090033	-2.540679
H	-1.894185	-1.388054	-1.570071
N	-0.404998	-1.339811	0.610867
O	0.213658	-2.345834	0.276997
O	-1.314943	-1.339612	1.448036
N	-0.545476	1.08551	0.718191
H	-0.038322	1.186915	1.587673
H	-1.524893	0.92269	0.911794
H	2.7621	0.0	0.0
