17

C	-0.510135	0.030015	-1.451169
C	0.0	0.0	0.0
Cl	-0.03895	1.736512	-2.105534
H	1.095875	0.0	0.0
N	0.155207	-0.872911	-2.323764
H	0.163863	-1.783354	-1.880001
H	-0.31599	-0.903257	-3.219674
N	-1.935914	-0.073935	-1.427065
H	-2.319614	0.143184	-2.340987
H	-2.278128	0.607265	-0.754671
N	-0.365626	-1.24269	0.63973
O	-0.093172	-2.305297	0.045201
O	-0.774441	-1.224659	1.821304
N	-0.549392	1.124916	0.734355
H	-0.68556	0.801423	1.685371
H	0.182981	1.82905	0.750026
H	2.498691	0.0	0.0
