17

C	-0.523057	-0.051903	-1.429205
C	0.0	0.0	0.0
Cl	0.295758	1.559135	-2.251336
H	1.088374	0.0	0.0
N	-0.076458	-1.168198	-2.141903
H	-0.207718	-1.038324	-3.135974
H	0.907661	-1.321602	-1.94056
N	-1.920034	0.144901	-1.471027
H	-2.239884	0.24874	-2.427386
H	-2.106467	1.005165	-0.966846
N	-0.365663	-1.272299	0.700875
O	0.177783	-2.302479	0.307982
O	-1.123652	-1.221668	1.681014
N	-0.524455	1.142249	0.696308
H	0.262455	1.596263	1.147664
H	-1.161405	0.812626	1.411479
H	2.656697	0.0	0.0
