17

C	-0.209233	0.096917	-1.511707
C	0.0	0.0	0.0
Cl	-1.967054	0.34954	-1.975887
H	1.097998	0.0	0.0
N	0.491225	1.306221	-1.887746
H	1.456499	1.176102	-1.554141
H	0.5044	1.378849	-2.900107
N	0.20527	-1.141309	-2.117764
H	1.126358	-1.35943	-1.734629
H	0.295345	-1.004388	-3.118602
N	-0.532083	-1.293033	0.517599
O	0.203031	-2.278271	0.4724
O	-1.681687	-1.294282	0.960121
N	-0.486311	1.076318	0.795902
H	0.214664	1.805495	0.775998
H	-1.352261	1.440642	0.418905
H	2.753768	0.0	0.0
