17

C	-0.637463	0.118504	-1.390929
C	0.0	0.0	0.0
Cl	-0.115905	-1.310029	-2.438709
H	1.088416	0.0	0.0
N	-2.077967	0.132643	-1.277826
H	-2.411087	-0.703894	-0.811993
H	-2.480861	0.142744	-2.209374
N	-0.115637	1.294243	-2.009239
H	-0.710097	1.579692	-2.780348
H	-0.101922	2.015112	-1.294483
N	-0.454692	-1.289786	0.64228
O	0.248121	-2.287432	0.506582
O	-1.509726	-1.262032	1.302345
N	-0.365548	1.145205	0.7756
H	0.328331	1.255674	1.509556
H	-1.295764	1.059383	1.162739
H	2.816282	0.0	0.0
