17

C	-0.299444	0.036214	-1.496423
C	0.0	0.0	0.0
Cl	-2.151723	0.188637	-1.712051
H	1.094731	0.0	0.0
N	0.262034	1.234609	-2.073918
H	-0.089883	2.020463	-1.535262
H	1.26265	1.167705	-1.855258
N	0.164104	-1.119779	-2.168506
H	0.948739	-1.521123	-1.665874
H	0.440432	-0.845457	-3.102065
N	-0.446925	-1.268592	0.656043
O	0.103803	-2.312847	0.305242
O	-1.297667	-1.202258	1.553028
N	-0.467656	1.165658	0.67031
H	-1.419615	1.029973	0.988558
H	0.128573	1.32685	1.47351
H	2.685326	0.0	0.0
