17

C	-0.432643	-0.137115	-1.472373
C	0.0	0.0	0.0
Cl	-0.214771	-1.813756	-2.078516
H	1.09833	0.0	0.0
N	-1.829421	0.19498	-1.61574
H	-1.936693	1.134357	-1.245096
H	-2.026495	0.227331	-2.611615
N	0.432946	0.701464	-2.282766
H	0.329605	1.636125	-1.89202
H	1.398541	0.433716	-2.065718
N	-0.524508	-1.084642	0.887785
O	-1.512127	-0.835432	1.596286
O	0.066891	-2.162312	0.880154
N	-0.41229	1.303395	0.465011
H	0.329677	1.652299	1.063616
H	-1.256041	1.202112	1.01798
H	2.742735	0.0	0.0
