13

C	0.0	0.0	0.0
C	-0.529224	0.2961	-1.396851
Cl	1.767733	0.0	0.0
H	-1.630587	0.239415	-1.322116
H	-0.154745	-0.471598	-2.07548
C	-0.44734	0.957455	1.009184
N	-0.716578	1.757012	1.828315
N	-0.414456	-1.420638	0.418663
O	-0.495911	-2.239438	-0.484686
O	-0.522819	-1.624374	1.616221
C	-0.105085	1.616926	-1.842827
N	0.23659	2.672116	-2.227785
Br	-3.538994	0.0	0.0
