18

C	-0.432384	-0.029997	-1.453575
C	0.0	0.0	0.0
F	0.01118	1.114673	-2.073378
H	1.101225	0.0	0.0
C	0.072932	-1.233033	-2.195263
H	-0.212577	-1.171418	-3.248753
H	-0.326135	-2.134471	-1.739796
H	1.16163	-1.224732	-2.095501
N	-1.954871	0.051918	-1.536236
O	-2.574437	-0.988959	-1.320636
O	-2.468878	1.14428	-1.761758
N	-0.399529	-1.212118	0.682601
H	0.323258	-1.434446	1.358434
H	-1.272349	-1.043152	1.169107
N	-0.545348	1.202717	0.650684
H	0.105511	1.414175	1.403925
H	-0.458762	1.980142	0.001647
H	2.877716	0.0	0.0
