18

C	-0.556639	0.02809	-1.422788
C	0.0	0.0	0.0
F	-0.053773	-1.03479	-2.108317
H	1.097917	0.0	0.0
C	-2.06339	-0.010091	-1.512635
H	-2.375972	-0.942132	-1.043103
H	-2.506958	0.832924	-0.986345
H	-2.374331	-0.003166	-2.560858
N	-0.082825	1.262756	-2.18925
O	0.649415	1.113432	-3.15579
O	-0.528595	2.346475	-1.802014
N	-0.428907	-1.273112	0.581342
H	0.409794	-1.749283	0.897449
H	-1.003307	-1.053497	1.386273
N	-0.508372	1.112764	0.813
H	0.249353	1.327903	1.457676
H	-0.605181	1.936715	0.229966
H	2.874552	0.0	0.0
