18

C	-0.431792	-0.020376	-1.453958
C	0.0	0.0	0.0
F	0.001253	1.133697	-2.064058
H	1.101194	0.0	0.0
C	0.086307	-1.212144	-2.204431
H	-0.19849	-1.146192	-3.257763
H	1.174568	-1.194207	-2.102491
H	-0.304626	-2.120628	-1.756323
N	-1.954924	0.048481	-1.535798
O	-2.56592	-1.00469	-1.358458
O	-2.478054	1.144565	-1.720882
N	-0.400413	-1.218993	0.671119
H	-1.270817	-1.051366	1.162566
H	0.323879	-1.450242	1.341852
N	-0.542495	1.196763	0.662909
H	0.126927	1.419316	1.396409
H	-0.487747	1.974637	0.011156
H	2.875492	0.0	0.0
