18

C	-0.504559	-0.063592	-1.429832
C	0.0	0.0	0.0
F	-1.891355	-0.152074	-1.447569
H	1.097472	0.0	0.0
C	-0.058732	1.089584	-2.278717
H	-0.513547	1.984874	-1.859484
H	1.027456	1.171977	-2.221973
H	-0.372567	0.94892	-3.315508
N	-0.039764	-1.370011	-2.065302
O	-0.726739	-2.372624	-1.863626
O	0.997971	-1.345262	-2.717282
N	-0.441496	-1.131668	0.808212
H	-1.146327	-1.677224	0.329856
H	0.365724	-1.725724	0.969783
N	-0.421928	1.287805	0.556516
H	-1.12651	1.084434	1.253985
H	0.387717	1.657776	1.044796
H	2.835281	0.0	0.0
