18

C	-0.43237	-0.006519	-1.452817
C	0.0	0.0	0.0
F	0.042656	1.131296	-2.058477
H	1.101178	0.0	0.0
C	0.036868	-1.214687	-2.209409
H	-0.231976	-1.12134	-3.264954
H	1.122877	-1.250028	-2.098471
H	-0.400665	-2.108872	-1.776268
N	-1.952568	0.113005	-1.537926
O	-2.440039	1.185411	-1.88313
O	-2.595122	-0.886198	-1.217138
N	-0.39729	-1.215759	0.673012
H	0.313441	-1.42912	1.363751
H	-1.291166	-1.073781	1.129119
N	-0.553031	1.199302	0.653482
H	0.012595	1.329376	1.489043
H	-0.331527	1.997152	0.063827
H	2.885072	0.0	0.0
