18

C	-0.554637	0.095749	-1.407717
C	0.0	0.0	0.0
F	-1.898971	0.430564	-1.363375
H	1.092146	0.0	0.0
C	0.192475	1.073441	-2.269856
H	0.058491	2.059837	-1.827843
H	1.253143	0.81782	-2.250921
H	-0.196594	1.062611	-3.291502
N	-0.508048	-1.279125	-2.049383
O	-1.560814	-1.891651	-2.193213
O	0.602336	-1.677031	-2.378349
N	-0.423874	-1.238415	0.630407
H	-1.332526	-1.141857	1.06845
H	0.264914	-1.479915	1.333951
N	-0.334766	1.259934	0.664284
H	0.386393	1.433854	1.356163
H	-1.235883	1.200994	1.12369
H	2.853123	0.0	0.0
