18

C	-0.558173	0.112242	-1.403814
C	0.0	0.0	0.0
F	-1.905351	0.434232	-1.350847
H	1.09217	0.0	0.0
C	0.175625	1.110607	-2.253864
H	0.022052	2.087781	-1.802435
H	1.239475	0.874541	-2.234323
H	-0.209134	1.104329	-3.277044
N	-0.496551	-1.248823	-2.06848
O	0.61858	-1.628745	-2.403132
O	-1.543229	-1.868552	-2.224517
N	-0.423731	-1.245982	0.616436
H	0.26303	-1.49083	1.319877
H	-1.334397	-1.156346	1.053724
N	-0.333473	1.251029	0.68265
H	-1.224553	1.178061	1.156399
H	0.396692	1.420818	1.365427
H	2.851863	0.0	0.0
