18

C	-0.455093	0.067942	-1.455414
C	0.0	0.0	0.0
F	-1.731666	0.593588	-1.558101
H	1.097768	0.0	0.0
C	0.490732	0.854367	-2.325211
H	0.471573	1.895327	-1.996515
H	0.180341	0.803544	-3.372588
H	1.506292	0.474499	-2.178905
N	-0.555375	-1.333885	-2.023638
O	0.452155	-2.022183	-1.911731
O	-1.593395	-1.668764	-2.583035
N	-0.591445	-1.172433	0.654906
H	0.140617	-1.875147	0.713765
H	-0.788466	-0.871091	1.601188
N	-0.37417	1.216293	0.706467
H	0.435979	1.821162	0.743256
H	-1.146479	1.695539	0.264875
H	2.91135	0.0	0.0
