13

C	-0.48398	-0.056069	-1.457519
C	0.0	0.0	0.0
Br	0.369469	-1.559322	-2.396272
H	1.092381	0.0	0.0
H	-0.378623	0.947911	0.407882
C	-1.932131	-0.264391	-1.539862
N	-3.10138	-0.395273	-1.541122
C	-0.139125	1.17082	-2.176705
N	0.098604	2.179541	-2.731722
N	-0.477763	-1.175689	0.7122
H	0.324694	-1.586157	1.171613
H	-1.168992	-0.941253	1.410224
F	2.604338	0.0	0.0
