13

C	-0.387052	-0.149985	-1.453703
C	0.0	0.0	0.0
Br	-2.393332	-0.205681	-1.702146
H	1.09738	0.0	0.0
H	-0.376361	-0.874992	0.543376
C	0.070883	0.984649	-2.254469
N	0.423352	1.880613	-2.927795
C	0.109197	-1.404134	-2.018332
N	0.480117	-2.428309	-2.458746
N	-0.455043	1.283634	0.506118
H	0.336	1.716586	0.9654
H	-1.210735	1.18712	1.169529
F	2.570266	0.0	0.0
