15

C	0.0	0.0	0.0
C	-0.380738	-0.117767	-1.511332
Br	1.96607	0.0	0.0
H	-0.002164	-1.093723	-1.838149
H	0.195557	0.6452	-2.043566
C	-0.380748	1.318823	0.502947
N	-0.642163	2.408078	0.860034
C	-0.58565	-1.110259	0.849621
H	-0.296903	-2.080124	0.436926
H	-1.677424	-1.010496	0.830445
H	-0.242015	-1.043124	1.883064
N	-1.762818	0.011671	-1.860573
H	-2.373272	-0.657328	-1.404507
H	-2.144771	0.91166	-1.596631
Br	-4.506117	0.0	0.0
