15

C	0.0	0.0	0.0
C	-0.492142	0.284424	-1.419063
Br	1.973314	0.0	0.0
H	-0.146434	-0.54152	-2.055314
H	-1.58389	0.233273	-1.348929
C	-0.3978	1.069215	0.911577
N	-0.703176	1.889741	1.692937
C	-0.49863	-1.346599	0.503908
H	-0.092714	-1.572614	1.489925
H	-0.196808	-2.134625	-0.191948
H	-1.590274	-1.290517	0.54898
N	-0.083373	1.602965	-1.874845
H	-0.809401	2.025628	-2.432678
H	0.777751	1.558302	-2.402966
Br	-3.989804	0.0	0.0
