15

C	0.0	0.0	0.0
C	-0.492074	0.284498	-1.419052
Br	1.973512	0.0	0.0
H	-0.146334	-0.54141	-2.05533
H	-1.583825	0.233316	-1.348928
C	-0.3978	1.069101	0.911691
N	-0.703211	1.889506	1.693152
C	-0.498497	-1.346682	0.503804
H	-0.196699	-2.134619	-0.192165
H	-0.092479	-1.572774	1.48976
H	-1.590142	-1.290656	0.548978
N	-0.083313	1.603073	-1.874737
H	0.77787	1.558453	-2.402755
H	-0.809286	2.025712	-2.432648
Br	-3.989665	0.0	0.0
