15

C	0.0	0.0	0.0
C	-0.536939	-0.222791	-1.415758
Br	1.974077	0.0	0.0
H	-1.624924	-0.127592	-1.304857
H	-0.180059	0.589861	-2.060349
C	-0.344773	1.354188	0.441977
N	-0.56253	2.452989	0.797763
C	-0.505937	-1.046928	0.975588
H	-0.112015	-0.868299	1.977801
H	-0.202094	-2.030444	0.618319
H	-1.598862	-0.9735	0.982759
N	-0.199497	-1.553082	-1.9013
H	0.591596	-1.517765	-2.528818
H	-0.991642	-1.94034	-2.395455
Br	-3.961052	0.0	0.0
