15

C	0.0	0.0	0.0
C	-0.482828	-0.210086	-1.441885
Br	1.974485	0.0	0.0
H	-1.575599	-0.187878	-1.374844
H	-0.154796	0.642771	-2.048259
C	-0.37359	1.331305	0.474576
N	-0.602289	2.418664	0.857932
C	-0.48389	-1.099243	0.930438
H	-0.131607	-0.928728	1.948808
H	-1.5764	-1.08878	0.908075
H	-0.109696	-2.053526	0.559872
N	-0.036658	-1.502032	-1.945532
H	0.806293	-1.407111	-2.495537
H	-0.75831	-1.927427	-2.50517
Br	-3.989754	0.0	0.0
