15

C	0.0	0.0	0.0
C	-0.497463	0.284421	-1.415443
Br	1.973429	0.0	0.0
H	-0.157396	-0.546684	-2.049936
H	-1.591074	0.24084	-1.340207
C	-0.382011	1.077617	0.912349
N	-0.663203	1.914586	1.687259
C	-0.500813	-1.343483	0.506571
H	-0.187196	-2.133437	-0.180417
H	-0.104284	-1.555317	1.501805
H	-1.594367	-1.292694	0.541145
N	-0.079474	1.597658	-1.878854
H	-0.808361	2.012127	-2.440985
H	0.767794	1.540883	-2.425352
Br	-3.965307	0.0	0.0
