15

C	0.0	0.0	0.0
C	-0.4002	-0.107541	-1.508072
Br	1.965905	0.0	0.0
H	-0.126067	-1.122189	-1.819266
H	0.245782	0.584086	-2.057168
C	-0.370514	1.322569	0.50317
N	-0.637038	2.413184	0.85177
C	-0.583649	-1.108315	0.853331
H	-1.67644	-1.03144	0.8054
H	-0.265039	-2.077903	0.463124
H	-0.268798	-1.018021	1.89437
N	-1.763136	0.161938	-1.852395
H	-2.450737	-0.420769	-1.382718
H	-2.028372	1.110607	-1.616775
Br	-4.541525	0.0	0.0
