15

C	0.0	0.0	0.0
C	-0.55401	0.410945	-1.364565
Br	1.961009	0.0	0.0
H	-0.024024	-0.173148	-2.123082
H	-1.610886	0.114242	-1.349045
C	-0.359411	0.985076	1.023876
N	-0.59759	1.785797	1.850758
C	-0.4926	-1.389199	0.387362
H	-0.078529	-1.695721	1.349221
H	-1.585073	-1.346105	0.441021
H	-0.187166	-2.106477	-0.378867
N	-0.359437	1.836592	-1.61274
H	-1.09801	2.325809	-1.115785
H	-0.517578	2.016711	-2.59695
Br	-3.9299	0.0	0.0
