17

C	0.0	0.0	0.0
C	-0.466385	-0.132372	-1.469067
F	1.371737	0.0	0.0
H	-0.293083	-1.17851	-1.754452
N	-0.502974	1.132806	0.6196
H	-0.538545	1.031025	1.625197
H	-1.416305	1.356813	0.23199
N	-0.287354	-1.300857	0.809871
O	-0.14036	-2.373883	0.231783
O	-0.563042	-1.165417	1.998618
N	0.334165	0.693473	-2.363667
H	1.314139	0.468117	-2.246481
H	0.199861	1.657112	-2.07514
N	-1.813495	0.349408	-1.574098
H	-2.528724	-0.089395	-0.986238
H	-2.124702	0.296197	-2.533142
Cl	-4.540004	0.0	0.0
