17

C	0.0	0.0	0.0
C	-0.616555	-0.14319	-1.389627
F	1.380735	0.0	0.0
H	-1.687924	-0.286094	-1.191768
N	-0.539714	1.090805	0.647935
H	-0.143718	1.289045	1.549394
H	-0.699461	1.868106	0.029192
N	-0.273856	-1.224257	0.895109
O	-0.668872	-2.270392	0.388456
O	-0.012763	-1.07224	2.083896
N	0.022264	-1.20951	-2.164334
H	-0.510522	-1.288662	-3.025623
H	-0.117199	-2.080693	-1.66356
N	-0.44916	1.137416	-2.063187
H	-1.23717	1.300595	-2.675466
H	0.405122	1.093825	-2.608032
Cl	-4.018945	0.0	0.0
