17

C	0.0	0.0	0.0
C	-0.457786	-0.091005	-1.46307
F	1.385419	0.0	0.0
H	-0.151326	0.886297	-1.879766
N	-0.553828	1.054345	0.689794
H	-0.221487	1.240697	1.617963
H	-0.973716	1.81013	0.180659
N	-0.296263	-1.268069	0.818027
O	-1.138428	-2.060647	0.420773
O	0.324877	-1.345508	1.877315
N	-1.858103	-0.254352	-1.723981
H	-2.408516	0.573605	-1.536282
H	-2.270191	-0.962853	-1.127913
N	0.266028	-1.204243	-2.069195
H	-0.233169	-1.427304	-2.91985
H	1.214135	-0.9374	-2.291986
Cl	-4.648067	0.0	0.0
