17

C	0.0	0.0	0.0
C	-0.459136	-0.026968	-1.481472
F	1.371395	0.0	0.0
H	-0.310908	-1.055792	-1.832294
N	-0.504457	1.086595	0.696314
H	-1.40606	1.350577	0.307451
H	-0.565223	0.908122	1.689558
N	-0.286747	-1.354818	0.711765
O	-0.593295	-1.306024	1.89995
O	-0.104661	-2.38267	0.06676
N	0.36516	0.835594	-2.317953
H	0.246338	1.782896	-1.972896
H	1.340402	0.582552	-2.2151
N	-1.794245	0.49164	-1.566396
H	-2.524719	0.027484	-1.018506
H	-2.089016	0.518194	-2.531352
Cl	-4.508826	0.0	0.0
