17

C	0.0	0.0	0.0
C	-0.360591	0.437939	-1.445229
F	1.403181	0.0	0.0
H	0.449301	0.013237	-2.052265
N	-0.558375	0.751619	1.013491
H	-0.925398	0.164446	1.750678
H	-1.290929	1.342203	0.636082
N	-0.265421	-1.507074	0.181129
O	0.020233	-2.227531	-0.77115
O	-0.658422	-1.900646	1.274026
N	-0.373036	1.896244	-1.428972
H	0.562079	2.258004	-1.28362
H	-0.714243	2.189856	-2.335027
N	-1.601405	0.005867	-2.016868
H	-2.401132	0.183238	-1.399065
H	-1.559744	-0.995564	-2.162249
Cl	-4.034703	0.0	0.0
