17

C	0.0	0.0	0.0
C	-0.528967	-0.238948	-1.458801
F	1.373137	0.0	0.0
H	0.377426	-0.172153	-2.069568
N	-0.521026	1.107904	0.695629
H	-1.302742	0.790457	1.259813
H	-0.859624	1.762257	-0.003086
N	-0.278638	-1.255838	0.86323
O	-1.288302	-1.252515	1.563125
O	0.550847	-2.156044	0.80519
N	-1.432439	0.845621	-1.762817
H	-1.632798	0.857223	-2.744699
H	-2.319078	0.664181	-1.260031
N	-1.044411	-1.609682	-1.592157
H	-2.062936	-1.622416	-1.621433
H	-0.632496	-2.084079	-2.380939
Cl	-4.070946	0.0	0.0
