15

C	-0.380023	-0.012533	-1.480058
C	0.0	0.0	0.0
Br	-2.328212	-0.139381	-1.778134
H	1.103721	0.0	0.0
H	0.030135	-0.908665	-1.950355
C	0.089375	1.164262	-2.200466
N	0.450493	2.111998	-2.793143
N	-0.484869	-1.244086	0.612966
H	-0.560724	-1.090304	1.612222
H	0.246161	-1.940803	0.498942
C	-0.522431	1.213231	0.740116
H	-0.079025	1.238476	1.73912
H	-1.611705	1.175001	0.83319
H	-0.237203	2.137226	0.2335
Br	3.539333	0.0	0.0
