15

C	-0.559995	-0.027121	-1.426547
C	0.0	0.0	0.0
Br	0.080782	1.452542	-2.533883
H	1.100343	0.0	0.0
H	-1.646286	0.085449	-1.373751
C	-0.267148	-1.27824	-2.118537
N	-0.036141	-2.283904	-2.681081
N	-0.54062	-1.219536	0.629961
H	-0.487036	-1.096487	1.635621
H	0.096185	-1.980956	0.413768
C	-0.498782	1.217515	0.755762
H	-0.193675	2.14142	0.264774
H	-0.060364	1.220586	1.757703
H	-1.591273	1.194468	0.847963
Br	3.604428	0.0	0.0
