15

C	-0.557575	-0.060381	-1.426128
C	0.0	0.0	0.0
Br	0.060466	1.411124	-2.55862
H	1.095607	0.0	0.0
H	-1.645748	0.032729	-1.377131
C	-0.246017	-1.318472	-2.097072
N	-0.060572	-2.33341	-2.659357
N	-0.534853	-1.211826	0.652064
H	0.120593	-1.967568	0.472582
H	-0.506763	-1.059597	1.654569
C	-0.505057	1.228452	0.733038
H	-0.060087	1.256211	1.731314
H	-1.596458	1.196352	0.832665
H	-0.21337	2.145233	0.221286
Br	3.596112	0.0	0.0
