15

C	-0.398668	-0.047803	-1.472894
C	0.0	0.0	0.0
Br	-2.346612	-0.320924	-1.701027
H	1.098129	0.0	0.0
H	0.056205	-0.929882	-1.923881
C	-0.046748	1.149525	-2.224957
N	0.204033	2.119233	-2.83914
N	-0.392202	-1.26763	0.611185
H	-1.265245	-1.165821	1.11617
H	0.331857	-1.535674	1.266563
C	-0.498066	1.240788	0.724377
H	-0.094757	1.23779	1.73966
H	-1.592072	1.256856	0.779498
H	-0.157026	2.155927	0.234112
Br	3.518937	0.0	0.0
