15

C	-0.451008	0.014688	-1.457387
C	0.0	0.0	0.0
Br	0.090302	-1.609917	-2.415335
H	1.101766	0.0	0.0
H	0.060529	0.824438	-1.981659
C	-1.895412	0.164466	-1.604302
N	-3.052693	0.332312	-1.717217
N	-0.586605	-1.153909	0.683869
H	-0.38016	-1.052676	1.672207
H	-0.080064	-1.981671	0.383949
C	-0.467515	1.281533	0.677987
H	-1.55641	1.301512	0.777799
H	-0.1336	2.16248	0.124352
H	-0.017138	1.338934	1.672607
Br	3.605424	0.0	0.0
