15

C	-0.452876	-0.007441	-1.45688
C	0.0	0.0	0.0
Br	0.097743	-1.640163	-2.397167
H	1.102526	0.0	0.0
H	0.05068	0.800895	-1.990836
C	-1.899025	0.127978	-1.604957
N	-3.057013	0.272029	-1.74033
N	-0.586175	-1.141745	0.705238
H	-0.093175	-1.97766	0.40418
H	-0.359627	-1.032931	1.688939
C	-0.468377	1.292332	0.655444
H	-0.123788	2.164098	0.092879
H	-1.558635	1.318103	0.745055
H	-0.028207	1.361907	1.654808
Br	3.614355	0.0	0.0
