15

C	-0.504068	0.015057	-1.455877
C	0.0	0.0	0.0
Br	0.104838	1.562905	-2.495383
H	1.095154	0.0	0.0
H	-1.597319	0.094495	-1.456854
C	-0.144377	-1.199006	-2.181715
N	0.087417	-2.196724	-2.757235
N	-0.423615	-1.235686	0.654145
H	-1.380544	-1.479336	0.419466
H	0.185262	-1.995014	0.373961
C	-0.520178	1.197151	0.775517
H	-0.146115	1.122546	1.796783
H	-0.175854	2.137935	0.345018
H	-1.617891	1.20011	0.80759
Br	3.577543	0.0	0.0
