13

C	0.0	0.0	0.0
C	-0.265817	-0.145682	-1.540348
Br	1.952213	0.0	0.0
H	0.252042	0.713065	-1.993567
H	-0.371384	-0.867476	0.539897
C	-0.424227	1.259178	0.592736
N	-0.568893	2.301614	1.117986
C	-1.623696	-0.099217	-2.122936
N	-2.312638	-0.147325	-3.083322
N	0.307919	-1.433237	-1.970621
H	-0.221325	-1.77362	-2.761959
H	1.265991	-1.299033	-2.263794
Cl	-3.077815	0.0	0.0
