13

C	0.0	0.0	0.0
C	-0.470411	0.067605	-1.491343
Br	1.947071	0.0	0.0
H	0.175291	-0.644497	-2.018626
H	-0.321298	-0.953848	0.42151
C	-0.467833	1.104503	0.823265
N	-0.772001	2.026913	1.485094
C	-0.142372	1.400223	-2.02976
N	0.128769	2.45532	-2.467172
N	-1.830064	-0.273731	-1.768175
H	-1.986188	-1.262228	-1.615338
H	-2.540233	0.199689	-1.196742
Cl	-4.381139	0.0	0.0
