13

C	0.0	0.0	0.0
C	-0.450866	-0.207865	-1.485176
Br	1.942984	0.0	0.0
H	0.461039	-0.266868	-2.084999
H	-0.342709	-0.850434	0.586072
C	-0.408976	1.257854	0.61387
N	-0.5822	2.298141	1.13182
C	-1.15662	0.9697	-2.040588
N	-1.553131	1.884746	-2.663321
N	-1.115852	-1.491324	-1.606111
H	-2.029077	-1.370575	-1.156612
H	-1.275512	-1.677986	-2.590677
Cl	-3.24957	0.0	0.0
