13

C	0.0	0.0	0.0
C	-0.441942	-0.153859	-1.495664
Br	1.942992	0.0	0.0
H	0.473389	-0.17778	-2.091995
H	-0.345512	-0.870134	0.554387
C	-0.408442	1.236309	0.656102
N	-0.566946	2.261616	1.208136
C	-1.158371	1.035155	-2.010357
N	-1.526619	1.974682	-2.613819
N	-1.083937	-1.442915	-1.674681
H	-1.999709	-1.358715	-1.223822
H	-1.236734	-1.588236	-2.667175
Cl	-3.187378	0.0	0.0
