12
Coordinates from ORCA-job run
  C   0.69859741586638      0.45061796068874      0.26490421052677
  C   -0.64924768738227      0.40702967732442     -0.50153614692994
  Br  1.44854425729060      2.26073489570943      0.13844894529105
  H   -1.29768352428098      1.16441310585657     -0.05242284919879
  H   -0.44148712232029      0.70748130491323     -1.53227282699825
  C   0.47861676196759      0.13390979092498      1.67317576763781
  N   0.24791200022616     -0.10160681325495      2.80113147502045
  C   1.64130612031736     -0.48809929799487     -0.33679281196641
  N   2.37176228110321     -1.23800840085203     -0.87070546661466
  N   -1.18116402196163     -0.92899753480728     -0.39616510482531
  H   -2.05987051883753     -0.96858136163479      0.09577319099550
  H   -1.25828596198862     -1.39689332687345     -1.28553838293822
