12
Coordinates from ORCA-job run
  C   0.68424744279147      0.46399063952778      0.27899591869669
  C   -0.71304313739268      0.41898871031534     -0.39268788176927
  Br  1.29464124381349      2.32831433561409      0.36197486677223
  H   -0.60773128646598      0.87257451558843     -1.38218976941072
  H   -1.37517527855152      1.05433315152474      0.20211915121261
  C   0.59804588618068     -0.05991335014052      1.63913666263183
  N   0.47482594440832     -0.46739295481064      2.73444316145203
  C   1.63979264229760     -0.30474476744010     -0.51342091093884
  N   2.37583423562231     -0.91198063862908     -1.19939339199962
  N   -1.14166244278412     -0.95694566495775     -0.44239342909745
  H   -1.25467628569428     -1.30359679279061     -1.38196914500971
  H   -1.97509896422529     -1.13262718380166      0.09638476746022
