12
Coordinates from ORCA-job run
  C   0.51543413068465      0.29462639949857      0.51483143390526
  C   -0.62698622413279     -0.53393384570159     -0.11958579068983
  Br  -0.24293532529856      1.91744059323150      1.32374234113243
  H   -1.30547039912376     -0.81625069635239      0.69485024304406
  H   -0.16383665192783     -1.44768125983811     -0.50470453662951
  C   1.16793978832852     -0.47331017931095      1.57286065206685
  N   1.65260550685885     -1.14499320193553      2.40691480055067
  C   1.48433100281510      0.69503763232922     -0.50172802819199
  N   2.27619608973168      0.97234064244108     -1.32434315445187
  N   -1.22964546941036      0.20819203129564     -1.19974698098768
  H   -2.04377118811000      0.72218850928471     -0.89623067981022
  H   -1.48386126041549     -0.39465662494213     -1.96786029993817
