12
Coordinates from ORCA-job run
  C   0.65664125732973      0.35683508630921      0.24263454711809
  C   -0.47957399050353     -0.19266658216230     -0.65274896142259
  Br  0.22794706709600      2.20372066875577      0.76042577808012
  H   -0.16931772860267     -1.19685329592891     -0.95790563047470
  H   -0.51147551489823      0.43833973558754     -1.54948356956518
  C   0.78585466763715     -0.44473734643600      1.45638022902912
  N   0.90460032056577     -1.12479400907042      2.40722275717323
  C   1.91702505748187      0.37737031784241     -0.49622280138635
  N   2.89861554673258      0.36266003757347     -1.14278495294664
  N   -1.70751834065422     -0.26135975354646      0.10115226097375
  H   -2.27722377560455      0.56169506438230     -0.03002456405594
  H   -2.24557456657991     -1.08020992330660     -0.13964509252291
