12
Coordinates from ORCA-job run
  C   0.68194624043470      0.29181008123441      0.25297491426735
  C   -0.50978706772634     -0.09990553070371     -0.65226160398907
  Br  0.37947914924551      2.09870250425724      0.96508475778031
  H   -0.52965639712055      0.61809819458147     -1.48153562346521
  H   -0.26933041420740     -1.08490849450331     -1.06413810406208
  C   0.79887881897765     -0.63373016447372      1.37650799284593
  N   0.90878004317828     -1.41071464168947      2.25102817139656
  C   1.92003737486169      0.31548562310702     -0.52266547329817
  N   2.88673519906180      0.30881568431399     -1.19129878046459
  N   -1.71743508730454     -0.17567780934287      0.13367661998071
  H   -2.31765919846646     -0.92287334816297     -0.18207742484419
  H   -2.23198866093434      0.69289790138193      0.11670455385246
