12
Coordinates from ORCA-job run
  C   0.67469457399722      0.33419677729438      0.22472619867314
  C   -0.50419022580152     -0.17475188941717     -0.63855252040285
  Br  0.32337775214568      2.19299709462493      0.75775971460650
  H   -0.54058969410939      0.45920006920168     -1.53307181992358
  H   -0.23659152862076     -1.18797168986586     -0.95403264613056
  C   0.81231316173791     -0.47445233213524      1.43288489452782
  N   0.93663020958340     -1.15982201902420      2.37918280285273
  C   1.91314887305687      0.31455914465715     -0.55047788068370
  N   2.87273306738470      0.26848256202265     -1.22787203931681
  N   -1.71182236535638     -0.20462234173319      0.14978374726677
  H   -2.25764231232595      0.63701417898627      0.03637762300245
  H   -2.28306151169179     -1.00482955461138     -0.07670807447190
