12
Coordinates from ORCA-job run
  C   0.59452934547350      0.27317537399076      0.43424401321382
  C   -0.71741406276394     -0.42298804670977      0.00010616262150
  Br  0.18949004018441      2.11385740875517      0.99095692116174
  H   -1.37265413028684     -0.44488653937985      0.87955980753274
  H   -0.44844631429640     -1.45486511060352     -0.24605370439886
  C   1.18240703514235     -0.42358675440191      1.57619142850193
  N   1.60830323630800     -1.02942902528951      2.48907441310092
  C   1.53992624956499      0.32397959086662     -0.67752747246861
  N   2.30670747938537      0.31797268252611     -1.56785671194114
  N   -1.26090785326936      0.23771829652049     -1.16169181075470
  H   -1.94988847657520      0.93218697801334     -0.91217332373642
  H   -1.67205254886690     -0.42213485428795     -1.80482972283290
