12
Coordinates from ORCA-job run
  C   0.65344278035486      0.36083979700108      0.24642833840341
  C   -0.47762374424415     -0.18988210218817     -0.65510506924612
  Br  0.20909327409743      2.19913789020633      0.78028282534965
  H   -0.15861416374381     -1.18828886989239     -0.97000325142613
  H   -0.51435320240794      0.44972054998800     -1.54557522805209
  C   0.78796552376137     -0.45116308496950      1.45272389470132
  N   0.91065085857344     -1.13956858314600      2.39700422280653
  C   1.91432719259253      0.39796934812644     -0.49099602788820
  N   2.89665630936538      0.39672028622300     -1.13656794655211
  N   -1.70508588034723     -0.27675456167551      0.09730330930665
  H   -2.23555410667727     -1.09834134990810     -0.15041146451984
  H   -2.28190484132461      0.54261068023481     -0.02508360288307
