12
Coordinates from ORCA-job run
  C   0.64478207325649      0.48854054316356      0.32816146746556
  C   -0.77728911291982      0.39185081150897     -0.28367584203287
  Br  1.05048074524354      2.37097927890083      0.71073498031041
  H   -0.78358193651068      1.01805533551109     -1.18033461684951
  H   -1.46823138492012      0.83141566331464      0.44103166701245
  C   0.69842338493800     -0.26410766891225      1.57821067697572
  N   0.68280009883130     -0.86167273895570      2.58992359686555
  C   1.62913991095747     -0.01729477831549     -0.62426054295560
  N   2.38383234110491     -0.41388098544160     -1.43313919029453
  N   -1.05325136830954     -0.99668684216452     -0.55746799297962
  H   -1.17562986328691     -1.19079113643445     -1.53891741920308
  H   -1.83347488838469     -1.35740748217505     -0.03126678431447
