12
Coordinates from ORCA-job run
  C   0.67819364628309      0.32002607663404      0.23049978907188
  C   -0.50932901022763     -0.15533439411835     -0.63840118391461
  Br  0.35007421277183      2.16965763842133      0.81011147346317
  H   -0.54437737624223      0.50249252899321     -1.51643635673552
  H   -0.25256944019340     -1.16314160008533     -0.98055471507749
  C   0.81680346050093     -0.51631961408950      1.41957655320176
  N   0.94585736271143     -1.21407589211182      2.35605305853432
  C   1.91051665420087      0.30483781994231     -0.55502571366796
  N   2.86440630329584      0.25517579713081     -1.24025750910771
  N   -1.71364089549845     -0.20028994251533      0.15717138338713
  H   -2.30828302102462     -0.96398702226579     -0.12855751363091
  H   -2.23765189657764      0.66095860406443      0.08582073447593
