12
Coordinates from ORCA-job run
  C   0.69733319765557      0.46620272835495      0.23214954835157
  C   -0.68781217085197      0.39634889582689     -0.46045375324883
  Br  1.42098596817819      2.28045416606472      0.03458711727501
  H   -0.54493920156165      0.71289359998879     -1.49882992667332
  H   -1.32913939462172      1.13096139206498      0.03239096547315
  C   0.56361440447850      0.16890668397010      1.65543512195583
  N   0.42100859393434     -0.04879750533479      2.80140160242094
  C   1.61397128880478     -0.47326993934111     -0.40814518054560
  N   2.31172417735579     -1.23179795302594     -0.97320020739638
  N   -1.19300362602500     -0.94676857716730     -0.31330395381838
  H   -1.14907971108824     -1.47869960072565     -1.16910339106087
  H   -2.12666352625857     -0.97743389067566      0.06507205726684
