12
Coordinates from ORCA-job run
  C   0.69786573394211      0.46193941258982      0.24815518640757
  C   -0.72253092218991      0.41998874590911     -0.37423173809896
  Br  1.32393720265674      2.32207159086078      0.29003770718651
  H   -0.64689021546509      0.85849520079133     -1.37305679549197
  H   -1.35821714548230      1.07001305353013      0.23373037981119
  C   0.65405179231536     -0.04696408713246      1.61607080796825
  N   0.56331752477171     -0.44080126198396      2.71958104888070
  C   1.61961234054660     -0.32300962088771     -0.56808360063480
  N   2.32732848138481     -0.94434428247972     -1.27087875978245
  N   -1.16286138673697     -0.95253721180360     -0.39311428115841
  H   -1.96352103751529     -1.12141199608515      0.19528069955962
  H   -1.33209236822776     -1.30343954330859     -1.32249065464723
