12
Coordinates from ORCA-job run
  C   0.73455793574395     -0.13369261429071      0.23484837479791
  C   -0.51854773055142      0.05794257898859     -0.65079919315457
  Br  0.92749444684801     -2.04065397836771      0.67049985945043
  H   -0.34615379727791     -0.50842211252500     -1.57467132003624
  H   -0.55154010492569      1.12123159103797     -0.90762107307239
  C   1.93333957638376      0.28554599162324     -0.48822542922042
  N   2.86427828516448      0.64683518366198     -1.10831148392075
  C   0.60146856735490      0.61402886813702      1.48220683441296
  N   0.49633029150237      1.25346736825985      2.46234089599987
  N   -1.70238033690740     -0.30458341355499      0.09067749083589
  H   -1.95413970427547     -1.27155989314173     -0.05555027888590
  H   -2.48570742905965      0.28186043017157     -0.15639467720676
