12
Coordinates from ORCA-job run
  C   0.60329364988815      0.27670681318283      0.41801570816759
  C   -0.74589831679915     -0.37090735424117      0.02658708123054
  Br  0.32015906849529      2.19102901626647      0.76153486819184
  H   -0.54645632039461     -1.43943296945721     -0.10045071014385
  H   -1.41803315751611     -0.25168638017450      0.88532004953202
  C   1.11863457107492     -0.32887735629287      1.64396707457145
  N   1.49124719665965     -0.85737385520233      2.62559349157500
  C   1.57142994126699      0.14027423804333     -0.66680798236475
  N   2.35169456755227     -0.01568705892549     -1.53139758591038
  N   -1.21834620035589      0.19446155108923     -1.21446303814803
  H   -1.67273927212391     -0.50102440642859     -1.78735422997434
  H   -1.85498572774757      0.96251776214032     -1.05854472672707
