12
Coordinates from ORCA-job run
  C   0.65840044191196      0.32757096446181      0.26677729112891
  C   -0.48332947478716     -0.13855218536570     -0.66679419366353
  Br  0.25095469585016      2.13451429351938      0.92542110644895
  H   -0.50835541520647      0.55893880697031     -1.51336910512977
  H   -0.18493723929577     -1.12054670686492     -1.04670982444515
  C   0.77978500199844     -0.56575783768161      1.41567385181809
  N   0.90033057061826     -1.31509432869304      2.31296365414793
  C   1.91973154961226      0.39071284757126     -0.46801332649603
  N   2.90953475194969      0.41323192514501     -1.10216855548884
  N   -1.71121107084284     -0.25397683999142      0.08242755365138
  H   -2.27212584649624     -1.02608520459746     -0.24576397972139
  H   -2.25777796531227      0.59404426552640      0.03955552774946
