12
Coordinates from ORCA-job run
  C   0.68074598572492      0.47158680747204      0.26639938497479
  C   -0.69035996704701      0.40090587683806     -0.45271584462909
  Br  1.35955292515992      2.31155624418202      0.16935887628842
  H   -1.35923692050432      1.09277538820166      0.06481624919131
  H   -0.54070361251568      0.77293065057103     -1.47154608960107
  C   0.53105553373153      0.10288309629525      1.67119487570823
  N   0.37659040846034     -0.17343734312695      2.80279584126899
  C   1.63261671221732     -0.41160006271514     -0.40168225129835
  N   2.36225639604870     -1.12435288804645     -0.98544077218830
  N   -1.16219668679586     -0.96058434288710     -0.38034467714146
  H   -1.09004589743033     -1.44829646705872     -1.26027906992681
  H   -2.10127487704958     -1.03336695972571     -0.02155652264666
