12
Coordinates from ORCA-job run
  C   0.64430603335908      0.48424430365553      0.20529588228412
  C   -0.68885681730639      0.42667651235655     -0.60820732573983
  Br  1.46004790525333      2.25322462877997     -0.01095181586242
  H   -0.43588735879016      0.64993778290833     -1.64755049565171
  H   -1.32422357117865      1.23267575412465     -0.23303087302793
  C   0.36667427480674      0.26087391622654      1.62110073561318
  N   0.07356265312365      0.06112986402880      2.74205568748624
  C   1.56947981892296     -0.52827155562792     -0.29500068897685
  N   2.25540757193667     -1.37238319606359     -0.74140345226465
  N   -1.38341815264106     -0.82508139891576     -0.52883135208595
  H   -0.85270678454799     -1.59372096261539     -0.91560817717963
  H   -1.68438557293821     -1.04830564885775      0.41013187540539
