12
Coordinates from ORCA-job run
  C   0.61101313218348      0.52726181492755      0.20152201859718
  C   -0.73651717032223      0.38740759723190     -0.57759678387826
  Br  1.28163327152490      2.35931212239586      0.01353950662190
  H   -1.42108585073247      1.13142196208605     -0.16300975789740
  H   -0.53142820184984      0.65679101214503     -1.61656447767486
  C   0.39167677675961      0.24615194823893      1.61725670601099
  N   0.14258594079811     -0.00456271743819      2.73859179845258
  C   1.59697388452587     -0.39678423225432     -0.35119773630818
  N   2.33566543316810     -1.17260442041559     -0.83575009304659
  N   -1.33006820606087     -0.91620521937838     -0.51510208147840
  H   -1.58675261971003     -1.18603015490916      0.42477317014549
  H   -0.75269639028461     -1.63115971262966     -0.93646226954443
