12
Coordinates from ORCA-job run
  C   0.74086856284106     -0.09660177582500      0.24377965850686
  C   -0.51477671667340      0.01243604805761     -0.65385588207063
  Br  1.01332438577834     -1.97839304496051      0.73965206895375
  H   -0.31199223009064     -0.57474736675500     -1.55791743296131
  H   -0.59112773493203      1.06446744607327     -0.94556260137866
  C   1.92413882966504      0.35326452874681     -0.48606002444950
  N   2.83427012755690      0.73273386977142     -1.12596552859941
  C   0.56578453016935      0.68251489359233      1.46657159650655
  N   0.42436892634811      1.34860882663488      2.42417351576921
  N   -1.68552396139236     -0.38118183045293      0.09167499235068
  H   -2.48401242281906      0.18901051449622     -0.14344629050999
  H   -1.91632229645130     -1.35311210937911     -0.05404407211752
