12
Coordinates from ORCA-job run
  C   0.76006262921067     -0.02706300720416      0.27388183749815
  C   -0.47436005017961     -0.21953417017904     -0.64884627151281
  Br  1.16831814071340     -1.70863282183741      1.18958961304867
  H   -0.56248113016178      0.70361919118277     -1.23579949713624
  H   -0.22883160135640     -1.03210338295431     -1.33659643045057
  C   1.92539181674910      0.35916285635154     -0.51834771892866
  N   2.82139819666027      0.66946674295352     -1.21306142366083
  C   0.46370576892066      0.99073419156289      1.27891627882745
  N   0.17575388988023      1.83217517889376      2.04721219054399
  N   -1.63983661303574     -0.51844058115302      0.14258819712321
  H   -2.14492333672492     -1.32032253303199     -0.19980485569132
  H   -2.26419771067588      0.26993833541548      0.22026808033897
