12
Coordinates from ORCA-job run
  C   0.69013017099037      0.35192140099894      0.23046222268451
  C   -0.50247303094325     -0.08984856606289     -0.66041482188015
  Br  0.44443451278868      2.21098852360516      0.79214764999086
  H   -0.23333128708522     -1.07498317211323     -1.06325614397016
  H   -0.54838752081213      0.61307089894454     -1.49528450610569
  C   0.74650543184357     -0.49140051368222      1.42199877840335
  N   0.75302577747394     -1.21605920364604      2.34719343383284
  C   1.94029778703381      0.26070212880182     -0.52077198729592
  N   2.91245851224599      0.16154963933363     -1.17397486778566
  N   -1.72050396243804     -0.08320193085032      0.10837385620715
  H   -2.47963644425270      0.36900137186403     -0.37628040049497
  H   -2.00151994684504     -1.01074057719337      0.38880678641381
