12
Coordinates from ORCA-job run
  C   0.64424001097881      0.28977818548907      0.21490188621625
  C   -0.51849466259138     -0.06416860351657     -0.77271051329754
  Br  0.33380910063249      2.07468648433704      0.97429184932326
  H   -0.51848797650975      0.70855233626005     -1.54532631844767
  H   -0.23785816304335     -1.01265506214202     -1.24183659637212
  C   0.66768513840097     -0.67318266844650      1.31127849248039
  N   0.62963896576174     -1.48398314301268      2.16177850814731
  C   1.92061311133487      0.30621638482888     -0.49090135403121
  N   2.91661011955243      0.29635073261312     -1.11575621607432
  N   -1.82496179248546     -0.18584908436963     -0.19949355352808
  H   -1.87830980331852     -0.93448701354663      0.47869115809008
  H   -2.13548404871282      0.67774145150588      0.22408265749366
