12
Coordinates from ORCA-job run
  C   0.50916321664961      0.22755650492228      0.48327943331289
  C   -0.80090901368509     -0.47765084902248     -0.00401284721792
  Br  0.08937578562247      2.05801470662103      1.05913601131876
  H   -1.49347593176330     -0.47032751097905      0.84120703224620
  H   -0.52636768832870     -1.51764749264272     -0.20774195794185
  C   1.08054707753321     -0.49097236920631      1.61690208439298
  N   1.48573046599824     -1.11746466529568      2.52566381075262
  C   1.46435869662440      0.30479204443563     -0.61792107447475
  N   2.18842963334959      0.32888513540182     -1.54381010743095
  N   -1.43152237242830      0.08229439975082     -1.16119107863793
  H   -0.84154479034578      0.03321379486100     -1.98138333302302
  H   -1.72278507922634      1.03830630115364     -1.01012797329707
