12
Coordinates from ORCA-job run
  C   0.64333769192288      0.49923021206609      0.17171565649796
  C   -0.72097801366441      0.40223866314799     -0.58452048853396
  Br  1.41329226082560      2.28048551910546     -0.10602529037737
  H   -1.35637982548536      1.20167330891275     -0.19561915805145
  H   -0.51573060793167      0.61357773026133     -1.63679629155307
  C   0.42838996211776      0.29445986785744      1.60109289602862
  N   0.17787951966083      0.11116671855478      2.73486767539503
  C   1.56746903279594     -0.50240045294334     -0.35170585481633
  N   2.25001591802751     -1.33842075353251     -0.81753567329863
  N   -1.38583946691311     -0.86132362818212     -0.45672582822822
  H   -1.64459841265269     -1.07480404784714      0.49688858662842
  H   -0.85685805870325     -1.62588313740074     -0.85363622969101
