12
Coordinates from ORCA-job run
  C   0.64508907760135      0.30167400322961      0.19502616909931
  C   -0.52647708812143     -0.09931409188521     -0.76393156479946
  Br  0.33311884657280      2.11631276674139      0.88107572192998
  H   -0.53820103964836      0.63962264511971     -1.56885026245486
  H   -0.24578836932809     -1.06567272083691     -1.19504973312542
  C   0.68442033435619     -0.61317664821796      1.33134132739992
  N   0.65760208367228     -1.38755146509300      2.21552838044038
  C   1.91415134436583      0.29479237303526     -0.52366684386561
  N   2.90572228363241      0.26434086895277     -1.15481464434406
  N   -1.82576825645688     -0.20256362128789     -0.17174535289977
  H   -1.86920186156039     -0.92432831704328      0.53556502983767
  H   -2.13566735508571      0.67586420728553      0.22052177278189
