12
Coordinates from ORCA-job run
  C   0.63242866178662      0.51726608486936      0.16085326129996
  C   -0.71443814972801      0.36298089995468     -0.61681133083036
  Br  1.38103511878586      2.29501111994737     -0.18483623891980
  H   -0.49065099955656      0.52804424511889     -1.67357978232540
  H   -1.36935740969477      1.16972895613349     -0.27863648514681
  C   0.39094137301747      0.37525958260697      1.59382627764831
  N   0.11610342344686      0.24223013771197      2.72917615439846
  C   1.58208207586241     -0.49363819507470     -0.29543829143997
  N   2.28532719285800     -1.33987615712285     -0.70955885666198
  N   -1.36304152432267     -0.90351471857581     -0.44319037060371
  H   -1.63581801519196     -1.07763247223633      0.51449261765685
  H   -0.81561174726328     -1.67685948333305     -0.79529695507556
