12
Coordinates from ORCA-job run
  C   0.63840815455844      0.30258826995992      0.21942548598175
  C   -0.49993494791242     -0.09418176173366     -0.78112615563735
  Br  0.29707939053028      2.10930925512554      0.91124934382393
  H   -0.48803186607549      0.65228362704526     -1.57906359092524
  H   -0.20107093217034     -1.05544464084249     -1.21137350582722
  C   0.64355891778831     -0.62315982857627      1.34756108651065
  N   0.58297230798843     -1.40767381784056      2.22109498939872
  C   1.92985521861062      0.30645093501307     -0.45820510112370
  N   2.93993141925870      0.28502349142705     -1.05968035001939
  N   -1.81743727331522     -0.20733274681543     -0.23299199311899
  H   -2.14435831661765      0.66710648729197      0.15431854276558
  H   -1.88097207264369     -0.93396927005444      0.46779124817129
