12
Coordinates from ORCA-job run
  C   0.70455896899509     -0.06291163685936      0.21441359855368
  C   -0.51178733478717     -0.11592311022911     -0.77144876288302
  Br  0.99104002837851     -1.84438751939114      0.99167851641522
  H   -0.26095613853656     -0.85393863430700     -1.53727376698630
  H   -0.55465513248538      0.86791289053042     -1.24968901332888
  C   1.91662517044698      0.32875522343550     -0.49568696765684
  N   2.85914421195244      0.65716388144404     -1.11721380027325
  C   0.41366351220673      0.86619011358033      1.30154780345859
  N   0.10710786052901      1.62897274909605      2.14202092908829
  N   -1.78585766244487     -0.41956673571129     -0.19374482773771
  H   -2.08053848574703      0.27956884314269      0.47521295483928
  H   -1.79834499850774     -1.33183606473116      0.24118333651091
