16

C	0.0	0.0	0.0
C	-0.384269	-0.009903	-1.49532
F	1.389026	0.0	0.0
H	-0.016641	0.927853	-1.920241
C	-0.492293	1.22722	0.727297
H	-0.064814	1.23859	1.733724
H	-0.182334	2.120724	0.18212
H	-1.582613	1.190121	0.756356
C	-0.404982	-1.232056	0.700557
N	-0.56602	-2.185552	1.368563
N	-1.853731	-0.062515	-1.81476
O	-2.415215	-1.135573	-1.366051
O	-2.466431	1.045669	-1.6024
C	0.264566	-1.133397	-2.174076
N	0.802659	-2.007638	-2.743739
H	-3.019716	0.0	0.0
