16

C	0.0	0.0	0.0
C	-0.37068	0.268664	-1.476129
F	1.389273	0.0	0.0
H	0.038352	1.251381	-1.730211
C	-0.490406	1.063181	0.95349
H	-0.020742	0.907559	1.928893
H	-1.580585	0.996478	1.0129
H	-0.224659	2.048829	0.56396
C	-0.424893	-1.344146	0.432411
N	-0.621975	-2.418203	0.866608
N	-1.832003	0.334181	-1.799919
O	-2.410173	1.379819	-1.329819
O	-2.425652	-0.800518	-1.636435
C	0.248416	-0.76687	-2.305126
N	0.780126	-1.586804	-2.95729
H	-3.003834	0.0	0.0
