12

C	0.0	0.0	0.0
C	-0.246217	0.082508	-1.538438
Br	1.962961	0.0	0.0
H	0.26906	-0.76721	-1.994192
H	0.246571	0.993649	-1.894547
C	-0.555651	1.153704	0.69799
N	-0.598788	2.178428	1.292717
C	-0.508601	-1.245448	0.565126
N	-0.568229	-2.327454	1.040868
C	-1.6442	0.090911	-1.98382
N	-2.571762	0.122902	-2.716544
H	-1.972185	0.0	0.0
