12

C	0.0	0.0	0.0
C	-0.27422	-0.044514	-1.542745
Br	1.960171	0.0	0.0
H	-1.354416	-0.135562	-1.673739
H	0.229443	-0.931149	-1.937702
C	-0.477611	1.233492	0.622354
N	-0.52533	2.271265	1.186453
C	-0.596034	-1.185229	0.618698
N	-0.596635	-2.264314	1.113806
C	0.198257	1.137838	-2.251584
N	0.518365	2.073	-2.885849
H	-2.09823	0.0	0.0
