12

C	0.0	0.0	0.0
C	-0.272594	-0.010462	-1.543109
Br	1.963748	0.0	0.0
H	0.226901	0.865452	-1.966468
H	-1.3516	0.070461	-1.682902
C	-0.630662	1.191849	0.577171
N	-0.640554	2.280846	1.051816
C	-0.485829	-1.211784	0.659085
N	-0.543945	-2.246885	1.227055
C	0.20812	-1.213851	-2.211549
N	0.536011	-2.170215	-2.809583
H	-2.084871	0.0	0.0
