12

C	0.0	0.0	0.0
C	-0.335146	-0.068865	-1.513562
Br	1.960121	0.0	0.0
H	0.111701	0.803679	-2.001544
H	0.133019	-0.968717	-1.92635
C	-0.47785	1.246028	0.597164
N	-0.562171	2.316485	1.094276
C	-0.551699	-1.141826	0.72283
N	-0.607154	-2.157719	1.329656
C	-1.796352	-0.089896	-1.7471
N	-2.700139	-0.135202	-2.520873
H	-2.008663	0.0	0.0
