12

C	0.0	0.0	0.0
C	-0.266584	-0.225096	-1.527252
Br	1.972364	0.0	0.0
H	0.241338	-1.149609	-1.814021
H	-1.343513	-0.333228	-1.659018
C	-0.492455	1.292914	0.4679
N	-0.537963	2.40489	0.867996
C	-0.606873	-1.097279	0.75592
N	-0.630971	-2.097842	1.394071
C	0.209926	0.868598	-2.366389
N	0.532912	1.727001	-3.10056
H	-2.071794	0.0	0.0
