12

C	0.0	0.0	0.0
C	-0.268737	0.180916	-1.531648
Br	1.972289	0.0	0.0
H	-1.346873	0.281873	-1.663624
H	0.23462	1.099445	-1.844639
C	-0.582775	1.130358	0.725027
N	-0.596333	2.150459	1.330857
C	-0.505511	-1.270145	0.51251
N	-0.545936	-2.366844	0.952503
C	0.206752	-0.931589	-2.346344
N	0.514821	-1.794081	-3.082544
H	-2.079564	0.0	0.0
