12

C	0.0	0.0	0.0
C	-0.27874	0.020995	-1.540143
Br	1.960131	0.0	0.0
H	0.221739	-0.849453	-1.973852
H	-1.359043	-0.063745	-1.672124
C	-0.517349	1.182841	0.684721
N	-0.570517	2.198544	1.290003
C	-0.594035	-1.214011	0.569272
N	-0.607212	-2.301998	1.0423
C	0.190395	1.233425	-2.199732
N	0.498498	2.200086	-2.791934
H	-2.090651	0.0	0.0
