12

C	0.0	0.0	0.0
C	-0.271029	-0.091142	-1.541235
Br	1.964169	0.0	0.0
H	-1.348268	-0.015818	-1.690627
H	0.231677	0.759229	-2.010314
C	-0.606782	1.229979	0.516438
N	-0.612375	2.339885	0.937667
C	-0.495668	-1.16934	0.722722
N	-0.545279	-2.175411	1.341704
C	0.208773	-1.330793	-2.140723
N	0.532831	-2.320905	-2.682311
H	-2.081985	0.0	0.0
