12

C	0.0	0.0	0.0
C	-0.273616	-0.187869	-1.530954
Br	1.961829	0.0	0.0
H	-1.353001	-0.284454	-1.657415
H	0.224742	-1.110892	-1.840427
C	-0.488721	1.285852	0.496997
N	-0.547979	2.384786	0.928807
C	-0.627644	-1.102548	0.736237
N	-0.63831	-2.085432	1.403161
C	0.206796	0.920414	-2.347532
N	0.536988	1.792746	-3.061918
H	-2.088777	0.0	0.0
