12

C	0.0	0.0	0.0
C	-0.273846	0.030027	-1.54305
Br	1.960173	0.0	0.0
H	-1.353228	0.112608	-1.679792
H	0.22327	0.918657	-1.942483
C	-0.659078	1.164037	0.606315
N	-0.663508	2.247887	1.095386
C	-0.471368	-1.238229	0.620777
N	-0.539699	-2.291736	1.151218
C	0.207348	-1.15406	-2.244706
N	0.538427	-2.095341	-2.864665
H	-2.086625	0.0	0.0
