12

C	0.0	0.0	0.0
C	-0.281254	-0.132889	-1.534991
Br	1.952156	0.0	0.0
H	0.211003	-1.048947	-1.874938
H	-1.363119	-0.220272	-1.655245
C	-0.468039	1.274879	0.547059
N	-0.556681	2.337498	1.05252
C	-0.677835	-1.110699	0.686631
N	-0.687279	-2.140532	1.281318
C	0.195741	0.993778	-2.328756
N	0.508134	1.867962	-3.048634
H	-2.096837	0.0	0.0
