12

C	0.0	0.0	0.0
C	-0.305948	-0.035106	-1.524858
Br	1.953592	0.0	0.0
H	0.303188	0.733903	-2.009782
H	0.020757	-1.009957	-1.905632
C	-0.492645	1.241703	0.595693
N	-0.552907	2.319956	1.078559
C	-0.54832	-1.152404	0.703542
N	-0.601499	-2.171184	1.307811
C	-1.725151	0.179597	-1.853561
N	-2.629336	0.401418	-2.588487
H	-1.996996	0.0	0.0
