16

C	-0.239671	-0.178867	-1.48114
C	0.0	0.0	0.0
Cl	-2.032467	-0.204512	-1.907136
H	1.105522	0.0	0.0
H	0.112075	-1.174667	-1.764729
C	0.492034	0.880315	-2.274904
H	0.073081	1.861082	-2.048369
H	0.451897	0.689297	-3.351049
H	1.524171	0.834224	-1.906372
N	-0.472705	-1.123398	0.815887
H	-1.192877	-1.640803	0.325159
H	0.314053	-1.745449	0.958664
N	-0.487286	1.29532	0.455325
H	0.138448	1.592315	1.195884
H	-1.399565	1.159055	0.874695
F	2.703384	0.0	0.0
