16

C	-0.226539	0.012186	-1.495447
C	0.0	0.0	0.0
Cl	-2.011125	0.104865	-1.932543
H	1.097953	0.0	0.0
H	0.088241	-0.956708	-1.889457
C	0.559055	1.124732	-2.147024
H	1.575341	1.004284	-1.753019
H	0.546854	1.053614	-3.237134
H	0.16949	2.09097	-1.829135
N	-0.479921	-1.207174	0.675275
H	0.243904	-1.912282	0.594329
H	-1.317574	-1.558389	0.217881
N	-0.485259	1.233006	0.598867
H	-1.45792	1.104038	0.860399
H	0.038096	1.352311	1.457978
F	2.714234	0.0	0.0
