16

C	-0.239106	0.04624	-1.492649
C	0.0	0.0	0.0
Cl	-2.006166	0.359089	-1.914755
H	1.097817	0.0	0.0
H	-0.04958	-0.952832	-1.883846
C	0.657865	1.072328	-2.15115
H	0.643511	0.991532	-3.240438
H	0.357521	2.085476	-1.87327
H	1.659366	0.873246	-1.743767
N	-0.553896	-1.216511	0.571975
H	-0.050121	-1.374221	1.438072
H	-1.517909	-1.028025	0.83394
N	-0.396304	1.220074	0.712421
H	-1.147163	1.701426	0.229333
H	0.410977	1.830017	0.744401
F	2.719217	0.0	0.0
