16

C	-0.511001	0.001573	-1.438051
C	0.0	0.0	0.0
Cl	-0.075361	-1.545951	-2.27478
H	1.094324	0.0	0.0
H	0.050145	0.772779	-1.967518
C	-2.003265	0.229207	-1.600215
H	-2.251926	1.181483	-1.128868
H	-2.283242	0.261105	-2.656197
H	-2.58279	-0.568264	-1.125338
N	-0.480321	-1.12171	0.809365
H	0.315995	-1.733428	0.942751
H	-1.182442	-1.661521	0.317505
N	-0.411888	1.30136	0.570588
H	0.425143	1.669091	1.007669
H	-1.064727	1.096842	1.317861
F	2.692721	0.0	0.0
