19

C	-0.389501	0.002752	-1.481089
C	0.0	0.0	0.0
Br	0.28636	1.642886	-2.291108
H	1.09143	0.0	0.0
C	0.219764	-1.182251	-2.195801
H	1.293655	-1.165733	-1.995655
H	0.031017	-1.123843	-3.26693
H	-0.207871	-2.111591	-1.817613
N	-1.90548	0.045869	-1.676141
O	-2.424748	-0.899383	-2.261057
O	-2.503718	1.014145	-1.225386
N	-0.461928	-1.314228	0.561264
O	-1.68443	-1.493046	0.595164
O	0.376472	-2.121515	0.947734
C	-0.516461	1.102219	0.902976
H	-1.599096	1.074445	1.010172
H	-0.039368	0.975683	1.878313
H	-0.21365	2.070725	0.506145
Cl	3.339721	0.0	0.0
