19

C	-0.552558	-0.021727	-1.434288
C	0.0	0.0	0.0
Br	0.195201	-1.503628	-2.445214
H	1.089127	0.0	0.0
C	-2.061433	-0.014828	-1.602317
H	-2.503298	0.801939	-1.034163
H	-2.462585	-0.964007	-1.261932
H	-2.308755	0.12728	-2.655001
N	-0.003822	1.271158	-2.077764
O	1.130168	1.275017	-2.527365
O	-0.766079	2.239774	-2.037507
N	-0.401356	-1.216684	0.786531
O	-1.183153	-2.039124	0.307025
O	0.079974	-1.296394	1.912226
C	-0.44043	1.212211	0.817626
H	-0.147602	2.134488	0.319034
H	-1.519498	1.226852	0.993826
H	0.082778	1.167006	1.771549
Cl	3.273633	0.0	0.0
