19

C	-0.551323	-0.01006	-1.438029
C	0.0	0.0	0.0
Br	0.339418	-1.360605	-2.517097
H	1.088574	0.0	0.0
C	-2.049334	-0.19049	-1.572788
H	-2.329675	-1.185957	-1.232003
H	-2.583992	0.552002	-0.981955
H	-2.335608	-0.077658	-2.618462
N	-0.149427	1.352306	-2.017955
O	-1.061539	2.160429	-2.199771
O	1.038936	1.562678	-2.19671
N	-0.466524	-1.256047	0.671058
O	0.274646	-2.233804	0.641335
O	-1.583371	-1.231889	1.202475
C	-0.468303	1.203167	0.803085
H	-0.023013	2.108087	0.387031
H	-0.087464	1.097285	1.820716
H	-1.552535	1.301388	0.841185
Cl	3.338238	0.0	0.0
