17

C	0.0	0.0	0.0
C	-0.420304	-0.341755	-1.475763
Br	1.97289	0.0	0.0
H	0.512039	-0.588509	-2.005402
H	-0.273381	-0.846947	0.63127
C	-0.588613	1.26452	0.557257
H	-1.681032	1.152305	0.435087
H	-0.229309	2.164426	0.048459
H	-0.351717	1.351881	1.623547
N	-1.073564	0.811128	-2.07149
H	-0.378892	1.438141	-2.455225
H	-1.726259	0.559257	-2.802813
C	-1.33738	-1.573872	-1.601669
H	-1.347306	-1.739187	-2.692217
H	-0.900582	-2.431557	-1.125988
H	-2.318545	-1.318039	-1.201766
Br	-4.162423	0.0	0.0
