17

C	0.0	0.0	0.0
C	-0.504673	0.282939	-1.445354
Br	1.959667	0.0	0.0
H	0.360272	0.565452	-2.053028
H	-0.246037	-1.027229	0.277275
C	-0.515731	0.939147	1.069235
H	-0.27866	1.974093	0.828389
H	-0.09267	0.675707	2.041892
H	-1.603354	0.830593	1.112938
N	-1.406767	1.433424	-1.464681
H	-1.595752	1.658623	-2.436093
H	-2.304274	1.160049	-1.056325
C	-1.10898	-1.000007	-2.024557
H	-2.00232	-1.266468	-1.45439
H	-0.388356	-1.825553	-2.002975
H	-1.41336	-0.834118	-3.06216
Br	-4.254995	0.0	0.0
