17

C	0.0	0.0	0.0
C	-0.551361	0.194119	-1.404956
Br	1.970592	0.0	0.0
H	-1.630859	0.049771	-1.257193
H	-0.251475	-1.019032	0.297044
C	-0.515548	0.995611	1.015429
H	-1.609191	0.971884	0.96316
H	-0.200055	0.717995	2.024189
H	-0.153487	2.005771	0.811293
N	-0.080735	-0.889983	-2.26986
H	-0.695688	-0.945594	-3.074206
H	0.849526	-0.667796	-2.60993
C	-0.325589	1.591358	-1.97532
H	0.743173	1.821089	-2.044257
H	-0.816011	2.357821	-1.371478
H	-0.754101	1.642058	-2.980603
Br	-4.031122	0.0	0.0
