18

C	-0.491863	0.002422	-1.46087
C	0.0	0.0	0.0
Cl	0.3601	-1.261991	-2.370792
H	1.094153	0.0	0.0
C	-1.982068	-0.176701	-1.64615
H	-2.230268	-0.138196	-2.706778
H	-2.270825	-1.148384	-1.245487
H	-2.533223	0.612285	-1.135909
N	-0.066311	1.348154	-2.059842
O	1.131373	1.575772	-2.125509
O	-0.969677	2.122144	-2.386634
C	-0.476481	-1.222001	0.638613
N	-0.892731	-2.177249	1.182058
C	-0.46725	1.230362	0.784267
H	-1.555897	1.307693	0.841448
H	-0.059534	2.136758	0.333737
H	-0.066081	1.163864	1.796703
Cl	3.309473	0.0	0.0
