18

C	-0.549594	-0.002082	-1.436249
C	0.0	0.0	0.0
Cl	0.342922	-1.179315	-2.417658
H	1.094145	0.0	0.0
C	-2.032684	-0.291907	-1.551075
H	-2.215949	-1.318483	-1.231717
H	-2.612641	0.392623	-0.931336
H	-2.352356	-0.178343	-2.588146
N	-0.270472	1.393067	-2.00364
O	0.870913	1.657269	-2.345225
O	-1.221046	2.175095	-2.004099
C	-0.457274	-1.219345	0.660692
N	-0.858097	-2.175217	1.21433
C	-0.428443	1.230352	0.812183
H	-0.040887	1.1171	1.826016
H	-1.512518	1.359009	0.856618
H	0.027028	2.127237	0.390021
Cl	3.298424	0.0	0.0
