18

C	-0.349404	0.003604	-1.496962
C	0.0	0.0	0.0
Cl	-0.050299	1.613928	-2.204067
H	1.097147	0.0	0.0
C	0.469927	-1.024454	-2.242712
H	0.216529	-2.025282	-1.887047
H	1.521752	-0.82399	-2.023342
H	0.279968	-0.969378	-3.312914
N	-1.845346	-0.24722	-1.71829
O	-2.626293	0.313737	-0.955329
O	-2.171091	-0.971591	-2.65499
C	-0.452006	-1.274785	0.553661
N	-0.844344	-2.288981	0.999627
C	-0.454865	1.161476	0.885171
H	0.037679	1.047674	1.853187
H	-1.534347	1.183927	1.021832
H	-0.119877	2.104561	0.454066
Cl	3.310389	0.0	0.0
