18

C	-0.532542	0.003606	-1.442946
C	0.0	0.0	0.0
Cl	0.330205	-1.216917	-2.400001
H	1.094151	0.0	0.0
C	-2.022572	-0.221531	-1.580509
H	-2.582069	0.528741	-1.020757
H	-2.313823	-0.157394	-2.629136
H	-2.263467	-1.215189	-1.201683
N	-0.165266	1.370254	-2.028009
O	-1.09722	2.119432	-2.333145
O	1.024401	1.637579	-2.102525
C	-0.466669	-1.218135	0.654909
N	-0.89004	-2.17275	1.194038
C	-0.444373	1.23227	0.798485
H	-0.036738	1.149421	1.807181
H	-0.021384	2.13457	0.353758
H	-1.530926	1.32933	0.864646
Cl	3.345346	0.0	0.0
