18

C	-0.353581	-0.155908	-1.489109
C	0.0	0.0	0.0
Cl	0.099808	1.311931	-2.381712
H	1.095901	0.0	0.0
C	0.360798	-1.339958	-2.098253
H	0.06621	-2.261021	-1.596215
H	1.431978	-1.176235	-1.954084
H	0.127615	-1.42259	-3.160792
N	-1.872652	-0.304327	-1.62822
O	-2.564118	0.686044	-1.410046
O	-2.301298	-1.425343	-1.890979
C	-0.45735	-1.194723	0.707329
N	-0.853949	-2.133343	1.293385
C	-0.492683	1.255564	0.717301
H	-1.579962	1.288725	0.79715
H	-0.142092	2.14353	0.19308
H	-0.056301	1.26085	1.718059
Cl	3.288715	0.0	0.0
