18

C	-0.403986	0.16273	-1.469146
C	0.0	0.0	0.0
Cl	-2.169339	0.416212	-1.649958
H	1.104765	0.0	0.0
C	0.350818	1.291902	-2.135668
H	0.002275	2.244124	-1.737014
H	1.416856	1.171963	-1.931933
H	0.172435	1.279237	-3.211503
N	-0.07693	-1.148615	-2.198776
O	0.982152	-1.171898	-2.817293
O	-0.861524	-2.081959	-2.077798
C	-0.515155	-1.223571	0.604097
N	-0.939728	-2.160344	1.172358
C	-0.404254	1.197792	0.868311
H	-1.487805	1.314081	0.928254
H	-0.005209	1.037728	1.871215
H	0.045982	2.112735	0.482396
Cl	3.277265	0.0	0.0
