18

C	-0.387056	0.069699	-1.478732
C	0.0	0.0	0.0
Cl	-2.163282	0.221245	-1.698295
H	1.099204	0.0	0.0
C	0.319035	1.201755	-2.188013
H	1.389013	1.132975	-1.977361
H	0.148422	1.139304	-3.262158
H	-0.070129	2.152871	-1.826489
N	-0.002246	-1.259037	-2.149788
O	0.911265	-1.228106	-2.967161
O	-0.627064	-2.256056	-1.807797
C	-0.52807	-1.164461	0.701639
N	-0.964237	-2.026926	1.369964
C	-0.397617	1.262903	0.777117
H	-0.061992	1.145206	1.80854
H	-1.477173	1.425893	0.770475
H	0.114545	2.133814	0.368214
Cl	3.273182	0.0	0.0
