18

C	-0.347192	-0.215133	-1.479215
C	0.0	0.0	0.0
Cl	0.464944	1.025217	-2.442873
H	1.108135	0.0	0.0
C	0.07404	-1.58446	-1.973053
H	-0.126011	-1.676377	-3.042941
H	-0.46546	-2.358317	-1.426216
H	1.14673	-1.680928	-1.790075
N	-1.86267	-0.079855	-1.690626
O	-2.309421	0.703275	-2.520444
O	-2.536504	-0.82547	-0.983471
C	-0.434947	-1.115602	0.836167
N	-0.764322	-1.971978	1.570442
C	-0.507248	1.319573	0.578603
H	-1.59896	1.340617	0.639005
H	-0.157319	2.153674	-0.02884
H	-0.099442	1.441858	1.583001
Cl	3.291027	0.0	0.0
