14

C	0.0	0.0	0.0
C	-0.485152	-0.043156	-1.440837
Cl	1.819781	0.0	0.0
H	-1.590556	-0.088907	-1.367911
H	-0.310598	0.95817	0.426846
N	-0.433649	-1.18572	0.69175
H	0.088453	-1.29483	1.555385
H	-1.432047	-1.086165	0.877521
C	-0.001172	-1.196791	-2.180039
N	0.311599	-2.162234	-2.765481
N	-0.147537	1.235554	-2.155286
O	0.155029	1.162346	-3.341507
O	-0.211427	2.270023	-1.501185
Br	-3.509598	0.0	0.0
