14

C	0.0	0.0	0.0
C	-0.20873	-0.465193	-1.488675
Cl	1.84041	0.0	0.0
H	0.36876	0.22434	-2.107414
H	-0.318881	1.041229	0.046584
N	-0.52947	-0.716546	1.082827
H	-1.530015	-0.490581	1.120241
H	-0.429489	-1.711515	0.932511
C	-1.50933	-0.61386	-2.153653
N	-2.258023	-0.819886	-3.039905
N	0.466419	-1.801823	-1.725935
O	0.18463	-2.717252	-0.958573
O	1.220374	-1.881907	-2.688819
Br	-3.57426	0.0	0.0
