14

C	0.0	0.0	0.0
C	-0.501236	0.119488	-1.450512
Cl	1.781118	0.0	0.0
H	-1.603921	0.203755	-1.356614
H	-0.329176	0.899322	0.518282
N	-0.488945	-1.150465	0.687528
H	-1.502713	-1.040629	0.772102
H	-0.291458	-1.992246	0.157279
C	-0.139436	-1.038107	-2.252931
N	0.122331	-2.017215	-2.846421
N	-0.023538	1.383789	-2.102049
O	-0.117019	2.399277	-1.419637
O	0.388754	1.332341	-3.258409
Br	-3.60157	0.0	0.0
