15
Coordinates from ORCA-job run
  C   -0.61461128727916     -0.01049867555859      0.61381015614201
  C   0.81112070212918     -0.55314100112088      0.45506186563106
  Br  -1.42331192974195     -0.89126958223380      2.18273507682307
  H   1.34575348274837     -0.38757097576077      1.39425765731766
  H   0.73308994784729     -1.63615498007788      0.31718817699783
  C   -1.50522170725642     -0.28397964928987     -0.59402088702692
  H   -2.52712370821019      0.04348004653141     -0.40139966185687
  H   -1.51156174135251     -1.35469120919838     -0.80805263512634
  H   -1.12689303727439      0.25539204917809     -1.46515164544089
  C   -0.58118147879314      1.42171148744878      0.90470443131318
  N   -0.52451740608601      2.58148076177313      1.08849008693309
  C   1.57421262409692      0.08568042309638     -0.70313855583573
  H   1.60946922237493      1.17339167839441     -0.60657790108741
  H   1.13450673929131     -0.16273047050810     -1.67054868972675
  H   2.60326957750577     -0.28009990267393     -0.70735747505700
