15
Coordinates from ORCA-job run
  C   -0.55110523794434      0.14618141737819      0.57187224827661
  C   0.90271806794419      0.43349709098287      0.16956207626213
  Br  -0.59088089997588     -1.29499532181533      1.92128382838897
  H   1.46251107852243      0.68002920852614      1.07586800444506
  H   0.87759873910538      1.34204009180177     -0.44493725980221
  C   -1.43837410296244     -0.26691590084843     -0.59770991490530
  H   -2.47179542130038     -0.38801488920407     -0.27207991915763
  H   -1.09452259401531     -1.21040365605263     -1.02056504976319
  H   -1.39928811680030      0.50835176298165     -1.36883993723610
  C   -1.10548535282926      1.33135676750846      1.22433203160512
  N   -1.53787398389149      2.31421582217708      1.70264494130557
  C   1.59384999574552     -0.68932079121271     -0.59429936621372
  H   2.63873028726820     -0.42201553828813     -0.76568928410034
  H   1.13605077352346     -0.86105400190335     -1.57003786790871
  H   1.57586676761022     -1.62395206203150     -0.03140453119627
