15
Coordinates from ORCA-job run
  C   -0.57916104515600      0.13546560808820      0.54592128112062
  C   0.90253138357104      0.40021606474304      0.24156976187864
  Br  -0.73382190843498     -1.36392804092577      1.82157949458357
  H   0.93719159811022      1.33659299480673     -0.32886558112801
  H   1.41443575222254      0.58830267167654      1.18920931415885
  C   -1.40674303059034     -0.19876613382011     -0.69058892785075
  H   -2.46033748750616     -0.30463934250532     -0.43082219963101
  H   -1.06324119549391     -1.13197215393163     -1.13629989762454
  H   -1.30235649414319      0.60865444612507     -1.42175900985191
  C   -1.14073420854020      1.30444435512059      1.22090390523197
  N   -1.58200772732894      2.27461895577197      1.71672435887189
  C   1.60799505504130     -0.70519142544586     -0.53429805645983
  H   2.66796485707307     -0.46121379453792     -0.63195674523345
  H   1.20454467201989     -0.81755549811709     -1.54202353359111
  H   1.53173977915566     -1.66402870704845     -0.01929416447494
