15
Coordinates from ORCA-job run
  C   -0.59340156342195      0.12693060833745      0.53300665050505
  C   0.89641405492501      0.39379288922244      0.27306923041526
  Br  -0.78449284132980     -1.39431431913289      1.77789979828809
  H   0.94751427029840      1.34084350652328     -0.27815755358125
  H   1.38354388357017      0.56275737115853      1.23718338344792
  C   -1.38757827764016     -0.18451352158119     -0.73102206538373
  H   -1.03471791752301     -1.11151614189744     -1.18251427616509
  H   -1.26043870861249      0.63456189440141     -1.44558251610055
  H   -2.44831702241268     -0.29081957183731     -0.50202507065311
  C   -1.17049623437076      1.28515981044152      1.21346263834096
  N   -1.61678493783652      2.24873552836284      1.71754991675354
  C   1.61902747569758     -0.69847395436138     -0.50544096661755
  H   1.24446618173640     -0.78653953670917     -1.52663668703634
  H   2.68267626297185     -0.45882004056106     -0.56682552012728
  H   1.52258537394797     -1.66778452236705     -0.01396696208595
