17

C	0.0	0.0	0.0
C	-0.44423	0.152923	-1.459666
Br	1.98292	0.0	0.0
H	0.030339	1.04655	-1.878749
H	-1.524124	0.330748	-1.401611
C	-0.43455	1.208605	0.811117
H	-0.074169	1.115269	1.836819
H	-1.528407	1.230012	0.804756
H	-0.048321	2.130641	0.371665
N	-0.465694	-1.187795	0.668275
H	-1.482647	-1.083143	0.733265
H	-0.280003	-2.001443	0.092827
C	-0.182857	-1.050083	-2.356349
H	-0.46666	-0.816419	-3.38613
H	-0.78776	-1.906118	-2.048281
H	0.871469	-1.339795	-2.352173
Cl	-3.749274	0.0	0.0
