17

C	0.0	0.0	0.0
C	-0.422386	-0.004467	-1.46325
Br	2.065132	0.0	0.0
H	-1.49376	0.23253	-1.437675
H	0.111436	0.800942	-1.975311
C	-0.411231	1.278024	0.70084
H	-0.036184	1.296759	1.727785
H	-1.506804	1.294949	0.701988
H	-0.014686	2.147299	0.174355
N	-0.478834	-1.112696	0.681664
H	-0.374604	-1.076254	1.682627
H	-0.224411	-2.005467	0.292664
C	-0.21919	-1.330542	-2.184096
H	0.803122	-1.701406	-2.067364
H	-0.413969	-1.212261	-3.252774
H	-0.925014	-2.075993	-1.81209
Cl	-3.985583	0.0	0.0
