14

C	-0.397231	-0.035688	-1.479009
C	0.0	0.0	0.0
F	0.141088	1.119175	-2.059975
H	1.095817	0.0	0.0
C	0.220591	-1.186602	-2.175744
N	0.615426	-2.096031	-2.803944
N	-1.80388	-0.104357	-1.664614
H	-2.25046	0.656038	-1.165144
H	-2.034619	-0.04773	-2.650299
C	-0.470744	-1.175201	0.705675
N	-0.775473	-2.154427	1.282369
C	-0.498408	1.217842	0.606666
N	-0.894867	2.20746	1.106166
H	2.471302	0.0	0.0
