14

C	-0.377351	0.005822	-1.483858
C	0.0	0.0	0.0
F	0.026777	1.208452	-2.023834
H	1.096619	0.0	0.0
C	0.374782	-1.057542	-2.209504
N	0.801709	-1.93511	-2.864354
N	-1.792685	-0.106843	-1.68799
H	-1.998346	-0.35974	-2.647711
H	-2.186216	-0.803325	-1.06809
C	-0.463798	-1.214376	0.636339
N	-0.793896	-2.234683	1.12337
C	-0.496056	1.183264	0.67162
N	-0.82831	2.152091	1.250482
H	2.455918	0.0	0.0
