14

C	-0.240421	-0.405897	-1.457308
C	0.0	0.0	0.0
F	-1.553879	-0.82665	-1.676675
H	1.104018	0.0	0.0
C	-0.069462	0.768988	-2.354901
N	0.087381	1.641036	-3.126918
N	0.652358	-1.475259	-1.726449
H	0.746521	-1.631877	-2.722142
H	1.569396	-1.235207	-1.31615
C	-0.448326	-1.044946	0.902029
N	-0.768642	-1.873274	1.672225
C	-0.546587	1.290677	0.360757
N	-0.942725	2.354573	0.668778
H	2.508374	0.0	0.0
