14

C	-0.412329	-0.030034	-1.475149
C	0.0	0.0	0.0
F	0.14648	1.106827	-2.066914
H	1.095807	0.0	0.0
C	0.165249	-1.201996	-2.169829
N	0.541225	-2.130646	-2.781639
N	-1.825397	-0.059802	-1.644719
H	-2.059369	0.013672	-2.627462
H	-2.238792	0.717598	-1.140172
C	-0.473638	-1.172121	0.709663
N	-0.782811	-2.140149	1.302224
C	-0.488709	1.220541	0.611938
N	-0.882021	2.211433	1.111214
H	2.476621	0.0	0.0
