14

C	-0.366176	0.100993	-1.482574
C	0.0	0.0	0.0
F	0.035512	1.33893	-1.939276
H	1.104397	0.0	0.0
C	0.399526	-0.907895	-2.27018
N	0.835537	-1.736509	-2.980447
N	-1.778458	-0.007265	-1.707583
H	-2.174379	-0.738689	-1.131294
H	-1.973828	-0.206523	-2.681917
C	-0.462691	-1.253148	0.554142
N	-0.796714	-2.300764	0.976626
C	-0.496095	1.136713	0.74529
N	-0.825016	2.067341	1.38597
H	2.442789	0.0	0.0
