14

C	-0.228431	-0.091325	-1.510455
C	0.0	0.0	0.0
F	-1.550761	-0.407004	-1.829142
H	1.10612	0.0	0.0
C	0.004125	1.234586	-2.145683
N	0.208869	2.237487	-2.723843
N	0.635386	-1.115153	-1.982747
H	1.551893	-0.985017	-1.524116
H	0.746466	-1.063997	-2.98866
C	-0.456043	-1.207712	0.662003
N	-0.783176	-2.176923	1.241255
C	-0.54492	1.189573	0.618236
N	-0.941392	2.165958	1.141545
H	2.502053	0.0	0.0
