11
Coordinates from ORCA-job run
  C   -0.76468116497974      0.53398588248910      0.10595169404261
  C   0.54739023242727      0.18381467234229     -0.02990007283063
  H   -1.17426817366866      1.43779720686098     -0.31911884586591
  N   -1.71737157974392     -0.27777542699347      0.79751719244599
  O   -2.87731623662729      0.13200375156104      0.82841094168072
  O   -1.33221033523523     -1.33607991537049      1.31760871920060
  C   1.36496215014196      1.10159528676087     -0.78039769933440
  N   2.04376329454235      1.83458378701262     -1.40124065895545
  N   1.19973341934731     -0.87695051949358      0.50982602433398
  H   2.08894425767052     -1.13536601098338      0.11732556788310
  H   0.62205413612545     -1.59760871418598      0.91601713739941
