11
Coordinates from ORCA-job run
  C   -0.84128643376190     -0.31509601264397      0.22728136816053
  C   0.47758011988636     -0.13633469500572     -0.02718146793474
  H   -1.37674366557063     -1.21467096311657     -0.04614222123161
  N   -1.67806995733145      0.66648321054417      0.87049667580349
  O   -2.84998013228650      0.32412872508732      1.04202566230267
  O   -1.19504242810773      1.74731883122660      1.20166633377451
  C   1.20939190346310      1.04643566749712      0.34294306095693
  N   1.95326723549510      1.92280850112945      0.59206917025941
  N   1.23243519956919     -1.04461437565902     -0.73658742395321
  H   0.84487405525690     -1.96925154160631     -0.84221579627421
  H   2.22457410338756     -1.02720734745306     -0.56235536186377
