11
Coordinates from ORCA-job run
  C   -0.76886242598089      0.53374371668438      0.20215764454829
  C   0.50780789307100      0.17231807537044     -0.11797759239193
  H   -1.19101612959605      1.48840525739054     -0.07231977306608
  N   -1.64810598346114     -0.30588812008291      0.95505097988007
  O   -2.76638490606345      0.14302675947202      1.20430897709144
  O   -1.24296685502999     -1.42179695335729      1.31516835201453
  C   1.26749228829141      1.15041590491220     -0.85262557061707
  N   1.90558408434529      1.94277039372950     -1.44300224130553
  N   1.13158749061691     -1.01241639720174      0.10251935356080
  H   0.67034327690061     -1.65001130085662      0.73390158691839
  H   2.13452126690630     -1.04056733606053      0.03281828336709
