11
Coordinates from ORCA-job run
  C   -0.76531957064942      0.52931595848489      0.08397059332125
  C   0.54738075397942      0.17547937000466     -0.03583492348203
  H   -1.17517601972087      1.41479759303894     -0.37766504358203
  N   -1.71882826975012     -0.25685920672756      0.80323101695891
  O   -1.33366608263632     -1.29383958376728      1.36482489911377
  O   -2.87939712557315      0.15239276330459      0.81573077433207
  C   1.36565417887395      1.06612428515680     -0.81757064331921
  N   2.04564651077308      1.77721457734591     -1.46217775308640
  N   1.19996394160114     -0.86331132294606      0.54473587008374
  H   0.62287597998940     -1.56865616082584      0.97772383337034
  H   2.09086570311291     -1.13365827306905      0.16403137628959
