11
Coordinates from ORCA-job run
  C   -0.67207141149905      0.65001217285993      0.27088368256307
  C   0.57623850151496      0.15048926187953      0.03301192228941
  H   -0.91429911552800      1.69435112178711      0.14604546076094
  N   -1.76745078441343     -0.16924043233943      0.68502782222768
  O   -1.57231917624422     -1.38281627949516      0.85575378015242
  O   -2.84998203813587      0.39230754917486      0.84963520629003
  C   1.56146022883488      1.10904746353883     -0.39741330608863
  N   2.37844686001493      1.87522592865540     -0.75647419581415
  N   1.02897282544417     -1.11565858484391      0.21131373058263
  H   1.89764360535633     -1.37818274541297     -0.22199099044148
  H   0.33436050465529     -1.82553545580419      0.38720688747808
