11
Coordinates from ORCA-job run
  C   -0.86701688166668     -0.10340674589655     -0.02579199771221
  C   0.48803169919437     -0.10959277678554     -0.02034577660601
  H   -1.45450477300445     -0.61475423076764     -0.77697610120085
  N   -1.67382778813455      0.58213069030932      0.95204968642090
  O   -1.12453565199635      1.22947761558571      1.84115551255006
  O   -2.89167725333421      0.45214742828686      0.81007591295045
  C   1.28554400693414      0.54886061957858      0.98037770978288
  N   2.07670172087928      1.00623384043900      1.72079808307828
  N   1.23703355812894     -0.68692023258792     -1.02249707961374
  H   0.75631278602658     -1.33431583817714     -1.62784975339881
  H   2.16993857697292     -0.97086036998468     -0.76899619625096
