11
Coordinates from ORCA-job run
  C   -0.85172407856677     -0.25268903582352      0.04967902682675
  C   0.50029088802867     -0.16367212477208      0.05990968320705
  H   -1.38945400433252     -0.97134533246907     -0.55464762729739
  N   -1.72061362791132      0.58648668446839      0.83578792504257
  O   -2.92688999385502      0.39721706668025      0.66466665392023
  O   -1.23012675345776      1.41467264802731      1.60052574339868
  C   1.23088416739949      0.79969230498807      0.84057204854668
  N   1.97194794126775      1.52844097376308      1.39109404695525
  N   1.31338799502105     -1.04310229352985     -0.62156132548025
  H   2.22835926558517     -0.69884105192652     -0.86551898306587
  H   0.87393820082126     -1.59685983940606     -1.34050719205370
