11
Coordinates from ORCA-job run
  C   -0.69886255567913      0.66305003782996      0.24145236877301
  C   0.52105280246706      0.15066931703588     -0.09269722763650
  H   -0.94678328102768      1.70953097400967      0.15673244317511
  N   -1.70999075273976     -0.11953765509127      0.89634226491139
  O   -1.53554578161739     -1.33397194519863      1.05309783146389
  O   -2.70082062968304      0.50085422436579      1.28243315289175
  C   1.50981526742292      1.05516838273418     -0.61677358936378
  N   2.43322593109810      1.69599408023912     -0.97579061239043
  N   0.99055497332405     -1.11065939220965      0.10642090448002
  H   0.33345267635840     -1.80417956258351      0.41931920192778
  H   1.80390135007648     -1.40791846113154     -0.40953673823223
