11
Coordinates from ORCA-job run
  C   -0.84029303152777     -0.31131127964545      0.11771224112224
  C   0.48648760977374     -0.08285319980271     -0.03529088038603
  H   -1.35923080499339     -1.11918218338152     -0.38120394773950
  N   -1.70698249356167      0.49364299056958      0.94147711717385
  O   -2.88345009547798      0.12665597505248      0.97830156950569
  O   -1.24235919226068      1.46135116036977      1.54047981660526
  C   1.19716718443960      0.97460367725178      0.63397681799381
  N   1.92548439151859      1.76309635775609      1.11485442217777
  N   1.27328381369551     -0.80039007198632     -0.90990728182986
  H   0.89391681126061     -1.67271900647796     -1.24419692091878
  H   2.25697580713346     -0.83189441970576     -0.69420295370445
