11
Coordinates from ORCA-job run
  C   -0.63193077844105     -0.07992671113155      0.82320475089641
  C   0.48388324757965     -0.20763034097720      0.06497681654022
  H   -0.74440071068772     -0.55564638191639      1.78854602487927
  N   -1.78539251727225      0.69169875173834      0.43506692648252
  O   -2.69221078765103      0.73442129947829      1.26935701028054
  O   -1.79863279409979      1.24616918606624     -0.66207212198546
  C   0.66081912702995      0.43403414681270     -1.21116259325641
  N   0.97617901021903      0.89766454571932     -2.24510446032750
  N   1.53332473888823     -1.03033720249500      0.41125712287891
  H   2.42982012899729     -0.79457148368800      0.01655308252149
  H   1.56954133543768     -1.33587580960675      1.37137744109002
