11
Coordinates from ORCA-job run
  C   -0.85285211927388     -0.20979678463282      0.00279022901144
  C   0.50155986047841     -0.16352575861823      0.03764924534790
  H   -1.40157341593412     -0.91955309701839     -0.60384013953166
  N   -1.70183744043582      0.58380960718744      0.85789122908450
  O   -2.87915364901599      0.22048731058742      0.90513426997170
  O   -1.22762085609305      1.54282718286251      1.46398925042710
  C   1.23344081355952      0.74037504153116      0.88736401212959
  N   1.93610513827328      1.43406603259004      1.52369894983377
  N   1.30726298130233     -1.02066877767296     -0.67854721008859
  H   2.22193779841458     -0.66537657401916     -0.91644240138154
  H   0.86273088872474     -1.54264418279703     -1.41968743480419
