11
Coordinates from ORCA-job run
  C   -0.71828049678431     -0.37730070634337      0.55972754552368
  C   0.49046334716501     -0.15183242773639     -0.01566674385417
  H   -1.06515025451475     -1.36565888375110      0.83315613568125
  N   -1.71672390721116      0.64488501815529      0.75856296663216
  O   -1.40224543910589      1.82761337953534      0.64723342257181
  O   -2.83938497549755      0.22656980151326      1.04648404161329
  C   0.94196759234331      1.15676554790191     -0.40964607018260
  N   1.40675352979371      2.17918642118513     -0.75535674200627
  N   1.37130201677951     -1.16221752665740     -0.33223566310618
  H   2.34667395499906     -0.91037218841474     -0.34754008208263
  H   1.18362463203307     -2.06663843538794      0.07628118920965
