11
Coordinates from ORCA-job run
  C   -0.67304939023478      0.59675713980260      0.44513471622851
  C   0.54467468450130      0.19686382678326     -0.02368297615875
  H   -0.96730802449899      1.63434365294496      0.49034759751931
  N   -1.67353485178257     -0.32168891101599      0.89112106699057
  O   -1.41612176037698     -1.53528614002961      0.87596261979328
  O   -2.74319231308409      0.15891393651070      1.26392252812900
  C   1.42325951554481      1.25399727298786     -0.45498877503878
  N   2.14788521400931      2.10647412809865     -0.81812664091472
  N   1.06530530533520     -1.05470570931652     -0.06677890975583
  H   1.86505052610725     -1.21878984890580     -0.65396740645017
  H   0.42703109447952     -1.81487934786011      0.11205617965759
