11
Coordinates from ORCA-job run
  C   -0.69261438724138      0.66917830956267      0.25669160331740
  C   0.54325132359560      0.21194292440521     -0.03322676588953
  H   -1.04204245741139      1.67348679148560      0.06807368248156
  N   -1.65207706015924     -0.23537627859434      0.88242917047502
  O   -1.63265096147247     -0.31136644859855      2.11029081333008
  O   -2.40324932448034     -0.85702570928107      0.13057125045929
  C   1.46298351143639      1.12745577536988     -0.64816325368888
  N   2.22173713899710      1.86119780692868     -1.16712698388089
  N   1.05251861615331     -1.03313226873183      0.28964995677861
  H   1.77696811463558     -1.36435849425854     -0.32841276601355
  H   0.36517548594685     -1.74200240828771      0.50022329263089
