11
Coordinates from ORCA-job run
  C   -0.68456516529517      0.63339027644926      0.26356975030842
  C   0.57910423221296      0.16402776352247      0.05105242819760
  H   -0.91987952079647      1.68666196653911      0.28176148331580
  N   -1.80067640486154     -0.22525248710890      0.51290536588718
  O   -2.88376048470410      0.31927261873390      0.72382139714506
  O   -1.62065718274084     -1.45250130369871      0.50643949276830
  C   1.59215684434955      1.16730854774147     -0.15176899681277
  N   2.43305301126758      1.97489542189270     -0.30696390751101
  N   0.99448286571061     -1.12307591165457     -0.06917886540233
  H   0.33401649324450     -1.83219005300690      0.21219202526495
  H   1.97672531161294     -1.31253683940983      0.03716982683879
