11
Coordinates from ORCA-job run
  C   -0.65992024422549      0.63830126811114      0.37429865054225
  C   0.52344344421883      0.15147195790921     -0.10077036249338
  H   -0.90918690962648      1.68830339333941      0.35267859147242
  N   -1.65994440383050     -0.19437714860003      0.96671039247567
  O   -2.67322182914038      0.36572746138117      1.38367691559346
  O   -1.45525809432504     -1.41616447851541      1.03261049127226
  C   1.43136530558131      1.13087500903503     -0.63997995439285
  N   2.19133133108462      1.91716777834043     -1.07305951155363
  N   0.92890561027770     -1.14000696579429     -0.19716946554481
  H   1.90915325098439     -1.32018445332252     -0.33271716920220
  H   0.37333253900105     -1.82211382188414      0.29672142183082
