11
Coordinates from ORCA-job run
  C   -0.66461960141824      0.64982978986807      0.29161749521583
  C   0.53135919261538      0.12287616856535     -0.10143380219505
  H   -0.91581839126753      1.69085397590048      0.15592746152427
  N   -1.67651967772257     -0.12140553815769      0.94392815692043
  O   -1.47050036456357     -1.32852258924774      1.14222491382292
  O   -2.70173598257930      0.47382018087145      1.27421017176773
  C   1.44702747066115      1.04651986942668     -0.72015598479680
  N   2.20856495350767      1.79123181741427     -1.21902896237123
  N   0.94153704783555     -1.17030998676418     -0.05640402033982
  H   1.92617460919404     -1.35642905634660     -0.14269112307221
  H   0.37653074373742     -1.79946463153007      0.49380569352393
