11
Coordinates from ORCA-job run
  C   -0.76343418964497      0.54158739515051      0.15766400552886
  C   0.53088386741859      0.17515960312249     -0.07242746329351
  H   -1.19516723450671      1.44302216002022     -0.25017040529153
  N   -1.67023296678160     -0.25270435246861      0.92644931117746
  O   -2.82180310295025      0.16741030146384      1.03529908242492
  O   -1.25671716629176     -1.30746026372057      1.43190523265909
  C   1.29875889125155      1.07635832195263     -0.89260865108510
  N   1.93746253491692      1.79612593265876     -1.56899039668222
  N   1.21200302532402     -0.88560393355745      0.43021571478765
  H   0.65998706902378     -1.59530183202710      0.88812202907172
  H   2.06725927224039     -1.15659333259474     -0.02445845929733
