11
Coordinates from ORCA-job run
  C   -0.63575321065417      0.65419155934085      0.39903228155698
  C   0.50037623019377      0.13237763528132     -0.14822014826571
  H   -0.87569103405365      1.70565861911467      0.35324218447140
  N   -1.59262089103896     -0.13940554129716      1.10541709831881
  O   -1.39702539067967     -1.36038754141549      1.20502341628246
  O   -2.56191353978765      0.45186708521481      1.58001837877992
  C   1.37126318953330      1.07611992363925     -0.80020664750965
  N   2.10023991670180      1.83432349470059     -1.32668047575067
  N   0.88280995110889     -1.16769543938852     -0.22354003913791
  H   0.36247394927435     -1.82132479580934      0.34225438524528
  H   1.84784082940199     -1.36572499938096     -0.42634043399091
