11
Coordinates from ORCA-job run
  C   -0.71449721321086     -0.08572166180066      0.70589630672142
  C   0.54523413953210     -0.12143553894824      0.20396277491254
  H   -1.00278040222862     -0.58220794302040      1.62036386836880
  N   -1.82698675672626      0.59093216290257      0.07938955782043
  O   -1.69475443767174      1.08691335623769     -1.03699932139680
  O   -2.86933937999131      0.58531614238960      0.73898745897960
  C   0.91991153635088      0.53435289315282     -1.02298380741709
  N   1.29047097800650      1.02924390136308     -2.02225364610942
  N   1.60234059959073     -0.69786786495233      0.87169876752593
  H   1.39340951441223     -1.31980124999898      1.63625650827107
  H   2.35699142193634     -1.01972419732515      0.28768153232352
