11
Coordinates from ORCA-job run
  C   -0.52651742927023     -0.18035742332965      0.89322394440719
  C   0.45513491831145     -0.18654100660434     -0.04058676900921
  H   -0.49163474043578     -0.78670598378625      1.78876811912021
  N   -1.71148400175237      0.63574620505899      0.81031171146432
  O   -1.91647138968397      1.30077004617569     -0.20319311278515
  O   -2.44573299281225      0.59476325081462      1.79998482755591
  C   0.44048751119926      0.64024680860137     -1.21839667451668
  N   0.59445197023728      1.25999699104893     -2.20612432041799
  N   1.53154530174020     -1.04564960571909      0.01028620762816
  H   2.36298973821365     -0.73938802298293     -0.46950148148361
  H   1.70723111425277     -1.49388125927733      0.89622754803685
