11
Coordinates from ORCA-job run
  C   -0.63920107737273      0.49260873381600      0.66248713849168
  C   0.58831368080364      0.18235557722573      0.15265241211140
  H   -0.82899965853199      1.40595902563460      1.20563345618072
  N   -1.78363688550729     -0.34864097398471      0.49738764088487
  O   -1.65221797286109     -1.42151110918181     -0.11101599766036
  O   -2.84249305754067      0.05548885079786      0.97698256225021
  C   1.62560070827173      1.15445787165595      0.38350469086192
  N   2.47901072540190      1.94562977053003      0.55483006057100
  N   0.97831735304152     -0.95386379109716     -0.47929136973880
  H   0.24363913989773     -1.58187830590391     -0.76888901475202
  H   1.83066704439726     -0.93060564949259     -1.01328157920061
