11
Coordinates from ORCA-job run
  C   -0.59922181875455      0.56002933190889      0.63940780496048
  C   0.57329007421017      0.17995403955419      0.05371273852866
  H   -0.76241049031559      1.55345285047649      1.02862300599226
  N   -1.72564444277597     -0.31232517752586      0.75799656388507
  O   -2.73765769080278      0.15284384224295      1.28085338196566
  O   -1.62593732508554     -1.47315496707075      0.33141384890630
  C   1.59483049671725      1.19397378061980     -0.01007863697972
  N   2.43182843511303      2.01727513814548     -0.08101985666771
  N   0.92848420968424     -1.04191096297645     -0.41544967598994
  H   1.72863539667965     -1.10563087150974     -1.02063800559620
  H   0.19080315533010     -1.72450700386500     -0.50382116900486
