11
Coordinates from ORCA-job run
  C   -0.80636427413907     -0.37796271448453      0.30953537846729
  C   0.48306209558637     -0.12706008345270     -0.02271062165314
  H   -1.32753809832364     -1.27697709197600      0.00776122077224
  N   -1.62112636952226      0.50728855131255      1.10347544729451
  O   -2.78517788642514      0.13751888662058      1.27215272453307
  O   -1.13034040176355      1.54319548080871      1.54765409830762
  C   1.18383098900717      1.07326960429192      0.35100263190203
  N   1.88605806586703      1.99539443950896      0.55113342769291
  N   1.27504034808433     -1.03486715376003     -0.69121769225146
  H   0.79900748053120     -1.79253630039773     -1.15585493429089
  H   2.04554805109755     -0.64726361847172     -1.21193168077418
