11
Coordinates from ORCA-job run
  C   -0.80968001401507     -0.38267154896180      0.29412195983699
  C   0.48273849606900     -0.12078308255104     -0.01833941675850
  H   -1.31353807020465     -1.29001891269746     -0.00794926664231
  N   -1.64144022305778      0.50120953528812      1.06999496579010
  O   -2.79689943590960      0.10798363421815      1.24858998225780
  O   -1.17011476033704      1.55078542021384      1.50377081347297
  C   1.16383800542884      1.09103284999701      0.35534976589206
  N   1.85611543033346      2.02369237044270      0.54025510231097
  N   1.29969505624249     -1.02683841984745     -0.65623050849325
  H   2.07873546719529     -0.64320662844973     -1.16559243123697
  H   0.85055004825507     -1.81118521765234     -1.10297096642985
