11
Coordinates from ORCA-job run
  C   -0.67732088495561      0.63950723104528      0.28335074844445
  C   0.56268913931028      0.15245653194529     -0.01316129296245
  H   -0.95550224674620      1.66845134887989      0.11288221270869
  N   -1.72385241249875     -0.17484326236643      0.81806519857103
  O   -1.49004678274983     -1.37178608274308      1.04531746705887
  O   -2.80741696433009      0.37344386313797      1.01714674904292
  C   1.49013299488247      1.10270515030335     -0.57092983918435
  N   2.25686207856696      1.86295431209569     -1.03742753333216
  N   1.06069931494873     -1.08921663094701      0.21535599284225
  H   0.39168057666229     -1.79934837723059      0.47249176383855
  H   1.89107518690975     -1.36432408412036     -0.28109146702779
