11
Coordinates from ORCA-job run
  C   -0.54623383625066     -0.10856039925399      0.89337953158409
  C   0.44586442881952     -0.22396475818649     -0.02246445868772
  H   -0.57385381731151     -0.68737546262291      1.80718510482209
  N   -1.67278950086830      0.77949052293414      0.75278696661812
  O   -1.77734792806734      1.46623930503173     -0.26138692225538
  O   -2.46271500407319      0.77693203213898      1.69946542238218
  C   0.50807257242582      0.54920052882557     -1.23480361790022
  N   0.72051801155572      1.10801780160080     -2.24770687515278
  N   1.45676940831882     -1.15441757534027      0.08350832856180
  H   2.31248140150441     -0.93313340625029     -0.40025575251100
  H   1.59023426394670     -1.57242858887726      0.99129227253882
