11
Coordinates from ORCA-job run
  C   -0.80159982480312     -0.37758548293834      0.34132084475065
  C   0.48854729156076     -0.13987301277846      0.00192030343241
  H   -1.29812325564905     -1.31806477922695      0.14201229864913
  N   -1.64830496513968      0.57859196133768      1.00903289985082
  O   -1.19002572369460      1.67562418564170      1.32152082350329
  O   -2.80366484299504      0.20088507027877      1.21536046070058
  C   1.16041252996946      1.11023020237619      0.24153735857909
  N   1.84384242475210      2.06226460507222      0.34116197699186
  N   1.30909128957430     -1.10464883044859     -0.54097412491063
  H   2.08370225754278     -0.76718110865730     -1.08983345618695
  H   0.85412281888209     -1.91924281065691     -0.92305938536024
