11
Coordinates from ORCA-job run
  C   -0.64911895837979      0.65729636304427      0.34072640357162
  C   0.52740081225367      0.12847952683570     -0.10498479546676
  H   -0.93894712589982      1.67955456080233      0.15065756557567
  N   -1.61177750099818     -0.10162090054517      1.07730803772342
  O   -1.35943299406823     -1.28691364875917      1.34247144425408
  O   -2.64709728083537      0.47962975073088      1.40070053401798
  C   1.37260169451927      1.02496240229259     -0.85073226176438
  N   2.07122866386481      1.74110171748509     -1.46916896784779
  N   1.03982022453099     -1.10712001996233      0.12404231831175
  H   0.40941791446775     -1.78728335386138      0.52151669988059
  H   1.78490455054489     -1.42808639806283     -0.47053697825619
