11
Coordinates from ORCA-job run
  C   -0.82028198071364     -0.35645715740653      0.27881700898079
  C   0.47758879882401     -0.12527643857766     -0.03465417364232
  H   -1.31145408186324     -1.30207703039929      0.09094580574405
  N   -1.69046059763240      0.62200815286999      0.88114893601929
  O   -1.26151914856107      1.75088904594607      1.11106754869421
  O   -2.83278716917058      0.22736552432829      1.12489701407763
  C   1.15197953107032      1.11961843783202      0.22312773091927
  N   1.85141962760123      2.05164081719099      0.38285041296189
  N   1.25957058360792     -1.04060226113843     -0.70531022316066
  H   2.25374755668347     -0.95761626291201     -0.56475813958872
  H   0.92219688015399     -1.99049282773345     -0.72713192100544
