11
Coordinates from ORCA-job run
  C   -0.62071258795307      0.66680273127173      0.40418122598929
  C   0.47495374532987      0.11076746593986     -0.19005697006574
  H   -0.86308852092307      1.71504649181002      0.31522065195112
  N   -1.52331105291352     -0.08094467482149      1.22304913514595
  O   -2.45828713395501      0.53928588221949      1.72854533298156
  O   -1.31778458706783     -1.29400200097207      1.38177222356499
  C   1.29528932497635      1.01264662493612     -0.95699459210826
  N   1.98248294719269      1.73674690607282     -1.57902976372898
  N   0.85358094529765     -1.19242115273369     -0.21560564719399
  H   0.37506102795608     -1.81026989740987      0.42230758157101
  H   1.80281589205987     -1.40365837631294     -0.47238917810696
