11
Coordinates from ORCA-job run
  C   -0.85808390192894      0.00418278372071     -0.08129590958674
  C   0.48790650834322     -0.13225391310317     -0.00605214981853
  H   -1.44061037230986     -0.35876384213163     -0.91789452755578
  N   -1.65973986605573      0.65218768404702      0.92594456732908
  O   -2.87289256494505      0.65830202421018      0.70594950647164
  O   -1.11126158672362      1.14031614160726      1.91194675315841
  C   1.27639848654658      0.32890993612037      1.10599973718173
  N   2.05784679540017      0.62154884477173      1.93491832019891
  N   1.24457489289679     -0.66236740693185     -1.02855131371321
  H   2.12958473161460     -1.06259987460313     -0.76029700335264
  H   0.74727687716184     -1.18946237770750     -1.72966798031286
