11
Coordinates from ORCA-job run
  C   -0.88110580461254     -0.12873521221287      0.06067843148525
  C   0.47120347586525     -0.19997384622250      0.01234461849743
  H   -1.52412623438989     -0.68627631422985     -0.60746561867882
  N   -1.61200858851497      0.68376220586915      1.00010839641997
  O   -0.99657670314503      1.33477320655453      1.84196541359565
  O   -2.83804019669203      0.65768645399741      0.87219861128609
  C   1.34207775202284      0.54885149494356      0.87951806031553
  N   2.18759562339338      1.09722129924868      1.48610982432518
  N   1.14589043266933     -1.06065812580127     -0.82616925032606
  H   0.61688214374683     -1.45097884564077     -1.59045991093817
  H   2.08720809965683     -0.79367231650608     -1.06682857598207
