11
Coordinates from ORCA-job run
  C   -0.85571041946953     -0.26168222403104      0.10049063010215
  C   0.47792873826876     -0.07862079431092     -0.05407854709475
  H   -1.42186959500437     -0.97964945970477     -0.47820573738086
  N   -1.66856697398283      0.48001209223232      1.03121886767186
  O   -1.14918072004827      1.35287158520152      1.72375999139545
  O   -2.85927266599211      0.16096694401274      1.05648576201037
  C   1.25024597331153      0.85930300846346      0.71717271979926
  N   2.02464765929304      1.55186722094320      1.26860432270226
  N   1.21390207045124     -0.72412891500151     -1.02424316810096
  H   2.19839463733576     -0.82618280726458     -0.83519345165569
  H   0.78748129583679     -1.53475665054040     -1.44601138944909
