13

C	0.0	0.0	0.0
C	-0.491209	-0.180026	-1.453026
F	1.381745	0.0	0.0
H	0.421867	-0.278684	-2.056732
H	-0.345545	0.947199	0.407974
H	-0.344167	-0.815279	0.636183
N	-1.209315	1.024593	-1.845165
H	-1.550137	0.84353	-2.784455
H	-2.035766	0.957602	-1.227091
N	-1.333168	-1.360783	-1.681321
H	-0.859699	-2.186182	-1.314327
H	-2.135906	-1.148537	-1.058343
F	-2.865412	0.0	0.0
