13

C	0.0	0.0	0.0
C	-0.207711	-0.181168	-1.523135
F	1.39212	0.0	0.0
H	0.247758	0.708386	-1.979596
H	-0.397803	0.919324	0.339158
H	-0.401059	-0.811271	0.585721
N	-1.479267	-0.241303	-2.221164
H	-2.114929	-0.796724	-1.718543
H	-1.235726	-0.535149	-3.201874
N	0.633044	-1.299961	-2.074507
H	1.54794	-1.246558	-1.63058
H	0.192636	-2.143217	-1.739096
F	-2.414935	0.0	0.0
