13

C	0.0	0.0	0.0
C	-0.478616	-0.092325	-1.477986
F	1.393022	0.0	0.0
H	0.44829	-0.132103	-2.069493
H	-0.341476	-0.85068	0.589221
H	-0.341502	0.917393	0.479083
N	-1.27545	1.054995	-1.902258
H	-0.775549	1.894129	-1.621479
H	-2.093089	0.964306	-1.274299
N	-1.272251	-1.286972	-1.754677
H	-0.760596	-2.08247	-1.382848
H	-2.084512	-1.127447	-1.134463
F	-2.816567	0.0	0.0
