13

C	0.0	0.0	0.0
C	-0.474839	0.057567	-1.482043
F	1.393031	0.0	0.0
H	0.452816	0.074748	-2.072116
H	-0.345943	0.862741	0.567956
H	-0.341718	-0.907154	0.497962
N	-1.265429	1.245195	-1.7927
H	-2.081483	1.100244	-1.172695
H	-0.757855	2.050209	-1.43583
N	-1.274315	-1.099433	-1.880164
H	-0.7723	-1.934369	-1.589837
H	-2.086661	-0.992345	-1.247287
F	-2.811322	0.0	0.0
