13

C	0.0	0.0	0.0
C	-0.472417	-0.007614	-1.444834
F	1.396565	0.0	0.0
H	-1.565662	-0.008605	-1.33762
H	-0.352147	0.889224	0.519729
H	-0.352167	-0.883038	0.530009
N	-0.023304	-1.210995	-2.15539
H	-0.59475	-1.974912	-1.811648
H	0.931455	-1.413223	-1.871958
N	-0.025189	1.189964	-2.165959
H	0.929422	1.394678	-1.882719
H	-0.598214	1.957112	-1.829648
F	-2.717714	0.0	0.0
