15

C	-0.496834	-0.001002	-1.414695
C	0.0	0.0	0.0
Br	0.355639	-1.386207	-2.437473
H	1.09108	0.0	0.0
H	-0.337663	-0.942698	0.449191
N	-2.014042	-0.210813	-1.559725
O	-2.475781	-0.275157	-2.691976
O	-2.660307	-0.291201	-0.518495
N	-0.246065	1.365313	-2.047593
O	-1.206047	2.12554	-2.09309
O	0.900354	1.61308	-2.379051
N	-0.439778	1.204502	0.684047
H	0.336234	1.523286	1.249382
H	-1.251705	1.044643	1.263213
F	2.594649	0.0	0.0
