15

C	-0.537609	0.028527	-1.398157
C	0.0	0.0	0.0
Br	-0.079542	-1.586673	-2.340134
H	1.105522	0.0	0.0
H	-0.345917	-0.938191	0.448488
N	-2.071408	0.121002	-1.479292
O	-2.69218	-0.133961	-0.452203
O	-2.565765	0.391545	-2.566588
N	-0.031591	1.250224	-2.155734
O	1.001888	1.136694	-2.796066
O	-0.682497	2.275173	-1.985567
N	-0.412175	1.198251	0.716413
H	0.397983	1.528864	1.224127
H	-1.171931	1.017739	1.355837
F	2.5848	0.0	0.0
