15

C	-0.488162	-0.024241	-1.415596
C	0.0	0.0	0.0
Br	0.040736	-1.592241	-2.367779
H	1.101417	0.0	0.0
H	-0.365105	0.936197	0.436372
N	-2.020021	0.097639	-1.553692
O	-2.675427	0.120383	-0.518461
O	-2.471796	0.18905	-2.689147
N	-0.006487	1.243499	-2.125022
O	0.826234	1.178447	-3.009019
O	-0.526414	2.266226	-1.682403
N	-0.430364	-1.198172	0.708991
H	-1.179149	-0.996018	1.353033
H	0.375279	-1.534823	1.21825
F	2.593679	0.0	0.0
