15

C	-0.435321	0.097546	-1.425823
C	0.0	0.0	0.0
Br	-2.360401	0.348726	-1.66242
H	1.095778	0.0	0.0
H	-0.342114	0.916649	0.487678
N	0.27191	1.287571	-2.066557
O	1.089498	1.061267	-2.947768
O	-0.01888	2.380827	-1.599839
N	-0.033307	-1.122102	-2.252172
O	-0.510931	-1.222597	-3.376561
O	0.772026	-1.884464	-1.735938
N	-0.55484	-1.207908	0.606592
H	-1.011205	-0.979523	1.479836
H	0.233327	-1.807532	0.811403
F	2.582877	0.0	0.0
