13

C	-0.436104	0.036147	-1.438046
C	0.0	0.0	0.0
F	-0.095443	-1.097512	-2.09036
H	1.093552	0.0	0.0
H	-0.315334	0.921	0.496438
N	-1.975229	0.145366	-1.519525
O	-2.445268	1.20985	-1.131918
O	-2.592896	-0.835448	-1.908367
C	0.083004	1.206635	-2.165975
N	0.42689	2.144803	-2.783159
C	-0.540588	-1.160338	0.679015
N	-0.937542	-2.107985	1.250857
H	2.603245	0.0	0.0
