13

C	-0.427172	0.033317	-1.440939
C	0.0	0.0	0.0
F	-0.112264	-1.115658	-2.079806
H	1.093532	0.0	0.0
H	-0.312146	0.925491	0.490345
N	-1.960369	0.182497	-1.532947
O	-2.403118	1.268114	-1.172926
O	-2.603643	-0.790379	-1.901009
C	0.130864	1.181626	-2.175387
N	0.510898	2.103493	-2.795565
C	-0.548387	-1.1542	0.681346
N	-0.952419	-2.0972	1.256042
H	2.598993	0.0	0.0
