13

C	-0.455686	-0.020491	-1.431108
C	0.0	0.0	0.0
F	-0.012682	-1.155115	-2.03356
H	1.093524	0.0	0.0
H	-0.325876	-0.937778	0.460659
N	-1.992745	-0.093731	-1.487499
O	-2.602487	0.964348	-1.623873
O	-2.48159	-1.204245	-1.309437
C	-0.041149	1.150955	-2.215493
N	0.321983	2.077557	-2.839392
C	-0.523412	1.139216	0.723444
N	-0.912072	2.068337	1.330764
H	2.586572	0.0	0.0
