13

C	-0.444581	-0.028623	-1.439189
C	0.0	0.0	0.0
F	0.007083	-1.164794	-2.025904
H	1.093564	0.0	0.0
H	-0.327823	-0.936717	0.461637
N	-1.981119	-0.095396	-1.511302
O	-2.582044	0.973093	-1.585227
O	-2.477745	-1.211883	-1.410444
C	-0.02197	1.142584	-2.219441
N	0.314077	2.06709	-2.861032
C	-0.520982	1.141986	0.720538
N	-0.893328	2.07283	1.33528
H	2.591703	0.0	0.0
