13

C	-0.427354	0.039546	-1.440487
C	0.0	0.0	0.0
F	-0.109183	-1.105013	-2.085625
H	1.093551	0.0	0.0
H	-0.31294	0.922627	0.495173
N	-1.960977	0.18316	-1.53429
O	-2.599313	-0.790954	-1.907666
O	-2.409533	1.265846	-1.170753
C	0.126061	1.193792	-2.169069
N	0.502339	2.121652	-2.782605
C	-0.54778	-1.157791	0.675565
N	-0.952849	-2.101401	1.248579
H	2.596884	0.0	0.0
