13

C	-0.507236	-0.046447	-1.411128
C	0.0	0.0	0.0
F	-1.878751	-0.095629	-1.493447
H	1.092009	0.0	0.0
H	-0.286246	-0.937946	0.486261
N	-0.088098	1.226998	-2.152274
O	-0.826334	2.192401	-2.003151
O	0.957463	1.176935	-2.785652
C	0.025775	-1.197277	-2.152208
N	0.348682	-2.165503	-2.733053
C	-0.537937	1.116346	0.751439
N	-0.920299	2.008443	1.41484
H	2.607392	0.0	0.0
