13

C	-0.510828	-0.056467	-1.408277
C	0.0	0.0	0.0
F	-1.883834	-0.117948	-1.487684
H	1.091893	0.0	0.0
H	-0.286164	-0.935176	0.492411
N	-0.106677	1.218861	-2.155662
O	0.955058	1.184687	-2.762061
O	-0.86755	2.169848	-2.034568
C	0.039971	-1.203759	-2.139855
N	0.39338	-2.175211	-2.698553
C	-0.535869	1.121059	0.745398
N	-0.916383	2.018125	1.403361
H	2.605564	0.0	0.0
