15

C	-0.542364	0.057906	-1.443726
C	0.0	0.0	0.0
Cl	0.240287	1.352724	-2.383796
H	1.09148	0.0	0.0
C	-0.202566	-1.210356	-2.12074
N	-0.065918	-2.220405	-2.707679
N	-1.961749	0.321964	-1.410369
H	-2.429853	-0.387967	-0.854399
H	-2.337188	0.305934	-2.351714
C	-0.510252	-1.203106	0.645571
N	-0.933747	-2.193717	1.116087
N	-0.487987	1.207832	0.75564
O	0.070219	2.264613	0.497306
O	-1.409287	1.049853	1.555172
Br	3.306505	0.0	0.0
