15

C	-0.327015	0.042453	-1.507077
C	0.0	0.0	0.0
Cl	0.078808	-1.642398	-2.149589
H	1.092062	0.0	0.0
C	-1.753803	0.224128	-1.800819
N	-2.889645	0.355202	-2.072514
N	0.445119	1.077671	-2.065501
H	1.420838	0.995828	-1.769009
H	0.372497	1.107329	-3.074013
C	-0.592525	-1.11555	0.711063
N	-1.061457	-2.026285	1.285904
N	-0.477272	1.292758	0.618712
O	-1.654258	1.326951	0.978649
O	0.330756	2.20796	0.692768
Br	3.342221	0.0	0.0
