15

C	-0.353025	-0.027085	-1.510923
C	0.0	0.0	0.0
Cl	0.012792	-1.706942	-2.045341
H	1.091983	0.0	0.0
C	-1.788205	0.1983	-1.728776
N	-2.942528	0.348578	-1.888197
N	0.436337	0.86199	-2.317296
H	1.419021	0.697524	-2.088622
H	0.205332	1.81263	-2.050615
C	-0.569321	-1.082981	0.780822
N	-1.037635	-1.96493	1.400682
N	-0.393063	1.302242	0.649888
O	-0.331898	1.334625	1.870565
O	-0.698706	2.247738	-0.076019
Br	3.286957	0.0	0.0
