15

C	-0.492684	0.011249	-1.454396
C	0.0	0.0	0.0
Cl	0.192659	-1.524537	-2.210616
H	1.091523	0.0	0.0
C	-1.949846	-0.128234	-1.576312
N	-3.112691	-0.228351	-1.716634
N	-0.052285	1.21096	-2.056081
H	-0.35696	1.284952	-3.022516
H	0.963287	1.291691	-1.979985
C	-0.530551	-1.122306	0.756364
N	-0.946532	-2.027147	1.379535
N	-0.478249	1.283682	0.642801
O	-1.681734	1.353089	0.899396
O	0.358272	2.156537	0.836325
Br	3.284431	0.0	0.0
