14

C	-0.345926	-0.170702	-1.480931
C	0.0	0.0	0.0
Br	-2.271203	-0.782435	-1.686922
H	1.091132	0.0	0.0
H	-0.429404	0.903336	0.423404
C	-0.369959	1.162127	-2.103013
N	-0.331612	2.202129	-2.653662
N	0.529646	-1.082219	-2.111371
H	0.617663	-0.917862	-3.103329
H	1.441688	-1.09137	-1.650815
N	-0.461175	-1.135363	0.830326
O	-1.157126	-0.862677	1.809324
O	-0.10973	-2.262682	0.503892
Cl	3.251545	0.0	0.0
