14

C	-0.393433	0.091794	-1.47045
C	0.0	0.0	0.0
Br	-0.324	-1.908923	-2.115262
H	1.089481	0.0	0.0
H	-0.423741	-0.87216	0.48392
C	-1.799423	0.421523	-1.701642
N	-2.917929	0.752222	-1.85035
N	0.467896	0.925341	-2.154752
H	1.439022	0.822945	-1.863009
H	0.333011	0.961056	-3.153867
N	-0.476852	1.18526	0.768814
O	-0.134268	2.298222	0.383514
O	-1.17737	0.956599	1.758651
Cl	3.279177	0.0	0.0
