14

C	-0.367042	-0.067431	-1.474693
C	0.0	0.0	0.0
Br	-2.318248	-0.397486	-1.647035
H	1.092715	0.0	0.0
H	-0.349975	-0.902522	0.500058
C	-0.080461	1.146114	-2.244611
N	0.156108	2.053698	-2.951845
N	0.330887	-1.167302	-2.11193
H	1.330478	-0.972812	-2.011558
H	0.142305	-2.01487	-1.584383
N	-0.543183	1.138909	0.766653
O	-0.803156	0.928762	1.950705
O	-0.675305	2.218194	0.193409
Cl	3.234293	0.0	0.0
