18

C	-0.435594	0.011798	-1.463291
C	0.0	0.0	0.0
Cl	-2.174231	0.704143	-1.647312
H	1.089687	0.0	0.0
N	0.374202	1.068977	-2.23643
O	0.761241	2.049945	-1.624399
O	0.512775	0.865429	-3.437008
N	-0.244646	-1.1938	-2.118866
H	-0.317782	-1.089063	-3.120718
H	-0.841515	-1.916088	-1.746193
N	-0.416565	-1.282714	0.657331
O	-1.41198	-1.885228	0.236459
O	0.221576	-1.611963	1.649631
C	-0.513074	1.110306	0.903306
H	0.034934	1.047684	1.844233
H	-1.584214	1.006571	1.087174
H	-0.312994	2.076122	0.448754
Cl	3.293201	0.0	0.0
