18

C	-0.532507	0.0157	-1.428935
C	0.0	0.0	0.0
Cl	0.339303	1.277998	-2.3301
H	1.088053	0.0	0.0
N	-0.11603	-1.30344	-2.155802
O	-0.77564	-1.580063	-3.156041
O	0.822649	-1.939006	-1.704762
N	-1.922733	0.250682	-1.542998
H	-2.398475	-0.507489	-1.065967
H	-2.178876	0.232705	-2.522846
N	-0.444898	-1.243855	0.704895
O	-1.365154	-1.911048	0.212522
O	0.101842	-1.498637	1.7692
C	-0.491595	1.184341	0.81809
H	-0.199048	2.109239	0.322208
H	-1.577694	1.172265	0.931089
H	-0.006391	1.149521	1.793883
Cl	3.310001	0.0	0.0
