18

C	-0.317797	-0.068153	-1.495675
C	0.0	0.0	0.0
Cl	-2.072948	-0.254082	-1.851311
H	1.092008	0.0	0.0
N	0.00633	1.342543	-2.150414
O	0.818101	1.325253	-3.068562
O	-0.594075	2.328375	-1.745285
N	0.415537	-1.088386	-2.08918
H	0.433565	-1.001518	-3.097158
H	1.362912	-1.108319	-1.711396
N	-0.438203	-1.307985	0.59931
O	-1.529219	-1.326951	1.173834
O	0.316516	-2.269446	0.491149
C	-0.560008	1.143421	0.813102
H	-0.031369	2.061811	0.562981
H	-1.629493	1.278669	0.654246
H	-0.382528	0.92745	1.868527
Cl	3.273094	0.0	0.0
