18

C	-0.290632	0.01517	-1.502913
C	0.0	0.0	0.0
Cl	0.068102	-1.621196	-2.177308
H	1.092614	0.0	0.0
N	-1.772333	0.33027	-1.843402
O	-2.137085	1.452974	-1.509153
O	-2.466406	-0.50516	-2.404125
N	0.503565	1.036894	-2.061435
H	1.461088	0.941881	-1.714092
H	0.506426	0.987144	-3.073011
N	-0.558406	-1.216139	0.641106
O	0.164696	-1.874877	1.379542
O	-1.753005	-1.438008	0.425853
C	-0.477884	1.204232	0.792941
H	-0.135071	2.114673	0.30504
H	-0.022151	1.144425	1.784491
H	-1.56365	1.230325	0.882724
Cl	3.293661	0.0	0.0
