18

C	-0.603294	0.006742	-1.409918
C	0.0	0.0	0.0
Cl	0.296933	1.223501	-2.348478
H	1.087754	0.0	0.0
N	-0.305246	-1.347763	-2.093018
O	0.722546	-1.906253	-1.739602
O	-1.092333	-1.732949	-2.94645
N	-1.994433	0.271416	-1.561571
H	-2.516055	-0.401892	-1.013663
H	-2.197702	1.21337	-1.255802
N	-0.469306	-1.20262	0.75291
O	0.057509	-1.422074	1.835033
O	-1.397429	-1.870537	0.278588
C	-0.42907	1.214152	0.815874
H	0.116507	1.196806	1.759057
H	-1.504083	1.216942	1.01889
H	-0.15094	2.125587	0.285877
Cl	3.300919	0.0	0.0
