18

C	-0.377977	-0.03037	-1.498475
C	0.0	0.0	0.0
Cl	-2.074979	-0.517787	-1.716365
H	1.092505	0.0	0.0
N	-0.237955	1.43165	-1.977716
O	0.899875	1.75472	-2.293858
O	-1.21821	2.165269	-1.952442
N	0.458259	-0.808913	-2.349916
H	1.423948	-0.558342	-2.126441
H	0.342487	-1.776543	-2.069875
N	-0.41522	-1.308504	0.598406
O	-0.004911	-2.334204	0.056138
O	-1.139362	-1.296101	1.5932
C	-0.540066	1.159951	0.801212
H	-0.075303	2.080491	0.446828
H	-1.625178	1.245305	0.731129
H	-0.259188	1.030099	1.845491
Cl	3.251125	0.0	0.0
