18

C	-0.287302	0.060689	-1.508834
C	0.0	0.0	0.0
Cl	-0.3111	-1.569755	-2.338993
H	1.092346	0.0	0.0
N	-1.716277	0.547352	-1.786187
O	-2.601011	0.035749	-1.110999
O	-1.872525	1.380946	-2.672413
N	0.62341	0.962027	-2.055996
H	1.57195	0.753669	-1.73658
H	0.562319	1.021674	-3.062579
N	-0.476854	-1.233937	0.689207
O	0.143038	-2.269852	0.473146
O	-1.433679	-1.134283	1.459793
C	-0.48185	1.244513	0.720815
H	-0.103085	2.117498	0.188898
H	-1.567134	1.283354	0.795105
H	-0.061353	1.249442	1.7274
Cl	3.285394	0.0	0.0
