12

C	0.0	0.0	0.0
C	-0.517473	-0.351123	-1.380146
Br	1.948148	0.0	0.0
H	-0.160884	0.331409	-2.148633
H	-0.338507	-0.736633	0.726365
H	-1.618808	-0.352277	-1.302324
C	-0.416419	1.345122	0.381738
N	-0.606781	2.465064	0.680809
N	-0.089529	-1.714072	-1.780258
O	-0.026573	-2.575274	-0.906511
O	0.127351	-1.902028	-2.976674
Cl	-3.364125	0.0	0.0
