12

C	0.0	0.0	0.0
C	-0.543702	-0.436741	-1.341747
Br	1.947639	0.0	0.0
H	-1.646047	-0.411062	-1.250749
H	-0.335942	-0.686483	0.775696
H	-0.188688	0.179788	-2.164761
C	-0.404705	1.367179	0.31719
N	-0.616193	2.487936	0.597783
N	-0.149319	-1.835139	-1.645252
O	-0.056974	-2.622673	-0.707096
O	0.012691	-2.123625	-2.829708
Cl	-3.406137	0.0	0.0
