12

C	0.0	0.0	0.0
C	-0.398115	-0.233648	-1.449918
Br	1.947765	0.0	0.0
H	0.086497	0.473991	-2.121096
H	-0.360005	-0.797269	0.643348
H	-1.488833	-0.18707	-1.522058
C	-0.406971	1.31174	0.490556
N	-0.595495	2.36514	0.974492
N	0.010063	-1.585497	-1.90759
O	0.257328	-1.708733	-3.105834
O	0.022912	-2.498742	-1.08648
Cl	-3.047353	0.0	0.0
