12

C	0.0	0.0	0.0
C	-0.427764	-0.08573	-1.458401
Br	1.948688	0.0	0.0
H	-1.51937	-0.018264	-1.495417
H	-0.358353	-0.892338	0.511196
H	-0.068348	-1.019069	-1.898072
C	-0.438463	1.190341	0.723064
N	-0.63792	2.152441	1.366616
N	0.142634	0.989563	-2.307748
O	0.434426	0.686593	-3.469287
O	0.246	2.122783	-1.83227
Cl	-3.240336	0.0	0.0
