12

C	0.0	0.0	0.0
C	-0.434012	-0.091207	-1.457484
Br	1.948693	0.0	0.0
H	-1.525963	0.013069	-1.496263
H	-0.364028	-0.885072	0.51971
H	-0.111214	-1.039779	-1.883352
C	-0.425036	1.206172	0.706602
N	-0.659841	2.189901	1.303881
N	0.170084	0.956336	-2.328933
O	0.290726	2.091616	-1.878492
O	0.467015	0.614503	-3.474097
Cl	-3.266241	0.0	0.0
