18

C	-0.413973	-0.009927	-1.476166
C	0.0	0.0	0.0
Br	0.335846	1.582233	-2.369477
H	1.095729	0.0	0.0
C	0.156024	-1.233101	-2.185065
H	0.043287	-1.155182	-3.267479
H	1.212752	-1.274399	-1.904396
H	-0.358461	-2.13525	-1.844888
C	-1.865343	0.102815	-1.618991
N	-3.040359	0.138654	-1.675336
C	-0.480229	-1.262436	0.715852
H	0.000651	-2.163725	0.331277
H	-0.190704	-1.171292	1.766138
H	-1.571645	-1.387519	0.669356
N	-0.485779	1.218167	0.640454
H	0.225203	1.525355	1.294073
H	-1.345584	1.045372	1.151706
F	2.661095	0.0	0.0
