18

C	-0.545971	-0.001232	-1.435863
C	0.0	0.0	0.0
Br	0.096068	-1.601722	-2.414664
H	1.099822	0.0	0.0
C	-2.068736	0.015927	-1.524626
H	-2.47825	-0.89578	-1.087536
H	-2.421916	0.884637	-0.964266
H	-2.404538	0.089785	-2.560919
C	-0.010827	1.148167	-2.167951
N	0.356198	2.074849	-2.79045
C	-0.502523	-1.155516	0.845746
H	0.077561	-1.156148	1.772521
H	-1.568194	-1.068616	1.103003
H	-0.340613	-2.119334	0.35908
N	-0.398281	1.306429	0.566232
H	-0.967231	1.178653	1.395892
H	0.463698	1.761791	0.843131
F	2.634151	0.0	0.0
