18

C	-0.546929	0.015405	-1.435466
C	0.0	0.0	0.0
Br	0.124403	-1.556792	-2.440296
H	1.09989	0.0	0.0
C	-2.069516	0.007045	-1.5244
H	-2.438198	0.857488	-0.945468
H	-2.406251	0.096701	-2.559108
H	-2.462499	-0.921584	-1.106787
C	-0.033329	1.186568	-2.149313
N	0.291443	2.13552	-2.762014
C	-0.500289	-1.168056	0.829543
H	-1.563584	-1.081371	1.096235
H	0.087159	-1.187907	1.751459
H	-0.345906	-2.123381	0.324361
N	-0.404904	1.296376	0.584917
H	-0.946564	1.153323	1.42966
H	0.458119	1.76365	0.843622
F	2.636343	0.0	0.0
