17

C	-0.672236	-0.02846	-1.689598
C	0.190441	0.036447	-0.421962
Cl	-0.185291	1.334713	-2.81407
H	1.233539	0.184232	-0.71395
N	-0.293956	-1.30601	-2.438791
O	0.861112	-1.398611	-2.821853
O	-1.163325	-2.163148	-2.580885
N	-2.046837	0.009315	-1.423611
H	-2.14983	0.361881	-0.47452
H	-2.476055	-0.889293	-1.587102
N	0.110273	-1.250878	0.23774
H	0.683911	-1.065045	1.091859
H	-0.840864	-1.32874	0.592363
N	-0.334588	1.094266	0.432321
H	-0.029244	1.995388	0.074681
H	0.189713	0.901223	1.322449
F	1.244592	0.036043	2.230352
