17

C	-0.535402	0.118913	-1.580553
C	0.200152	0.076161	-0.234317
Cl	-2.336527	0.313569	-1.305941
H	1.26715	0.086523	-0.496592
N	-0.177536	1.332848	-2.438226
O	-0.61624	1.337047	-3.584021
O	0.548339	2.198293	-1.957695
N	-0.192987	-1.009275	-2.33663
H	-0.142721	-1.782588	-1.675031
H	-0.830715	-1.170358	-3.10297
N	-0.056305	-1.233255	0.348046
H	-0.988319	-1.163445	0.753243
H	0.597009	-1.195487	1.172874
N	-0.159489	1.126785	0.694088
H	0.385095	0.822735	1.524868
H	0.241825	1.998626	0.366528
F	1.461254	-0.349784	2.254485
