17

C	-0.540771	-0.182872	-1.429157
C	0.040481	-0.212292	0.00914
Cl	0.497443	0.863334	-2.490543
H	1.123854	-0.355765	-0.05989
N	-0.445268	-1.543846	-2.108047
O	-1.319233	-1.83121	-2.921643
O	0.517056	-2.254602	-1.82963
N	-1.884648	0.202746	-1.366195
H	-2.259481	0.452395	-2.270046
H	-1.872755	0.985438	-0.704454
N	-0.549838	-1.296408	0.788086
H	-0.211741	-2.186482	0.444184
H	-1.556592	-1.264702	0.665848
N	-0.288343	1.074328	0.580621
H	-0.352875	0.902223	1.578825
H	0.660789	1.630546	0.443175
F	2.029422	1.929961	0.267275
