15

C	0.0	0.0	0.0
C	-0.523048	0.16644	-1.419023
Br	1.94841	0.0	0.0
H	-1.618757	0.195694	-1.359005
H	-0.105523	1.053535	-1.881797
N	-0.315934	1.350828	0.752771
O	-0.382068	2.380631	0.095176
O	-0.42733	1.257414	1.96694
N	-0.525541	-1.11181	0.641305
H	-0.28786	-1.097668	1.625605
H	-1.549167	-1.071434	0.527739
N	-0.129279	-0.992867	-2.263401
O	0.817506	-0.826955	-3.038293
O	-0.779908	-2.028326	-2.152541
Cl	-3.514247	0.0	0.0
