15

C	0.0	0.0	0.0
C	-0.537013	-0.101167	-1.417388
Br	1.935818	0.0	0.0
H	-0.203203	0.740091	-2.013466
H	-1.63126	-0.149189	-1.340863
N	-0.313024	1.479964	0.483076
O	-0.338672	2.375136	-0.350749
O	-0.457498	1.611804	1.690257
N	-0.521809	-0.958744	0.854708
H	-1.544323	-0.959795	0.739506
H	-0.285153	-0.743827	1.815695
N	-0.049161	-1.329189	-2.095393
O	-0.49955	-2.409459	-1.726796
O	0.768632	-1.17571	-3.006905
Cl	-3.524357	0.0	0.0
