15

C	0.0	0.0	0.0
C	-0.490498	0.077839	-1.447377
Br	1.95074	0.0	0.0
H	-1.588647	0.015478	-1.398966
H	-0.159089	0.981887	-1.944014
N	-0.364215	1.363977	0.650695
O	-0.60784	1.362673	1.844226
O	-0.31792	2.347422	-0.080526
N	-0.494991	-1.019568	0.83212
H	-1.512398	-0.876096	0.883745
H	-0.328034	-1.905287	0.368687
N	0.008187	-1.056492	-2.264804
O	0.443783	-0.786463	-3.383748
O	-0.067102	-2.196317	-1.804984
Cl	-3.477371	0.0	0.0
