15

C	0.0	0.0	0.0
C	-0.481884	0.128805	-1.447475
Br	1.955828	0.0	0.0
H	-0.145535	1.048848	-1.910346
H	-1.579869	0.063536	-1.410851
N	-0.36617	1.336244	0.698603
O	-0.587941	1.293131	1.896024
O	-0.344558	2.343476	-0.000177
N	-0.495644	-1.050128	0.791848
H	-0.339176	-1.915952	0.288698
H	-1.51251	-0.901126	0.85326
N	0.025236	-0.977059	-2.299743
O	0.481254	-0.667202	-3.399704
O	-0.062912	-2.13295	-1.884084
Cl	-3.467381	0.0	0.0
