17

C	0.0	0.0	0.0
C	-0.489275	-0.171624	-1.464149
Cl	1.795913	0.0	0.0
H	-1.580611	-0.224929	-1.405441
N	-0.447369	1.317336	0.403775
H	-1.470188	1.25377	0.445431
H	-0.111507	1.498681	1.344507
N	-0.427503	-1.140685	0.764261
H	-1.446434	-1.182164	0.68398
H	-0.196844	-0.98974	1.740958
N	-0.047441	-1.500991	-2.002033
O	-0.80312	-2.456376	-1.849905
O	1.042183	-1.542645	-2.572929
N	-0.086841	0.841377	-2.394016
H	-0.527852	1.702425	-2.094292
H	0.916835	0.968886	-2.326258
Br	-3.719932	0.0	0.0
