17

C	0.0	0.0	0.0
C	-0.368269	0.516738	-1.412897
Cl	1.823834	0.0	0.0
H	0.042372	-0.193939	-2.127705
N	-0.54353	0.835077	0.999828
H	-0.221631	1.790469	0.937976
H	-0.452246	0.450645	1.929078
N	-0.466333	-1.357353	0.071208
H	-0.120804	-1.791352	0.919983
H	-1.485525	-1.306448	0.125338
N	0.394343	1.806339	-1.725506
O	0.99157	1.855086	-2.796702
O	0.303896	2.741727	-0.931402
N	-1.73706	0.776194	-1.627136
H	-2.194843	0.047874	-2.152558
H	-2.277671	0.922053	-0.777746
Br	-4.47259	0.0	0.0
