17

C	0.0	0.0	0.0
C	-0.504674	-0.30185	-1.415375
Cl	1.851926	0.0	0.0
H	-1.598894	-0.33249	-1.314503
N	-0.467831	1.295983	0.309857
H	-0.196142	1.970526	-0.391695
H	-0.202668	1.582476	1.241506
N	-0.425393	-1.02329	0.898844
H	-0.142892	-0.775852	1.840855
H	-1.450969	-1.013891	0.861105
N	-0.077899	-1.698513	-1.838492
O	0.927512	-1.7902	-2.548265
O	-0.769265	-2.64073	-1.470739
N	-0.083015	0.697465	-2.339429
H	0.867253	0.502621	-2.632021
H	-0.690083	0.694706	-3.147797
Br	-3.843696	0.0	0.0
