16

C	0.0	0.0	0.0
C	-0.539843	0.501012	-1.324139
F	1.363294	0.0	0.0
H	-1.537649	0.899705	-1.138562
H	-0.682722	-0.393506	-1.93609
N	-0.245866	1.075777	1.128264
O	-0.219515	0.656322	2.283745
O	-0.355552	2.25513	0.810677
N	-0.523234	-1.237303	0.368243
H	-1.540568	-1.184542	0.242227
H	-0.327652	-1.409699	1.347653
C	0.358889	1.490859	-2.055407
H	-0.124432	1.790447	-2.989197
H	1.325146	1.046938	-2.303383
H	0.528572	2.386289	-1.459734
Cl	-3.626886	0.0	0.0
