16

C	0.0	0.0	0.0
C	-0.518184	0.137409	-1.414329
F	1.389532	0.0	0.0
H	-1.540757	0.511142	-1.349158
H	-0.587909	-0.885884	-1.792572
N	-0.241904	1.317499	0.817015
O	-0.079655	1.219199	2.032421
O	-0.503158	2.357035	0.223099
N	-0.513727	-1.107476	0.66984
H	-1.530721	-1.092933	0.533837
H	-0.315353	-1.025999	1.660278
C	0.353744	0.974182	-2.342754
H	-0.104101	1.004222	-3.334946
H	1.353494	0.547749	-2.444498
H	0.445646	1.99815	-1.983618
Cl	-3.616684	0.0	0.0
