14

C	0.0	0.0	0.0
C	-0.507873	0.06806	-1.444278
Br	1.941746	0.0	0.0
H	-1.584301	0.278769	-1.404175
H	-0.311379	-0.908485	-1.887222
N	-0.418165	1.159327	0.908048
O	-0.468672	2.259866	0.386598
O	-0.563664	0.882827	2.088144
C	-0.428407	-1.260662	0.598142
N	-0.596756	-2.347281	1.015785
N	0.174972	1.04484	-2.343962
O	-0.224083	2.205432	-2.359823
O	1.066845	0.592343	-3.068148
Br	-3.455513	0.0	0.0
