17

C	0.0	0.0	0.0
C	-0.561827	0.327288	-1.376968
F	1.35902	0.0	0.0
H	-1.642231	0.43533	-1.223879
N	-0.361062	1.068127	1.045288
O	-0.057801	0.783765	2.199426
O	-0.828638	2.129387	0.658534
C	-0.438603	-1.298766	0.532419
N	-0.597136	-2.396775	0.918218
C	-0.299323	-0.844784	-2.311891
H	0.773228	-1.039079	-2.402626
H	-0.69727	-0.604495	-3.301731
H	-0.80764	-1.745356	-1.965939
N	0.100209	1.53289	-1.883447
H	-0.444766	2.338105	-1.605503
H	0.103681	1.493765	-2.894497
Br	-3.735813	0.0	0.0
