17

C	0.0	0.0	0.0
C	-0.585168	0.059969	-1.402288
F	1.357535	0.0	0.0
H	-1.667368	0.170833	-1.251104
N	-0.362382	1.2426	0.834162
O	-0.882179	2.196555	0.273838
O	-0.015899	1.189012	2.009706
C	-0.438016	-1.174378	0.770011
N	-0.677295	-2.170658	1.343824
C	-0.306419	-1.254451	-2.117389
H	0.770149	-1.428697	-2.203821
H	-0.775055	-2.092897	-1.601116
H	-0.736375	-1.207986	-3.121764
N	0.039422	1.168087	-2.129481
H	-0.508592	2.002886	-1.969549
H	0.00632	0.958918	-3.118806
Br	-3.806076	0.0	0.0
