17

C	0.0	0.0	0.0
C	-0.495971	0.374463	-1.416545
F	1.347553	0.0	0.0
H	0.048483	-0.36615	-2.020439
N	-0.416766	0.956824	1.116182
O	0.088686	0.71951	2.209331
O	-1.17657	1.875413	0.840678
C	-0.462042	-1.340101	0.386642
N	-0.754615	-2.453432	0.618673
C	-0.013688	1.759568	-1.842539
H	-0.646017	2.533343	-1.410878
H	-0.099888	1.816223	-2.929084
H	1.026165	1.940227	-1.559675
N	-1.892979	0.216215	-1.684442
H	-2.500827	0.774446	-1.090821
H	-2.221992	-0.734732	-1.570316
Br	-4.743307	0.0	0.0
