17

C	0.0	0.0	0.0
C	-0.457934	0.146603	-1.469785
F	1.381852	0.0	0.0
H	0.0196	-0.734591	-1.92166
N	-0.402514	1.126198	0.937822
O	-1.035214	2.068266	0.478389
O	-0.005915	0.999699	2.092592
C	-0.460156	-1.258615	0.591522
N	-0.780621	-2.317813	0.989023
C	0.143264	1.381882	-2.138358
H	0.001291	1.267933	-3.213857
H	1.211172	1.482893	-1.931367
H	-0.375826	2.282733	-1.817598
N	-1.863768	0.071488	-1.73002
H	-2.379541	0.850783	-1.338249
H	-2.319083	-0.742406	-1.331023
Br	-4.671448	0.0	0.0
