17

C	0.0	0.0	0.0
C	-0.561961	-0.167203	-1.402992
F	1.367598	0.0	0.0
H	-1.620894	0.096253	-1.312504
N	-0.348497	1.386778	0.57218
O	0.061983	1.582638	1.711829
O	-0.920922	2.190886	-0.144504
C	-0.436599	-1.006221	0.974147
N	-0.6178	-1.891037	1.724891
C	-0.459917	-1.620498	-1.84369
H	-0.836884	-1.703771	-2.865584
H	-1.071997	-2.261927	-1.209315
H	0.577627	-1.97029	-1.821052
N	0.163669	0.750663	-2.280125
H	-0.487989	1.390545	-2.709434
H	0.645363	0.237563	-3.004457
Br	-3.732013	0.0	0.0
