17

C	0.0	0.0	0.0
C	-0.486433	0.162084	-1.460222
F	1.354675	0.0	0.0
H	0.106958	-0.620389	-1.953994
N	-0.41776	1.12242	0.952543
O	0.162242	1.122345	2.033224
O	-1.264605	1.917719	0.571143
C	-0.458616	-1.262173	0.59628
N	-0.753036	-2.318116	1.017928
C	-0.054678	1.506404	-2.04316
H	-0.742948	2.292067	-1.735017
H	0.961234	1.777254	-1.7443
H	-0.095889	1.426769	-3.130857
N	-1.86621	-0.097974	-1.731632
H	-2.519991	0.48137	-1.208259
H	-2.135959	-1.050709	-1.522766
Br	-4.702609	0.0	0.0
