16

C	0.0	0.0	0.0
C	-0.3123	-0.264134	-1.49974
F	1.399533	0.0	0.0
H	0.224397	0.522561	-2.040895
N	-0.506972	1.280946	0.367789
H	-1.525038	1.220098	0.320418
H	-0.254599	1.476972	1.331296
N	-0.487607	-1.074433	0.795518
H	-0.657677	-0.809758	1.754362
H	0.106177	-1.890642	0.738301
N	-1.687407	-0.280203	-1.919272
H	-2.275621	-0.778924	-1.25469
H	-2.064319	0.658153	-1.944534
C	0.325746	-1.547374	-1.861118
N	0.829499	-2.570161	-2.139947
Br	-4.367317	0.0	0.0
