16

C	0.0	0.0	0.0
C	-0.388217	0.097268	-1.492985
F	1.422185	0.0	0.0
H	0.308298	0.81711	-1.936758
N	-0.453308	1.166219	0.670814
H	-0.748457	0.954252	1.615013
H	-1.258236	1.531552	0.166866
N	-0.477246	-1.216648	0.558734
H	0.069038	-2.007378	0.23746
H	-0.481734	-1.191393	1.568526
N	-1.731167	0.608953	-1.622626
H	-2.442253	0.085024	-1.099815
H	-2.025655	0.665803	-2.5882
C	-0.148639	-1.205649	-2.159824
N	-0.043884	-2.216969	-2.749469
Br	-4.64745	0.0	0.0
