10
Coordinates from ORCA-job run
  C   0.71301648450165     -0.08998829291112      0.03328618321129
  C   -0.61285721009502      0.08544743745134     -0.08269931035997
  H   1.25100915499438     -0.50558275933472     -0.81428342183073
  H   -1.18816622697844      0.50354367424359      0.74904077041000
  N   1.50953052263067      0.30790198084253      1.11088563203591
  H   0.98035738585689      0.50233331137292      1.94880770740974
  H   2.26702189305242     -0.32898375347280      1.30385912492970
  N   -1.26099242785520     -0.24241202767667     -1.31900785517072
  H   -1.59029842980686      0.59583802603208     -1.78223954987767
  H   -2.06862114630048     -0.82809759654714     -1.14864928075755
