10
Coordinates from ORCA-job run
  C   0.61484310650643     -0.07236438245241      0.07856845723935
  C   -0.70727336341360      0.12779355810201     -0.04130738695372
  H   1.22333913116519     -0.27855673831825     -0.80729000140516
  H   -1.27799711368768      0.33090746280597      0.86063079729065
  N   1.22665624066336      0.02033630953614      1.37221995491078
  H   1.79318167661600     -0.79860508255268      1.55312876668689
  H   1.83945746895662      0.82525290716591      1.41945140575677
  N   -1.42712196716650      0.20726774055762     -1.23706010523101
  H   -0.93160477776532     -0.17922378785356     -2.02761835037466
  H   -2.35448040187449     -0.18280798699074     -1.16972353791990
