10
Coordinates from ORCA-job run
  C   0.64995093821854     -0.12963713184207      0.10495874772459
  C   -0.64988498752001      0.12984797437137     -0.10502899942849
  H   1.29104237256818     -0.35662227016831     -0.74586949759821
  H   -1.29089686905237      0.35710028062359      0.74578372987238
  N   1.23204878209100     -0.16745863960788      1.40135747939170
  H   2.18631093007849     -0.49002788066132      1.36528331949750
  H   1.21036056816693      0.73539512972322      1.85373060222982
  N   -1.23211119833243      0.16728692556688     -1.40138983155944
  H   -2.18639088047301      0.48980519531971     -1.36529284094855
  H   -1.21042965574531     -0.73568958332519     -1.85353270918131
