10
Coordinates from ORCA-job run
  C   -0.28088985678245     -0.52376967002043     -0.76114018852378
  C   0.62982927522039     -0.58052397260929      0.22707955341057
  H   -0.33106737890989     -1.31101206940366     -1.50755752818760
  H   1.31679271422420     -1.42100203999914      0.29299994090714
  N   -1.12528317980340      0.56691162980874     -0.96466856882497
  H   -1.19249018013922      1.11587160247998     -0.11598778545689
  H   -2.03166122157763      0.31192251476258     -1.32601543153052
  N   0.69128326282182      0.49678620797997      1.17137415135839
  H   0.94317190086328      0.15809128768750      2.08968968232133
  H   1.38031466408290      1.18672450931375      0.89522617452634
