10
Coordinates from ORCA-job run
  C   0.58321420255861     -0.60285486018132      0.28605716684387
  C   -0.66675140965749     -0.66749971167157     -0.20650620477580
  H   1.10538211427392     -1.51059090966499      0.57935491070332
  H   -1.16910725370245     -1.62521906903648     -0.30559309041530
  N   1.19913561725669      0.68303869817637      0.43830516938374
  H   2.19393798849799      0.62933753291610      0.26816413607417
  H   1.06354603531235      1.04524260384276      1.37503451470328
  N   -1.43097912481447      0.45845480068705     -0.51014438635639
  H   -0.82844610582381      1.26392779294129     -0.62972829304031
  H   -2.04893206390134      0.32516312199080     -1.29594392312058
