10
Coordinates from ORCA-job run
  C   0.67305974358223     -0.03241661569611     -0.01066800604429
  C   -0.66979729597531     -0.07632640280280      0.00777767126570
  H   1.20618046771606      0.00792469864307     -0.95942915849515
  H   -1.20276453508855     -0.12175321403921      0.95639619318277
  N   1.51210380340303     -0.18993193983204      1.11802100077906
  H   2.21653792118546      0.53396138609661      1.16767243019249
  H   0.97918187316153     -0.19509096279638      1.97792347969187
  N   -1.49884271058585     -0.22681425627427     -1.12924991367112
  H   -2.24854702960935      0.45180400362961     -1.14122967440908
  H   -0.96811223778925     -0.15135669692848     -1.98721402249224
