10
Coordinates from ORCA-job run
  C   -0.50842506926477     -0.61993143242533     -0.37974932005542
  C   0.53559566522897     -0.65394851544274      0.46737602874877
  H   -0.98037940516284     -1.54291072585568     -0.70802227424305
  H   0.90896793031952     -1.60215377223443      0.84241494692441
  N   -0.99884056115952      0.65261565750840     -0.82071016217906
  H   -1.35970249775725      0.59516001572668     -1.76277508580891
  H   -1.74440225059058      0.98670028961221     -0.22117707331371
  N   1.12509970418410      0.49173927762859      1.00215428916798
  H   0.90360946734299      1.29432332542796      0.42484453965106
  H   2.11747701685938      0.39740588005434      1.15564411110794
