10
Coordinates from ORCA-job run
  C   -0.64164719231943      0.19078585097369     -0.05653336152309
  C   0.64152682145994     -0.19068217799447      0.05663507128446
  H   -1.17531221890351      0.57840385953037      0.80935324692021
  H   1.17543698409268     -0.57804799840072     -0.80922232783600
  N   -1.38472258009307      0.23765451208457     -1.26068067654127
  H   -2.28858003548539     -0.20435047907574     -1.15940178322260
  H   -0.88653258408659     -0.20936684721008     -2.01908661756451
  N   1.38467327575729     -0.23789116024484      1.26080361406127
  H   2.28799010067661      0.20527617060874      1.15958117455636
  H   0.88616742890148      0.20821826972848      2.01955165986518
