10
Coordinates from ORCA-job run
  C   0.63895257508972     -0.20724711121077      0.05661488113925
  C   -0.59671333798380      0.29664765687107     -0.09988758352269
  H   1.09293283825134     -0.79864605749792     -0.73721614421874
  H   -1.04863429980792      0.89350100673095      0.69099806852060
  N   1.51221501257289      0.08623357036722      1.13070005958660
  H   1.90968352895726     -0.75185550348724      1.53350290788773
  H   1.04427091578532      0.61455598719065      1.85546776981562
  N   -1.34958373670738      0.25834727837457     -1.29741828413575
  H   -2.29435499030335     -0.06543510162544     -1.13882853147998
  H   -0.90876850585408     -0.32810172571308     -1.99393314359266
