10
Coordinates from ORCA-job run
  C   -0.54710712392799      0.24178382872552     -0.17979449423092
  C   0.64272482394154     -0.28914405513804      0.14449767847654
  H   -0.96384591738420      1.06230955816219      0.41234861341555
  H   1.02455515126532     -1.10114218195696     -0.46819301141036
  N   -1.24884401449348     -0.25220556147095     -1.32860177860838
  H   -1.28509700286592      0.45297229161750     -2.05455799816970
  H   -2.20409739566975     -0.48211026780274     -1.08582427309542
  N   1.50889665257169      0.16803382764221      1.14160199837349
  H   2.01119489072564     -0.57335867231422      1.60477684026148
  H   1.06061993583715      0.77386123253550      1.81374642498772
