10
Coordinates from ORCA-job run
  C   -0.42379299474329      0.26622889359748     -0.37367208508863
  C   0.48117357279674     -0.36129898685078      0.39425781670285
  H   -0.31255751086262      1.33165131417261     -0.59743317901612
  H   0.33658022967700     -1.41953386564075      0.59383082999205
  N   -1.51867981664675     -0.47907307429487     -0.92343686079511
  H   -2.39543571561499     -0.01371924541273     -0.72564392404975
  H   -1.43448372158371     -0.54482422780185     -1.93053885908456
  N   1.66870794217198      0.18483006106795      0.88927714547164
  H   1.91390232929027     -0.15858529978017      1.80498678326091
  H   1.68458568551537      1.19432443094309      0.86737233260674
