14
Coordinates from ORCA-job run
  C   -0.74339970302586     -0.04314575697820      0.70568412356185
  C   0.34119763902990     -0.45190168900400     -0.27856167028011
  Cl  -0.11751698031180      1.21611749279439      1.85322843185222
  H   0.04156960755977     -1.37096227439120     -0.78120062893703
  H   -0.91703699601638     -0.91947281712404      1.33064533486966
  N   -1.92626752064664      0.28703752822491     -0.00048462365964
  H   -1.84537010788846      1.19290248276471     -0.44421835540793
  H   -2.72968112137756      0.28241846233742      0.61269981501464
  N   1.62421255858780     -0.75506160467614      0.44437854715506
  O   1.54890677355910     -1.72454801717008      1.18971133775043
  O   2.58781514073352     -0.02675576900602      0.26145249549031
  N   0.63298763632035      0.53745575936628     -1.36048311991623
  O   1.26565205955486      0.08526605487892     -2.30826784112247
  O   0.23593101392139      1.69065014798306     -1.22558384637075
