14
Coordinates from ORCA-job run
  C   -0.87100784924327     -0.07119052107935      0.46196657297265
  C   0.59264152926107      0.04778233265657      0.09607444028243
  Cl  -0.91168822999159     -0.28990713735482      2.27273841590578
  H   1.10740236326667      0.85609685982206      0.61038305507103
  H   -1.26548926583134     -0.99492882133205      0.04354193438353
  N   -1.57359668117756      1.04807164452023     -0.03311992300492
  H   -1.31928284862874      1.90881149249460      0.43452684270721
  H   -2.57437942232760      0.91866513983434      0.01409341413923
  N   0.70214075843556      0.30525780003674     -1.38042530612037
  O   0.30501134742470     -0.58805013939891     -2.11818706336934
  O   1.15196266042539      1.39780611720350     -1.70423367623383
  N   1.35676651811603     -1.21132907482409      0.37758239340638
  O   0.75969392066574     -2.27493639545420      0.26190228409145
  O   2.54082519960493     -1.05314929712462      0.66415661576878
