14
Coordinates from ORCA-job run
  C   -0.73371384669568     -0.01841102535132      0.69569826140389
  C   0.30697584985869     -0.39164518187211     -0.35310059838877
  Cl  -0.05834026036932      1.22988790311863      1.81595486007897
  H   -0.17481503521297     -1.01239077118773     -1.10900517407520
  H   -0.88341755929930     -0.89581616529746      1.32153475968008
  N   -1.95967074382941      0.32529158407361      0.04737556633838
  H   -1.86946741653567      1.20684740676048     -0.44719203632489
  H   -2.68134655600251      0.44226480921418      0.74986372298127
  N   1.45243711789687     -1.21141173709438      0.18476417801889
  O   1.31375796819562     -1.71298286158075      1.29503548656805
  O   2.41863730837167     -1.32294318383630     -0.55680118136178
  N   0.84181034373255      0.82260647374345     -1.04079639722602
  O   1.90883873234196      1.28744706668319     -0.66745376946967
  O   0.11631409754750      1.25225568262653     -1.93687767822321
