14
Coordinates from ORCA-job run
  C   -0.70918731480873      0.08258273622666      0.82264710129981
  C   0.29477143408694     -0.41927771386647     -0.22384945868932
  Cl  0.04856142562019      1.33775353816055      1.83664906378821
  H   -0.08480504720720     -1.33070714877899     -0.68779335489750
  H   -0.88238991701912     -0.77170514428354      1.48007178462783
  N   -1.95893857702057      0.53275357913943      0.30575019381766
  H   -2.53520390091638     -0.22707081157612     -0.02765581573458
  H   -1.85124059897536      1.25826077495402     -0.38809588158710
  N   1.59768643964678     -0.79677834404378      0.42338882790773
  O   2.58705293223014     -0.11792255065944      0.19323146725501
  O   1.50861924597937     -1.76122078669526      1.17491466855848
  N   0.58584421899526      0.51828952494168     -1.35259537298581
  O   1.15147785184552      0.00114878986919     -2.31040382556244
  O   0.24775180754316      1.69289355661208     -1.24625939779799
