14
Coordinates from ORCA-job run
  C   -0.87336853065080     -0.15758808485910      0.43612213494086
  C   0.57945053022122      0.11935960610202      0.11454475623881
  Cl  -0.95443016569697     -0.31995307383096      2.25184736412737
  H   0.97924248953821      0.99605794876265      0.61897184049491
  H   -1.14282332470174     -1.13441687855813      0.03970994585556
  N   -1.68210648659176      0.85475823080949     -0.12245531431696
  H   -2.66216692467041      0.61057035896579     -0.10408103935567
  H   -1.54690981457157      1.75450521058035      0.32064258556151
  N   0.71193585977485      0.34494601876705     -1.36478557673770
  O   0.45599584437408     -0.61258613075333     -2.08436922368665
  O   1.03437313098355      1.47502942413492     -1.71052357456912
  N   1.47277854409483     -1.03410297590792      0.46194622345242
  O   1.00392160695688     -2.16241907365476      0.37288183559810
  O   2.62310724093962     -0.73116058055807      0.76854804239656
