14
Coordinates from ORCA-job run
  C   1.10383604843610      0.32442453221098      0.23529420935840
  C   -0.22539318260084      0.17213482510317      0.08546079671969
  H   1.50288791387079      1.27697868024910      0.57730229640552
  N   2.07015684783762     -0.68483094203070      0.08703106621882
  H   2.99221023603820     -0.31779080723722     -0.08858147958437
  H   1.83028572479014     -1.37124132326602     -0.61233502232890
  C   -1.16559691588085      1.32327329080319      0.30192831165048
  H   -1.73842735736753      1.54576695468803     -0.60580436454824
  H   -0.63081911698120      2.23203270858985      0.58958015096926
  H   -1.89436931011489      1.09717307443816      1.08882663865299
  C   -0.83245650398276     -1.13946145694512     -0.33423209398868
  H   -0.21639398174490     -1.99065532275575     -0.03159634889406
  H   -1.81487246351584     -1.27148331424822      0.12793154369460
  H   -0.98104793878403     -1.19632089959945     -1.41980570432552
