14
Coordinates from ORCA-job run
  C   1.09729368124522      0.36207788662314     -0.20601600647915
  C   -0.22570075294271      0.19257844132101     -0.02318964429793
  H   1.50508494711327      1.36551481320698     -0.30822968495861
  N   2.04004550462001     -0.66391984583841     -0.38753635935954
  H   1.81866129898710     -1.50753836850650      0.11951374637539
  H   2.98099412077017     -0.36932295426330     -0.17891193313471
  C   -1.14376571616614      1.37153113045245      0.12851971890758
  H   -0.60027359648398      2.31711112744340      0.05750642024168
  H   -1.92155034905805      1.37039483277160     -0.64374902147989
  H   -1.65836506515438      1.35381231353192      1.09624642923836
  C   -0.84230716114580     -1.17727080504127      0.07089299073914
  H   -1.86072786573601     -1.16728320347625     -0.32737755086846
  H   -0.90918806076862     -1.53009465504627      1.10761415858491
  H   -0.27820098528009     -1.91759071317850     -0.50328326350877
