14
Coordinates from ORCA-job run
  C   1.05005234264670     -0.52175543100981     -0.05280111275831
  C   -0.24509187111526     -0.16503027822098      0.03562415838533
  H   1.34801544452460     -1.54059526818775      0.18555173194456
  N   2.09363931263660      0.28516884210311     -0.53674387166066
  H   1.96936793955654      1.26606431394535     -0.33623899563466
  H   3.00076525727498     -0.02194634899028     -0.22289935293563
  C   -0.71202226069594      1.21730377491177     -0.33407391276870
  H   -1.73087248776935      1.18452996340045     -0.73001402609033
  H   -0.72771411732782      1.89313731859130      0.53007398092870
  H   -0.08025964250506      1.66748840969908     -1.10490121580222
  C   -1.28070383424140     -1.12798848360859      0.54159763265579
  H   -2.06395807448646     -1.29706019455126     -0.20625113752558
  H   -0.84127866825506     -2.09644804603654      0.79366905693668
  H   -1.77793934024308     -0.74286857204585      1.43940706432504
