14
Coordinates from ORCA-job run
  C   1.07272940144563      0.34619678500362      0.32704237512737
  C   -0.22794153031191      0.19391947280880      0.01505047176135
  H   1.46986981180230      1.33855584571763      0.52965418881936
  N   1.99407377134755     -0.69599928789335      0.52593592855384
  H   2.95065431672794     -0.39564267997254      0.42359796881396
  H   1.81827507106259     -1.50284528526765     -0.05380252070795
  C   -0.82615379989230     -1.16719434586100     -0.22117154137480
  H   -0.33352735393307     -1.93624851005018      0.38077057815885
  H   -0.76361135618062     -1.46962618169744     -1.27410193456286
  H   -1.88562260918930     -1.17363078767967      0.04891326937051
  C   -1.13256231109341      1.38218675253885     -0.14273647328912
  H   -1.97720434293520      1.33315332717804      0.55404017868078
  H   -1.55699868135233      1.42825956964459     -1.15238254348705
  H   -0.60098038749787      2.31991532553031      0.03819005413576
