14
Coordinates from ORCA-job run
  C   1.04553547657952     -0.24918587253702      0.47047559670574
  C   -0.24329439550149     -0.14256707716591      0.09628844743174
  H   1.35574064461686     -1.06865343723349      1.11543373522976
  N   2.06314830487003      0.67808995814065      0.18907273287766
  H   1.94933940669074      1.14220940423773     -0.69949875491371
  H   2.98485214431342      0.27584993700407      0.25570552888197
  C   -1.25146632332693     -1.18561041527959      0.48538201648062
  H   -0.79908351614032     -1.97792686180416      1.08718797705543
  H   -1.70269361463412     -1.65278748392022     -0.39763318611758
  H   -2.07145531802114     -0.74733139768648      1.06582927128327
  C   -0.72859482383637      1.00330024513503     -0.75069157953667
  H   -0.69927791325660      0.76700758714046     -1.82170724270073
  H   -1.76655036202076      1.24700456416438     -0.50746183788723
  H   -0.13719971033283      1.90860084980456     -0.58738270479025
