14
Coordinates from ORCA-job run
  C   1.07427770843172      0.28138309198063      0.37879654129439
  C   -0.22554423628462      0.19026202616953      0.04022947579684
  H   1.47834440931717      1.23083122479052      0.72376612218695
  N   1.98681426243723     -0.78579517861519      0.43336720853342
  H   1.80963705427566     -1.50156727876608     -0.25525315393971
  H   2.94573938056615     -0.48043455674998      0.37865233112442
  C   -0.84076498178505     -1.11409647528114     -0.39111284601410
  H   -0.80778922249159     -1.24661962591021     -1.47974406733562
  H   -0.34153780791563     -1.97113744974151      0.06958219305439
  H   -1.89334785917504     -1.15701205492143     -0.09762934574996
  C   -1.11488747582553      1.40052016184911      0.04953136300705
  H   -1.53286326541863      1.59564809078206     -0.94485219431141
  H   -1.96408712036953      1.26323456019416      0.72879732960369
  H   -0.57299084576229      2.29578346421953      0.36486904274964
