14
Coordinates from ORCA-job run
  C   1.06124385640039     -0.38036673563822      0.33017362724271
  C   -0.23715430661819     -0.16820516810754      0.04412444619605
  H   1.34142849729047     -1.21790522560172      0.96557150818793
  N   2.15172427811703      0.32907856503513     -0.20069631519208
  H   1.94639453653288      1.29842105598427     -0.39016031352098
  H   2.97834242375552      0.25472360377303      0.37110377665435
  C   -0.68293197336755      0.94073026897106     -0.87026957821128
  H   -1.55638632331069      0.62944322730144     -1.45052010353631
  H   -0.97490197370317      1.83999977989637     -0.31377998187036
  H   0.09497096559898      1.22170352958129     -1.58519752526831
  C   -1.31264973679457     -1.02008486285407      0.65556594602610
  H   -1.90632034394097     -1.52341663840263     -0.11619512539794
  H   -0.89497364433569     -1.78718973879670      1.31254778734868
  H   -2.00978625562444     -0.41593166114170      1.24773185134145
