14
Coordinates from ORCA-job run
  C   1.11529652183987      0.35863088595580      0.17663488206876
  C   -0.21136165382511      0.18813284836650      0.01319624022961
  H   1.50300358802168      1.35256239445867      0.39066567207460
  N   2.09916538308635     -0.63963891560504      0.21140699348098
  H   1.79862335943610     -1.52136991754464     -0.17651245222092
  H   2.97237140998319     -0.34820483168056     -0.20169725880905
  C   -1.15617503075293      1.34551486418381      0.17616219977101
  H   -1.85541700906411      1.17335200718591      1.00283404556133
  H   -0.62129211628236      2.27596016570173      0.38221270847189
  H   -1.76162090737193      1.49458417823777     -0.72512910522205
  C   -0.83740612716394     -1.15316374541072     -0.25700485409297
  H   -1.71851894075138     -1.04264036161006     -0.89575722092081
  H   -1.16837983368161     -1.63942907362309      0.66815026793019
  H   -0.15828864347381     -1.84429049861606     -0.76516211832255
