14
Coordinates from ORCA-job run
  C   1.10184511102585      0.33420524865940      0.27845412698179
  C   -0.20083045171911      0.19624000597918     -0.03746613756245
  H   1.51074116044083      1.33075177834753      0.43248253481755
  N   2.07057971387134     -0.67768153126313      0.33664132021747
  H   2.75406492461122     -0.52885775172767      1.06381195057134
  H   1.68457160903161     -1.60812950843029      0.39598023751440
  C   -0.84378407537969     -1.13942723884679     -0.29557888813331
  H   -0.34789459536879     -1.95885906213957      0.23329620623013
  H   -1.88725561867197     -1.13176230305959      0.03257788077097
  H   -0.84292508758905     -1.38988367229580     -1.36290301832273
  C   -1.07279910330242      1.40532121668263     -0.22866356118367
  H   -0.52562660293000      2.33112602130855     -0.03431058547918
  H   -1.94190268166644      1.37836060387904      0.43845290996483
  H   -1.46078430235337      1.45659619290651     -1.25277497638714
