14
Coordinates from ORCA-job run
  C   1.05426110390912     -0.29247601027795      0.42420330470001
  C   -0.24281417802823     -0.14426073617418      0.09527983541600
  H   1.36951994540396     -1.15527571787745      1.00714905237998
  N   2.07766572106713      0.63715577250360      0.17279466879903
  H   2.99479942673964      0.21970854662266      0.18951192891145
  H   1.94726792886926      1.15690595721684     -0.68199090119438
  C   -1.25545309954119     -1.19721069339397      0.44364161776981
  H   -0.79961933459409     -2.03184171703037      0.98232808298092
  H   -2.05463811270385     -0.78663095182132      1.07137260317222
  H   -1.73484946190378     -1.60164019484193     -0.45538068865731
  C   -0.73354874447605      1.05939964095801     -0.66358552246532
  H   -0.12377112720586      1.94446461036091     -0.46171589672747
  H   -1.76003231506012      1.30211510477409     -0.37491702224126
  H   -0.73878775247595      0.89058638898107     -1.74769106284368
