15

C	0.0	0.0	0.0
C	-0.473455	0.025502	-1.481377
F	1.354927	0.0	0.0
H	0.464368	0.030046	-2.053268
H	-0.383202	0.844321	0.563813
N	-0.346965	-1.200588	0.84412
O	-0.795672	-0.979172	1.966289
O	-0.034301	-2.306011	0.412388
N	-1.204074	1.260803	-1.776611
H	-2.013114	1.160704	-1.14037
H	-0.652277	2.064038	-1.483512
N	-1.258955	-1.132889	-1.848642
H	-1.599373	-0.9188	-2.780801
H	-2.066527	-1.02628	-1.211657
F	-2.699909	0.0	0.0
