17
Coordinates from ORCA-job run
  C   0.95682875713349     -0.09427485786274     -0.05165878360401
  C   -0.38859312198302      0.10693183507768     -0.75371690961847
  Cl  2.26935532249994     -0.31358271678068     -1.21295939106626
  H   -0.25225313698599      0.93624018544755     -1.45220542688414
  N   1.26706413321343      1.25549603689052      0.67440654228127
  O   1.40316592082456      1.20879818187571      1.89366783199971
  O   1.29622661208968      2.26346781852034     -0.01753436519004
  N   0.92760171923812     -1.18895942886067      0.84446022586186
  H   0.40024591540872     -0.94556441996417      1.67421973433537
  H   1.86322367788972     -1.44757287221648      1.13116568856887
  C   -1.47879881320428      0.47570141860996      0.25811679749343
  H   -2.41120583774621      0.65512905980243     -0.28213863333001
  H   -1.25315193854738      1.38131502519431      0.82701908383266
  H   -1.66206577208036     -0.34775827151839      0.95399412938616
  N   -0.65726993430257     -1.09275127677019     -1.52497716409551
  H   -1.50501353970724     -0.97263895541464     -2.06437655847571
  H   -0.77435996374060     -1.87997676203053     -0.89848280149519
