17
Coordinates from ORCA-job run
  C   0.86080969006832     -0.22461376314132      0.00532266150974
  C   -0.50781781745049     -0.14772595537711     -0.70314656030879
  Cl  2.00392748265826     -1.20400990284906     -0.93593708807505
  H   -0.31523026261896      0.26678386548923     -1.69533627807555
  N   1.45211211920900      1.21838292742636     -0.01063419527365
  O   1.69032261293804      1.72900815417642      1.08051505476385
  O   1.57402436033393      1.75548656323894     -1.10341201666980
  N   0.75994626237974     -0.75718067888139      1.30831998608681
  H   1.67493605833775     -0.92882443878508      1.70637038777168
  H   0.26770288657759     -0.11060932084767      1.91267846873467
  C   -1.45019239303164      0.77862085915464      0.05784264500278
  H   -1.74062008060300      0.33823404332177      1.01598372793324
  H   -1.02484777490063      1.76841067306586      0.23685739128554
  H   -2.35991415636674      0.89568162044258     -0.53082939319407
  N   -1.13656265363625     -1.44213399154614     -0.86275627429702
  H   -1.13814598133419     -1.92310643465029      0.03018970319300
  H   -0.61045035256074     -2.01140422023775     -1.51402822038738
