17
Coordinates from ORCA-job run
  C   0.89154063175152      0.03272598080113      0.15653333709566
  C   -0.39308865188738      0.09900650627984     -0.67391986466552
  Cl  2.31277326719442     -0.08678194216008     -1.02892064960833
  H   -0.26116124253361      0.89756886005255     -1.41026786722967
  N   1.17927829225147      1.35499808913454      0.85689425536197
  O   0.79109226667705      2.37609216066642      0.30147722913144
  O   1.79593139864995      1.29237734082635      1.91311097351073
  N   0.83657523615008     -0.98034516061260      1.09971972070442
  H   0.51576102812696     -1.83248155590217      0.65572288284051
  H   1.69029206088595     -1.09588031461744      1.62622681761339
  C   -1.60078524328198      0.40260981763656      0.20185004218444
  H   -1.74742511120018     -0.39038070166024      0.93542656549500
  H   -2.49242404896491      0.47394675695496     -0.42752728020307
  H   -1.49006695066913      1.35422917140270      0.72032947008161
  N   -0.55392743218551     -1.22767264648855     -1.27184116748641
  H   0.03987297538389     -1.31858175849103     -2.08750995768224
  H   -1.51323847634861     -1.35043060382289     -1.57030450714389
