17
Coordinates from ORCA-job run
  C   0.77058016490734      0.24143803006669      0.10593422602547
  C   -0.67263295085306     -0.25426185756342     -0.15135975907580
  Cl  0.86215018916814      2.00128720928095      0.16305576628023
  H   -0.57606789887119     -1.34481865036885     -0.22280100268587
  N   1.11798612449539     -0.29755674645970      1.53175990064877
  O   1.08848727405010      0.43617301541235      2.50833695866615
  O   1.32898082253554     -1.50987628852691      1.54493194117582
  N   1.67332761296349     -0.25099058010896     -0.86554482717834
  H   1.69469513593404     -1.26310089712122     -0.83249057171261
  H   2.60771002599674      0.11574630872326     -0.73108141834741
  C   -1.20188230057265      0.28800973248073     -1.47048859269429
  H   -1.43186485565554      1.35161678840029     -1.38126015090213
  H   -0.47849832771095      0.15505800415581     -2.27409961612293
  H   -2.12629878312296     -0.23704696704260     -1.71340715693803
  N   -1.61352746534225      0.02340670350467      0.91090022098600
  H   -1.65107830152071      1.01505261617260      1.11298780944599
  H   -1.39106646640148     -0.47313642100567      1.76362627242903
