17
Coordinates from ORCA-job run
  C   0.88885452623950     -0.11614866239980      0.12886638547868
  C   -0.45149333029794     -0.22312810306654     -0.60376808855919
  Cl  2.06831748947057     -1.28323944791599     -0.69826189870395
  H   -0.24799493894606     -0.09062986636884     -1.67073029648196
  N   1.55820771186146      1.23077246313192     -0.11687917136963
  O   2.29141955747473      1.64816270621146      0.77082419038381
  O   1.34234985163337      1.77165164154326     -1.19504687535239
  N   0.74102092105273     -0.31096686948060      1.49207884670213
  H   1.61126272440641     -0.30883367436258      2.00380094315025
  H   0.17796104937850     -1.13766635310861      1.65214483534934
  C   -1.42510447977309      0.84721437288653     -0.13023365224756
  H   -1.64192048509343      0.72128084210370      0.93071869823631
  H   -1.03201055139496      1.84907624579438     -0.29893601274984
  H   -2.35711719750346      0.76114873864937     -0.69609911463710
  N   -0.98865140642867     -1.54337095667512     -0.26943865913104
  H   -0.55101278709370     -2.25472677992561     -0.84274735679873
  H   -1.98308865498599     -1.56159629701696     -0.45729277326917
