17
Coordinates from ORCA-job run
  C   0.90516795796506     -0.00344061381295     -0.07065858285210
  C   -0.56344362429931     -0.26667813516936     -0.42981042612044
  Cl  1.74667352183140      0.91485722845178     -1.39440589372906
  H   -0.49943206331868     -1.00366753144471     -1.25065061419057
  N   0.99664900831125      0.90003013454063      1.16021636609340
  O   1.66165513295008      0.49553965927554      2.10621428634709
  O   0.41042401932424      1.96870136158363      1.09368199541624
  N   1.53237019763912     -1.23032779179188      0.24105124409466
  H   1.67935059196001     -1.76669922394049     -0.60435968380471
  H   2.40983581956987     -1.09030055183957      0.72523409915657
  C   -1.39244847368537      0.90752488253344     -0.92382211284320
  H   -2.34674045589385      0.52112919833411     -1.29376869232420
  H   -1.58729304589217      1.60511943070689     -0.11230120087009
  H   -0.90514164755447      1.43681436640987     -1.74096161415760
  N   -1.15483133633934     -0.79567914450867      0.79020227663611
  H   -0.74067137284969     -1.68777971240960      1.02653609019583
  H   -2.15412422971816     -0.90614355691861      0.67760246295200
