17
Coordinates from ORCA-job run
  C   1.00017627602383      0.01360696227896     -0.21506675510349
  C   -0.46378621998159     -0.35188746936502     -0.54280304524633
  Cl  1.75775105560706      0.86958491295964     -1.57212663061939
  H   -0.38093111935536     -0.91267124062223     -1.47876056911727
  N   0.92920363335869      1.03552332331576      0.97528792752665
  O   0.85498969124338      0.50660452115004      2.08376878589152
  O   0.86609072177652      2.23567351498200      0.74859160990344
  N   1.72544125819098     -1.13630309740656      0.10412888777386
  H   1.17580307446718     -1.70984586991650      0.73285116145887
  H   2.64902233653277     -0.93795572973780      0.46301172705022
  C   -1.36727605484679      0.85837489131729     -0.74993400299142
  H   -2.33554287356988      0.51554712722043     -1.12165024119424
  H   -0.95370092365793      1.56949472968384     -1.46530388574093
  H   -1.53758552147500      1.38596861758080      0.19198479289744
  N   -0.93617539611951     -1.28420270100362      0.47924079508389
  H   -1.66187437153186     -1.87598303131373      0.09696004231505
  H   -1.32260556666249     -0.78152946112331      1.26981940011214
