17
Coordinates from ORCA-job run
  C   0.94305240576036     -0.09496956260811     -0.17005136112586
  C   -0.49491155384030     -0.05537028814709     -0.69404836053807
  Cl  2.08601495313698     -0.54024996589327     -1.44079999892884
  H   -0.49074248022237      0.61214565519645     -1.55924898203292
  N   1.30129878179988      1.37869297363139      0.21096885075877
  O   1.19487217627624      2.22072270165796     -0.66955906421480
  O   1.61553520955835      1.58665415545421      1.37941676092386
  N   1.08269308574206     -0.97948208468318      0.92530464833196
  H   0.66382145453033     -0.57588239223016      1.75448455527997
  H   2.05873025446482     -1.16100716673619      1.12261274107965
  C   -1.44501337226799      0.50596864977429      0.36927961837662
  H   -1.17512118931072      1.51070653419753      0.70444619620073
  H   -2.44997821704434      0.56385651802082     -0.05513461084802
  H   -1.49851510773339     -0.15807877655747      1.23653705058764
  N   -0.82349669852158     -1.39086927622399     -1.15714670401093
  H   -0.82413090811108     -2.03227076005779     -0.37328639129744
  H   -1.74110879421725     -1.39156691479543     -1.58377494854232
