17
Coordinates from ORCA-job run
  C   0.90575220237842      0.00452852984271     -0.06647896996917
  C   -0.55894772171901     -0.27074902940942     -0.43325646766321
  Cl  1.74609941559822      0.93113914612257     -1.38465788187427
  H   -0.48360839185290     -1.00745613402939     -1.25338114213100
  N   0.98292756061257      0.90628565098249      1.16680723702168
  O   0.39442270051610      1.97346187578170      1.09622234534411
  O   1.63852775941411      0.50155990623558      2.11925134616144
  N   1.54152822698678     -1.21801831137934      0.24695807124554
  H   2.41087053241671     -1.07108839526946      0.74372886869498
  H   1.70635464070323     -1.74735620650301     -0.59959646267066
  C   -1.39546525209403      0.89569562486773     -0.93228834213240
  H   -0.91179884807249      1.42392951474162     -1.75230860378322
  H   -1.59524465416056      1.59611705472370     -0.12440360189475
  H   -2.34726311701291      0.50131432764824     -1.30027420910170
  N   -1.15175948266829     -0.80424596748539      0.78405074193070
  H   -2.14971004070173     -0.92204718018803      0.66740850934206
  H   -0.73168553034421     -1.69307040668230      1.02221856147985
