17
Coordinates from ORCA-job run
  C   0.96374898696483      0.06525324519722     -0.10882743409257
  C   -0.48024188449941     -0.30200190362561     -0.58216903024229
  Cl  1.83433084528482      0.81969569148861     -1.44709400198825
  H   -0.32145204528120     -0.80549568151528     -1.54272583536568
  N   0.80203482210696      1.06879469214112      1.03143952149288
  O   0.94308162277115      2.26427032643406      0.83118979174756
  O   0.44099015965171      0.54895485037615      2.08858490497981
  N   1.77708535931317     -0.98891692317089      0.41455601056745
  H   1.29298882879720     -1.46194021686094      1.16599300157668
  H   2.02417503000354     -1.63981562925959     -0.31943368283747
  C   -1.34369569746943      0.93269014973229     -0.80205080173947
  H   -1.60178060939152      1.39531518732007      0.15495811509022
  H   -0.84639587431891      1.68043927630252     -1.41920986314711
  H   -2.27226865770281      0.62665682665392     -1.28382633208840
  N   -1.18809189447221     -1.22867297688265      0.27537456269124
  H   -1.30260175859946     -0.85193313404214      1.20842219947529
  H   -0.72090723315846     -2.12329378028875      0.33581887388007
