17
Coordinates from ORCA-job run
  C   0.83269547920484     -0.14805105122611      0.15050245903439
  C   -0.44253779277042     -0.23699851771536     -0.71089889564960
  Cl  2.06964277883512     -1.32015306796183     -0.54034164247739
  H   -0.12225570868602     -0.12898356207416     -1.74857360950993
  N   1.50535104786492      1.20920493422519     -0.03484253315354
  O   2.01474708442050      1.72559250101287      0.95362651269025
  O   1.49816007545985      1.66803744061141     -1.16962752870463
  N   0.58082966191427     -0.33019715864141      1.51536988571533
  H   0.25812125275509     -1.27083474600599      1.69363997031093
  H   1.39163172474647     -0.11915924335879      2.08245054196455
  C   -1.40758480085263      0.88586921460156     -0.35573007680474
  H   -0.98137234272516      1.86791079667002     -0.56068997634266
  H   -1.68235658540119      0.83854211598606      0.69987922626450
  H   -2.30612857961341      0.76778385874894     -0.96284110638327
  N   -1.12671382546092     -1.50804000774850     -0.57975993821368
  H   -1.56682610049688     -1.60472012893208      0.32625688296143
  H   -0.51640336919444     -2.29480337819172     -0.75742017170194
