17
Coordinates from ORCA-job run
  C   0.85414100076180     -0.06094183467881     -0.01085089063853
  C   -0.53468817489649     -0.13875641422415     -0.67400254448203
  Cl  2.06380674348494     -0.88528275205043     -1.12481836800650
  H   -0.41229934156450      0.22840870918890     -1.69435375024465
  N   1.35076681697036      1.38194774063225      0.02376371529656
  O   1.98488624142358      1.73579757394534      1.01167298824054
  O   1.09859133175973      2.06710245834811     -0.95864276729588
  N   0.86133169713859     -0.55746795038257      1.29829506378104
  H   1.72924421154399     -0.34985695734391      1.77522805635078
  H   0.68413173627867     -1.55210458824915      1.30209963095257
  C   -1.53332327960926      0.73893004320471      0.06814964582473
  H   -1.24713568712731      1.79030735287706      0.04543433128724
  H   -2.50432643743432      0.63616753450993     -0.41811298641644
  H   -1.62225939866802      0.42428726531060      1.10987219149367
  N   -1.05362591685185     -1.49074107620690     -0.74090822101562
  H   -1.31011002723777     -1.83784371344885      0.17439844185246
  H   -0.40813151597215     -2.12895339143214     -1.18722453697992
