17
Coordinates from ORCA-job run
  C   0.98421155273026      0.01963404619250     -0.19142758306456
  C   -0.48343529520127     -0.31942689027722     -0.53133907796486
  Cl  1.76739428833334      0.87474130077180     -1.53305667757364
  H   -0.39180701943080     -0.89379496696840     -1.45919089796800
  N   0.98235919278018      1.01507617276435      1.01636657647334
  O   0.63152619190875      2.17147743958099      0.81454348348825
  O   1.28256782368651      0.53390247989864      2.10533840139104
  N   1.68356782366124     -1.16198988822580      0.09981742660974
  H   1.20074494351681     -1.62804885875579      0.85980066761453
  H   2.64431719776545     -0.97393154567919      0.35581192853663
  C   -1.39202236901809      0.87663988175178     -0.77439063544156
  H   -2.33559485286636      0.51464664247956     -1.18948293974845
  H   -1.60530837015239      1.40438614343870      0.15706115205532
  H   -0.95628729135552      1.59329612325862     -1.46933811043428
  N   -0.97827373018677     -1.18964679344888      0.53388639679005
  H   -1.74367933316042     -0.75977526800563      1.03494558367069
  H   -1.29028075301097     -2.07818601877597      0.16965430556580
