17
Coordinates from ORCA-job run
  C   0.96717524686849     -0.02123100831950     -0.02223837241853
  C   -0.42659173939262     -0.11302215108771     -0.70694051247401
  Cl  2.19237372346372     -0.62953659225754     -1.16351927663986
  H   -0.32321776237071      0.39355305134131     -1.67080615043461
  N   1.22013284520110      1.47007914617260      0.19273523195279
  O   1.15025156532678      1.88052480140578      1.34731504009297
  O   1.35518455966799      2.15508637668558     -0.81264196608342
  N   1.15807376738568     -0.67566376641712      1.22344387769596
  H   0.60732109378163     -0.25381047178564      1.95823245892409
  H   0.97786135053586     -1.66592471890390      1.13882498503452
  C   -1.49094449279445      0.59596938160096      0.11850860315500
  H   -1.57521922370853      0.15981549442482      1.11862624248410
  H   -2.45034779363486      0.46906562541240     -0.38364122101231
  H   -1.29607679363679      1.66350581753308      0.22476704536999
  N   -0.85302056557088     -1.47256588215778     -0.96109172550550
  H   -1.04368572197458     -1.96760624912868     -0.09870301880696
  H   -0.16927005914788     -1.98723885451864     -1.50087124133423
