17
Coordinates from ORCA-job run
  C   0.92406918957888     -0.26043028749756      0.10845840719740
  C   -0.46672126275380     -0.37472311987458     -0.57852789490796
  Cl  1.90045353564039     -1.67286715476009     -0.36331931904570
  H   -0.26602651940856     -0.52610422212560     -1.64299751810919
  N   1.57556690568939      0.98586946713113     -0.49027619449325
  O   1.66489414026834      1.96731755235262      0.24104152179929
  O   1.85624824137288      0.94117079047745     -1.68094127104334
  N   0.97730295411664     -0.13898244841474      1.52254708673807
  H   0.55655472723604     -0.94221373898318      1.96755064880188
  H   0.56620008395801      0.72702310211629      1.84216494506006
  C   -1.27562675164975      0.90209455864596     -0.39816710790581
  H   -0.79330262172097      1.77240156248116     -0.84393241853327
  H   -2.24410294249923      0.76068458089798     -0.87842725615538
  H   -1.45497750557963      1.11205405972512      0.66083331093779
  N   -1.24859868676697     -1.49874963193860     -0.10930983181963
  H   -0.75021367858106     -2.37301559971485     -0.21488218061805
  H   -1.51971980890053     -1.38152947051846      0.85918507209706
