15

C	0.0	0.0	0.0
C	-0.326558	0.662875	-1.357764
Cl	1.831769	0.0	0.0
H	0.212062	0.068215	-2.10358
H	-0.259321	0.67661	0.822934
N	-0.540687	-1.317421	0.075041
H	-1.546014	-1.254555	-0.085439
H	-0.408662	-1.688784	1.008656
C	0.250545	2.011581	-1.388701
N	0.667902	3.106696	-1.455432
C	-1.801525	0.752594	-1.750423
H	-2.264216	-0.230037	-1.824662
H	-2.394252	1.310345	-1.029495
H	-1.867434	1.234865	-2.729538
Br	-4.592663	0.0	0.0
