15

C	0.0	0.0	0.0
C	-0.319661	0.765839	-1.304432
Cl	1.831474	0.0	0.0
H	0.231505	0.234007	-2.087602
H	-0.265089	0.602705	0.875367
N	-0.543463	-1.321854	-0.039612
H	-1.55696	-1.22924	-0.129226
H	-0.368746	-1.783765	0.845745
C	0.245025	2.118738	-1.226391
N	0.6309	3.227034	-1.198642
C	-1.790107	0.870501	-1.703484
H	-2.240548	-0.109547	-1.846271
H	-1.84869	1.414905	-2.649634
H	-2.393503	1.377846	-0.954891
Br	-4.559233	0.0	0.0
