15

C	0.0	0.0	0.0
C	-0.354854	-0.142257	-1.534711
Cl	1.844474	0.0	0.0
H	0.584791	-0.150722	-2.093001
H	-0.292075	0.987296	0.352247
N	-0.498219	-0.964714	0.912583
H	-1.501338	-0.780068	1.011065
H	-0.385034	-1.900356	0.542173
C	-1.032743	1.064286	-2.016199
N	-1.435775	2.062598	-2.487623
C	-1.101525	-1.425936	-1.892156
H	-1.301615	-1.441003	-2.966555
H	-0.479758	-2.295516	-1.657852
H	-2.049184	-1.473851	-1.35756
Br	-3.710346	0.0	0.0
