15

C	0.0	0.0	0.0
C	-0.351646	-0.675687	-1.389869
Cl	1.844136	0.0	0.0
H	0.58707	-0.915027	-1.894746
H	-0.286023	1.050151	-0.026734
N	-0.520759	-0.57041	1.187345
H	-1.517916	-0.332767	1.20955
H	-0.442293	-1.57894	1.171604
C	-1.001832	0.286611	-2.282251
N	-1.427021	1.040624	-3.076673
C	-1.140266	-1.979307	-1.269958
H	-2.088731	-1.806096	-0.762914
H	-1.344732	-2.371036	-2.269943
H	-0.54747	-2.727274	-0.733683
Br	-3.771691	0.0	0.0
