15

C	0.0	0.0	0.0
C	-0.374068	0.250196	-1.477713
Cl	1.783661	0.0	0.0
H	0.230375	-0.45675	-2.056671
H	-0.290992	0.862681	0.611063
N	-0.525553	-1.266546	0.432601
H	-0.277309	-1.416328	1.40407
H	-1.543313	-1.20716	0.392221
C	0.063122	1.59764	-1.858267
N	0.387632	2.679209	-2.180023
C	-1.848967	0.055272	-1.816875
H	-2.040076	0.377507	-2.842668
H	-2.12343	-0.996125	-1.737108
H	-2.516721	0.603179	-1.15401
Br	-4.76718	0.0	0.0
