15

C	0.0	0.0	0.0
C	-0.386995	-0.687888	-1.374953
Cl	1.793894	0.0	0.0
H	0.542551	-0.90328	-1.909658
H	-0.303969	1.045289	-0.033013
N	-0.512935	-0.560881	1.204798
H	-0.385313	-1.565902	1.208119
H	-1.520095	-0.370234	1.205899
C	-1.080315	0.259262	-2.252074
N	-1.505356	1.004026	-3.054823
C	-1.128725	-2.016162	-1.227397
H	-2.061376	-1.876651	-0.682307
H	-0.48496	-2.742383	-0.7198
H	-1.360866	-2.412782	-2.21939
Br	-3.74793	0.0	0.0
