14

C	-0.318229	-0.082318	-1.473769
C	0.0	0.0	0.0
F	-1.689333	-0.290171	-1.706542
H	1.102851	0.0	0.0
H	-0.11215	0.904807	-1.904747
N	0.421594	-1.169716	-2.037689
H	0.487165	-1.063682	-3.042383
H	1.366421	-1.133299	-1.648068
C	-0.46816	-1.188564	0.714702
N	-0.865631	-2.083223	1.36662
N	-0.453683	1.250725	0.598959
H	0.200428	1.489071	1.336525
H	-1.373404	1.141187	1.007128
H	2.766292	0.0	0.0
