14

C	-0.370048	0.23134	-1.464527
C	0.0	0.0	0.0
F	-0.379574	-1.031179	-2.123412
H	1.095554	0.0	0.0
H	-1.39043	0.61259	-1.580738
N	0.577409	1.117044	-2.01564
H	1.518646	0.842599	-1.72817
H	0.50055	1.160399	-3.02214
C	-0.517945	-1.263092	0.508648
N	-0.966589	-2.23726	0.990397
N	-0.414421	1.142901	0.821213
H	0.394636	1.423626	1.366546
H	-1.152457	0.877013	1.461677
H	2.802133	0.0	0.0
