14

C	-0.305789	0.11594	-1.494809
C	0.0	0.0	0.0
F	-0.157199	-1.163044	-2.081274
H	1.097844	0.0	0.0
H	-1.351467	0.388083	-1.700436
N	0.583992	1.072335	-2.036979
H	0.544749	1.070702	-3.047682
H	1.531876	0.857151	-1.713316
C	-0.575793	-1.209075	0.575891
N	-1.061212	-2.169764	1.047003
N	-0.395978	1.180179	0.767659
H	-1.188441	1.633883	0.327166
H	0.386494	1.823776	0.718523
H	2.790525	0.0	0.0
