14

C	-0.46998	0.073105	-1.437965
C	0.0	0.0	0.0
F	-1.855314	0.385322	-1.486004
H	1.099938	0.0	0.0
H	0.027975	0.917935	-1.924743
N	-0.183728	-1.115301	-2.15088
H	-0.596388	-1.918452	-1.693654
H	-0.532088	-1.048547	-3.097092
C	-0.516358	-1.205435	0.636067
N	-0.903389	-2.202672	1.124556
N	-0.449748	1.194691	0.756595
H	0.025298	1.971999	0.299388
H	0.029459	1.125207	1.653428
H	2.775787	0.0	0.0
