16

C	-0.584801	0.040124	-1.405866
C	0.0	0.0	0.0
Br	0.198919	1.466072	-2.457749
H	1.085491	0.0	0.0
H	-0.373907	-0.88851	0.506186
N	-0.222407	-1.284641	-2.094488
O	-0.51571	-1.390312	-3.280819
O	0.265341	-2.162651	-1.394005
C	-2.098886	0.137095	-1.459395
H	-2.434403	0.086324	-2.494868
H	-2.534236	-0.68742	-0.886741
H	-2.431299	1.076215	-1.018996
N	-0.529082	1.148561	0.781456
O	-1.544813	0.940189	1.459383
O	0.044968	2.228137	0.692687
Cl	3.321063	0.0	0.0
