16

C	-0.445572	0.019656	-1.443145
C	0.0	0.0	0.0
Br	0.019676	-1.634545	-2.330526
H	1.088328	0.0	0.0
H	-0.350399	0.906661	0.496744
N	-1.952598	0.27353	-1.557262
O	-2.371057	1.15533	-0.810195
O	-2.612659	-0.31143	-2.402731
C	0.253181	1.174692	-2.146625
H	-0.022548	1.195977	-3.202899
H	1.332233	1.03948	-2.040321
H	-0.038939	2.114452	-1.67114
N	-0.564093	-1.12462	0.788249
O	-1.616913	-1.628306	0.390513
O	0.021043	-1.429649	1.819218
Cl	3.319136	0.0	0.0
