19

C	-0.232387	0.008085	-1.509773
C	0.0	0.0	0.0
Cl	-2.00821	0.360603	-1.910728
H	1.09322	0.0	0.0
N	0.562272	1.113921	-1.987211
H	1.493984	0.999623	-1.557642
H	0.671368	1.031292	-2.991581
C	0.102999	-1.301529	-2.202686
H	1.129712	-1.561315	-1.933304
H	-0.560658	-2.116336	-1.917727
H	0.027571	-1.150145	-3.28365
N	-0.470933	-1.237162	0.652878
O	0.125188	-2.286462	0.390546
O	-1.407656	-1.168763	1.460574
C	-0.505372	1.224407	0.723874
H	-0.103118	1.230582	1.739621
H	-1.592915	1.252879	0.771913
H	-0.138551	2.103412	0.194989
H	2.707287	0.0	0.0
