19

C	-0.484919	0.092841	-1.460167
C	0.0	0.0	0.0
Cl	-0.150724	-1.513692	-2.229583
H	1.090144	0.0	0.0
N	-1.889968	0.369186	-1.682927
H	-2.058992	1.330233	-1.410524
H	-2.434611	-0.22611	-1.065133
C	0.378684	1.116266	-2.177246
H	0.177244	1.069254	-3.248848
H	0.137253	2.12321	-1.821604
H	1.432456	0.914052	-1.962632
N	-0.535076	-1.230131	0.647053
O	0.244769	-2.089698	1.041157
O	-1.769038	-1.309956	0.76201
C	-0.438854	1.185518	0.845464
H	-1.523692	1.278938	0.916105
H	-0.024534	1.064426	1.849309
H	-0.00646	2.100796	0.437736
H	2.87271	0.0	0.0
