19

C	-0.344056	0.053385	-1.520536
C	0.0	0.0	0.0
Cl	-0.289887	1.807476	-2.017728
H	1.092383	0.0	0.0
N	0.633109	-0.617081	-2.344442
H	1.550581	-0.330453	-1.988495
H	0.564432	-1.599168	-2.093338
C	-1.744539	-0.435358	-1.847325
H	-1.933032	-0.280494	-2.910461
H	-2.491128	0.108027	-1.264564
H	-1.823478	-1.501855	-1.626435
N	-0.394893	-1.315831	0.517751
O	-0.983787	-1.395606	1.607371
O	-0.063953	-2.320352	-0.133675
C	-0.511021	1.102808	0.896708
H	-1.59415	1.241833	0.831244
H	-0.25522	0.865988	1.928931
H	-0.011071	2.031245	0.627361
H	2.6594	0.0	0.0
