19

C	-0.223159	0.024587	-1.517983
C	0.0	0.0	0.0
Cl	-1.988872	0.331742	-1.907487
H	1.093285	0.0	0.0
N	0.549154	1.106717	-2.10147
H	0.223494	1.989504	-1.723963
H	1.502815	0.967996	-1.742287
C	0.197023	-1.257951	-2.204912
H	-0.431612	-2.102284	-1.928557
H	0.144743	-1.08668	-3.281111
H	1.228914	-1.469091	-1.905741
N	-0.487233	-1.237815	0.636715
O	-1.464834	-1.173053	1.395662
O	0.128055	-2.283423	0.40694
C	-0.491278	1.209071	0.761661
H	-0.190305	1.112886	1.806597
H	-0.004454	2.104033	0.370827
H	-1.573714	1.324243	0.716599
H	2.715356	0.0	0.0
