19

C	-0.392307	-0.044853	-1.470909
C	0.0	0.0	0.0
Cl	-2.237514	-0.617408	-1.58809
H	1.09236	0.0	0.0
N	-0.286571	1.25162	-2.023518
H	-0.916195	1.904102	-1.577384
H	-0.479833	1.226914	-3.01636
C	0.413858	-1.016383	-2.301404
H	0.204563	-0.858605	-3.364212
H	0.190304	-2.044091	-2.037648
H	1.467594	-0.812175	-2.076253
N	-0.383267	-1.23416	0.708809
O	-0.018863	-2.308812	0.225069
O	-0.982395	-1.144178	1.787726
C	-0.468886	1.223106	0.752219
H	0.037057	2.095095	0.333786
H	-1.554918	1.350202	0.721658
H	-0.16311	1.137707	1.793753
H	2.652472	0.0	0.0
