19

C	-0.517656	0.076826	-1.4441
C	0.0	0.0	0.0
Cl	0.204874	1.576709	-2.219504
H	1.089794	0.0	0.0
N	-0.028332	-1.018841	-2.241414
H	-0.310678	-1.870167	-1.76642
H	-0.45119	-0.973687	-3.162827
C	-2.029307	0.281397	-1.504294
H	-2.350732	0.355242	-2.54785
H	-2.507648	-0.584712	-1.042599
H	-2.337195	1.191427	-0.98625
N	-0.421729	-1.168652	0.690056
O	-0.196468	-1.207184	1.925146
O	-0.854469	-2.186476	0.070567
C	-0.282975	1.220215	0.865606
H	-0.056977	2.128772	0.309253
H	-1.319229	1.245941	1.214927
H	0.377327	1.175734	1.730776
H	2.368286	0.0	0.0
