19

C	-0.496408	0.018124	-1.444442
C	0.0	0.0	0.0
Cl	0.106243	-1.571001	-2.212367
H	1.090203	0.0	0.0
N	-1.911063	0.138508	-1.574279
H	-2.359527	-0.609358	-1.057976
H	-2.166694	0.074957	-2.552556
C	0.215101	1.123415	-2.203365
H	-0.155363	2.089468	-1.852634
H	1.291981	1.048763	-2.031756
H	-0.003525	1.037805	-3.271696
N	-0.436394	-1.2567	0.695406
O	0.399103	-1.885932	1.333282
O	-1.634464	-1.573744	0.632366
C	-0.52727	1.156019	0.83235
H	-1.618191	1.16591	0.864404
H	-0.121535	1.068327	1.84379
H	-0.168006	2.099133	0.418594
H	2.863594	0.0	0.0
