14
Coordinates from ORCA-job run
  C   -0.40497396757319      0.14731158667259      0.31037035047670
  C   0.83994326437455     -0.39537032271815     -0.37436017036459
  F   -0.22329106343710     -0.03206150036467      1.68698924769207
  H   0.86180824691370     -1.47756608123468     -0.17272685824567
  H   0.72780184105003     -0.25576267839757     -1.45317493095175
  C   -1.67247124749882     -0.58142813673105     -0.08956387426768
  H   -1.55676942984223     -1.64709488359704      0.11659241645191
  H   -2.51535927689150     -0.20051998695287      0.48815652820648
  H   -1.87936294032788     -0.43929134441362     -1.15182902032808
  C   -0.53483626268150      1.59603755310806      0.07205152849093
  N   -0.66271738466955      2.74999052032557     -0.09764440996262
  N   2.00660270586073      0.33778332045062      0.08343028049887
  H   2.19700749149124      0.10511099011278      1.04916298150435
  H   2.81861802323152      0.09186096374003     -0.46645406920093
