14
Coordinates from ORCA-job run
  C   -0.40205964697634      0.14164468493720      0.31695171786710
  C   0.84445233032941     -0.38758302931845     -0.37466297783851
  F   -0.22169445972484     -0.06224732116393      1.69057139909848
  H   0.86816373269450     -1.47305137728691     -0.19207505142367
  H   0.73512978244099     -0.22909512135235     -1.45110588085195
  C   -1.66963834414786     -0.57952542653821     -0.09675274663397
  H   -1.55564319482516     -1.64804346896924      0.09521743382801
  H   -1.87273188879440     -0.42227250786554     -1.15761138164840
  H   -2.51346340994894     -0.20498346863572      0.48368253908701
  C   -0.53477998446711      1.59318949701550      0.09856100976211
  N   -0.70849892476171      2.73420412413180     -0.11280642674777
  N   2.00797253414203      0.34029336862202      0.09975705782258
  H   2.82036952550069      0.11480264441377     -0.45828879367974
  H   2.20242194853873      0.08366740201008      1.05856210135872
