14
Coordinates from ORCA-job run
  C   -0.49223238972764     -0.04490744879422      0.56872454022969
  C   0.92339043733640     -0.53736132263792      0.27030561778479
  F   -0.92090077782010     -0.70050211331708      1.72189462810210
  H   1.50357400669687     -0.45473254588883      1.19939480625232
  H   0.84378841496450     -1.59885767078326      0.02068087515480
  C   -1.47217683853462     -0.32905281925408     -0.54842322579973
  H   -1.52708007733696     -1.40975997111108     -0.69686833218010
  H   -2.46343574322659      0.04260450019338     -0.28546223996511
  H   -1.12851848030875      0.14409422417095     -1.46714739999469
  C   -0.43958297215558      1.39935759695898      0.86874010460607
  N   -0.35280426539541      2.55041531068633      1.08258764357304
  N   1.46551991315471      0.19070267455085     -0.86770507136741
  H   1.84524412352106      1.08018811248059     -0.56767948170662
  H   2.21521464883207     -0.33318852725462     -1.29804246468915
