16

C	0.0	0.0	0.0
C	-0.335513	-0.571106	-1.447851
Cl	1.77083	0.0	0.0
H	0.464999	-1.285416	-1.649112
N	-0.639603	1.177884	0.316566
H	-1.673453	0.921798	0.223624
H	-0.437666	1.436091	1.276123
N	-0.31389	-1.157978	1.024175
O	-0.618212	-0.811454	2.158586
O	-0.183406	-2.317824	0.645282
C	-0.126622	0.552525	-2.381696
N	0.03039	1.420786	-3.156583
N	-1.582221	-1.227664	-1.736447
H	-2.331759	-0.71936	-1.216326
H	-1.526271	-2.144252	-1.309081
F	-2.940872	0.0	0.0
