16

C	0.0	0.0	0.0
C	-0.534457	-0.003142	-1.451724
Cl	1.760052	0.0	0.0
H	-1.617272	-0.174362	-1.244302
N	-0.54044	1.029314	0.788468
H	-1.573802	0.81869	0.695656
H	-0.360737	1.887301	0.27429
N	-0.397248	-1.336912	0.659794
O	-0.391343	-1.378571	1.880273
O	-0.620199	-2.282335	-0.089125
C	0.039658	-1.010784	-2.341469
N	0.513613	-1.717131	-3.15398
N	-0.352659	1.344318	-1.997247
H	0.471494	1.38151	-2.583946
H	-1.159329	1.576856	-2.561276
F	-2.777864	0.0	0.0
