16

C	0.0	0.0	0.0
C	-0.543801	-0.237981	-1.429929
Cl	1.76022	0.0	0.0
H	-1.620997	-0.399048	-1.185559
N	-0.534948	1.146887	0.613517
H	-0.360362	1.903125	-0.042099
H	-1.565418	0.926444	0.568585
N	-0.395751	-1.213509	0.862651
O	-0.571433	-1.033434	2.055517
O	-0.434268	-2.297757	0.288571
C	0.048965	-1.349201	-2.169452
N	0.513756	-2.147996	-2.897172
N	-0.402621	1.016108	-2.176987
H	0.351482	0.952665	-2.848061
H	-1.265239	1.196721	-2.67154
F	-2.780583	0.0	0.0
