16

C	0.0	0.0	0.0
C	-0.294213	0.22864	-1.526315
Cl	1.811522	0.0	0.0
H	0.51683	-0.281531	-2.053959
N	-0.661991	0.856953	0.84484
H	-1.696963	0.682123	0.614336
H	-0.499472	0.582506	1.806233
N	-0.285271	-1.523069	0.301103
O	-0.744171	-1.774579	1.409105
O	0.014844	-2.340305	-0.558003
C	-0.094733	1.680773	-1.766751
N	0.021946	2.803008	-2.101106
N	-1.54798	-0.287231	-2.030563
H	-2.297001	-0.161855	-1.307992
H	-1.781489	0.222168	-2.872644
F	-2.98534	0.0	0.0
