16

C	0.0	0.0	0.0
C	-0.551549	-0.094756	-1.428211
Cl	1.784655	0.0	0.0
H	-1.63497	-0.257203	-1.205702
N	-0.551811	1.070699	0.68365
H	-1.589284	0.903442	0.533091
H	-0.323749	0.971987	1.666939
N	-0.326134	-1.363368	0.732549
O	-0.569022	-2.360344	0.06704
O	-0.289209	-1.320002	1.957564
C	0.034968	-1.182198	-2.221113
N	0.496813	-1.933033	-2.999831
N	-0.39486	1.1871	-2.106724
H	-1.040218	1.212202	-2.886117
H	0.546927	1.273614	-2.472131
F	-2.79605	0.0	0.0
