16

C	0.0	0.0	0.0
C	-0.36304	-0.263905	-1.52744
Cl	1.808169	0.0	0.0
H	0.489118	-0.816228	-1.930816
N	-0.636395	1.075439	0.563731
H	-1.674965	0.843266	0.402427
H	-0.442225	1.113133	1.558172
N	-0.263104	-1.348191	0.779565
O	-0.528982	-1.243781	1.969679
O	-0.127834	-2.407287	0.177987
C	-0.365994	1.058289	-2.190702
N	-0.405637	2.059835	-2.805792
N	-1.562423	-0.978148	-1.897424
H	-2.328584	-0.610295	-1.288953
H	-1.405524	-1.949287	-1.649082
F	-2.913144	0.0	0.0
