16

C	0.0	0.0	0.0
C	-0.335994	0.206517	-1.544436
Cl	1.757598	0.0	0.0
H	0.461352	-0.32621	-2.066742
N	-0.641186	0.879495	0.844782
H	-1.674366	0.700033	0.639228
H	-0.439729	0.642911	1.809349
N	-0.324071	-1.507653	0.332516
O	-0.201832	-2.337742	-0.563684
O	-0.626865	-1.754216	1.492768
C	-0.110203	1.639702	-1.816464
N	0.089547	2.759651	-2.107862
N	-1.584905	-0.216048	-2.118994
H	-2.332234	-0.02567	-1.414233
H	-1.533383	-1.224402	-2.196982
F	-2.934813	0.0	0.0
