11
Coordinates from ORCA-job run
  C   -0.07387335030126      0.44434247611262     -0.12684903398477
  C   1.24020647901045      0.12526992191179     -0.03295304728016
  H   2.00687193744898      0.86553098673327     -0.24121251209071
  C   -0.41061048357328      1.78494341466880     -0.51111608112047
  N   -0.71995701870686      2.87687334650412     -0.82342190655310
  C   -1.21522961224340     -0.49296158855077      0.13702275791653
  H   -0.85335006302972     -1.48161530647224      0.42052237059768
  H   -1.84533951513577     -0.10016831914926      0.93912985925353
  H   -1.83926357748737     -0.58435203295425     -0.75572785412748
  C   1.67345009336470     -1.18084389614233      0.34193795626463
  N   2.03709511065353     -2.25701900266174      0.65066749112433
