11
Coordinates from ORCA-job run
  C   -0.14849469319460      0.13060693196800     -0.02138476209331
  C   0.89478172855936     -0.72128653437918      0.12011022161668
  H   0.71106495302655     -1.78961656014267      0.19257328941567
  C   0.08598385045756      1.54212547619486     -0.11703118879003
  N   0.23116319330379      2.70756838198546     -0.19920180415297
  C   -1.57756518605434     -0.32453198894514     -0.08601789442911
  H   -2.03283932652359     -0.01303262991956     -1.02948671317629
  H   -1.64187232504190     -1.41026538535609     -0.00358890895660
  H   -2.15655085808912      0.12755219856389      0.72313772116695
  C   2.25238855731662     -0.29025350370204      0.18232175381151
  N   3.38094010623969      0.04013361373247      0.23656828558750
