11
Coordinates from ORCA-job run
  C   -0.06278426450912      0.46387483896935     -0.00371599424326
  C   1.21917539589516      0.09816058322885      0.24175187134204
  H   1.98769997569013      0.84735489960470      0.40688644554491
  C   -0.36386728330625      1.86609886392078     -0.03722325926558
  N   -0.64436023022927      3.00874407991910     -0.07202554776589
  C   -1.20302955228143     -0.48081388878672     -0.24543389068877
  H   -1.64447758224265     -0.29249371145539     -1.22740896815819
  H   -1.98474983652639     -0.32379012824052      0.50214905651718
  H   -0.86944329618625     -1.51774856873156     -0.19846155342134
  C   1.61585574196049     -1.27075444120206      0.29449802447137
  N   1.94998093173558     -2.39863252722653      0.33898381566753
