11
Coordinates from ORCA-job run
  C   -0.14992475604472      0.12789971854641     -0.01953517721064
  C   0.90462453866149     -0.71035571996866      0.11934735530131
  H   0.73788621628569     -1.78335128975227      0.15755525992834
  C   0.06292356618045      1.54520441475425     -0.07375343508690
  N   0.19016488662101      2.71471480058439     -0.12371321214721
  C   -1.56983905145478     -0.34738036379425     -0.12292343322298
  H   -2.17137508783244      0.07491639987550      0.68589865613381
  H   -2.01236602782678     -0.01878704178148     -1.06669873571815
  H   -1.61876972356227     -1.43576125982478     -0.06938280503739
  C   2.25337525245782     -0.25856791183119      0.21670590106681
  N   3.37430018651452      0.09146825319207      0.29749962599299
