11
Coordinates from ORCA-job run
  C   -0.15563268343985      0.12170440201030     -0.02329019317860
  C   0.93113323845434     -0.66691712766869      0.15376122526964
  H   0.83246793860150     -1.74561352781891      0.06893680030057
  C   -0.03320627408032      1.54644711217504      0.08548352280518
  N   0.01987834362271      2.71983353265316      0.16624937736469
  C   -1.52092318528970     -0.41925333212132     -0.33474165596458
  H   -2.23280207842650     -0.12146948243154      0.43916969864063
  H   -1.50076734539820     -1.50803740097574     -0.39726032003706
  H   -1.88091682384299     -0.01611027879023     -1.28467314577318
  C   2.22937558279813     -0.15449354915908      0.44479555824250
  N   3.31139295930890      0.24390966511878      0.68156934057464
