11
Coordinates from ORCA-job run
  C   -0.15313770243083      0.11758536954772     -0.04458266938524
  C   0.92282377409839     -0.65111092467433      0.24770427777751
  H   0.77703024785547     -1.65962721875383      0.62462339938548
  C   0.03116898260845      1.44968309146501     -0.54258581266123
  N   0.13508709392080      2.54840348251316     -0.95256137831523
  C   -1.56886507559024     -0.35216582005652      0.12397385431258
  H   -2.09616596018842     -0.31764299655840     -0.83278012480323
  H   -1.59504632855699     -1.37368707178276      0.50548665977361
  H   -2.10511471308828      0.29980879774476      0.81812260771166
  C   2.26734993881006     -0.20480390942853      0.08758415140344
  N   3.38486974256158      0.14355719998372     -0.03598496519936
