11
Coordinates from ORCA-job run
  C   -0.15671009905742      0.12012097962438     -0.02187274233458
  C   0.93814540157949     -0.66254595041920      0.12966105873203
  H   0.85536468159676     -1.73697653242473     -0.00842908800397
  C   -0.05364841523832      1.53872347393737      0.16020882519248
  N   -0.01435399159805      2.70761971967502      0.29549023562510
  C   -1.51119465576658     -0.42071288545530     -0.37693602076252
  H   -1.47836996494635     -1.50555384794663     -0.48576692808347
  H   -2.23714494203279     -0.16412034702780      0.39861751435337
  H   -1.86177370087846      0.01918500197887     -1.31399272004315
  C   2.22376949656017     -0.14865498379665      0.46994909555072
  N   3.29391618978156      0.25191537185468      0.75307076977400
