11
Coordinates from ORCA-job run
  C   -0.15472590812689      0.11604739532979     -0.04486105861615
  C   0.92956182951914     -0.63560015321912      0.26095221103351
  H   0.80625826025478     -1.69246751838011      0.48196149882986
  C   -0.00131277152345      1.51211838647270     -0.33414525104013
  N   0.07627958876958      2.66187134281245     -0.57557302319799
  C   -1.54869071600089     -0.43801854864050     -0.10239544090417
  H   -1.55208788820951     -1.50305509536105      0.13280653554184
  H   -2.19444088039183      0.08432174343329      0.60791505932222
  H   -1.97288546202054     -0.29371400372422     -1.09921560319108
  C   2.25425673482118     -0.11104108006636      0.31276568578778
  N   3.35678721290845      0.29853753134314      0.35978938643431
