11
Coordinates from ORCA-job run
  C   -0.15515893124702      0.11001345190161     -0.05834380672089
  C   0.93134132088595     -0.60610280379341      0.31693022358567
  H   0.79972591095010     -1.55987785685368      0.82004209099666
  C   0.01130594979744      1.36952688907150     -0.72344604448406
  N   0.10006628084938      2.40773798695565     -1.27153565072101
  C   -1.56414496205190     -0.34557786337431      0.18726123269536
  H   -2.09893847549801      0.38666861765948      0.79744028662941
  H   -2.10318368140090     -0.44051240152679     -0.75865189809857
  H   -1.57572593662958     -1.30885254446442      0.69888941972382
  C   2.27017475688787     -0.17418660981162      0.08494749674765
  N   3.38453776745666      0.16016313423599     -0.09453335035405
