11
Coordinates from ORCA-job run
  C   -0.05864543129553      0.46324615673915     -0.02784698568351
  C   1.20059302911093      0.10135457374878      0.31915810012284
  H   1.96263150855363      0.85284859173754      0.50302725297172
  C   -0.34335603798840      1.86457588214175     -0.14402583454662
  N   -0.60690695796946      3.00724726016642     -0.24649609289323
  C   -1.18882499001709     -0.48432792522715     -0.30324999427225
  H   -0.86798910817475     -1.52018014085554     -0.19006191456411
  H   -1.56407758414399     -0.33604732827687     -1.31901354506354
  H   -2.01618442871265     -0.29041100765685      0.38410814115306
  C   1.58157518497737     -1.26616242688280      0.45587965668521
  N   1.90218481565995     -2.39314363563443      0.56852121609042
