11
Coordinates from ORCA-job run
  C   -0.14510679176521      0.13541833488090     -0.00840498338291
  C   0.87428526590833     -0.75392525334801      0.05452647802758
  H   0.65997148243058     -1.81806131233934      0.09876748174078
  C   0.13314468443334      1.54115747280149     -0.06609236603814
  N   0.31473331844310      2.70344153304756     -0.11356379136297
  C   -1.59037368614372     -0.26977910457783     -0.02426976219953
  H   -2.07497265199734      0.09222172639744     -0.93463841068970
  H   -2.11764834111936      0.17095291097115      0.82551063574229
  H   -1.68946069440732     -1.35504900217122      0.02149303519457
  C   2.24686215318443     -0.36842830495393      0.06764702712434
  N   3.38756526103317     -0.07794900070823      0.07902465584370
