11
Coordinates from ORCA-job run
  C   -0.06766690099564      0.45934467517428      0.05699106942235
  C   1.19437832280626      0.06276374872339      0.35237569391018
  H   1.93795830529092      0.78102031422219      0.68457302475598
  C   -0.38163423543520      1.85197672459329      0.19848792533765
  N   -0.67150601622167      2.98794313157507      0.30384605875784
  C   -1.17355652673573     -0.44118171483084     -0.40895521703135
  H   -1.53608457214570     -0.11457514761861     -1.38690066896249
  H   -2.01498546584893     -0.39179201168160      0.28687799244530
  H   -0.83333482328155     -1.47450077273489     -0.48200579254108
  C   1.60163364484381     -1.29964269131315      0.24197874020054
  N   1.94379826772343     -2.42235625610913      0.15173117370507
