11
Coordinates from ORCA-job run
  C   -0.05919093980538      0.46431032757764      0.01564697817233
  C   1.22441383431531      0.08080597870369      0.22247165939338
  H   2.00119609300201      0.81748030176236      0.40433255786684
  C   -0.35107362280763      1.86858660425696      0.04656375203093
  N   -0.62405916282484      3.01336914023346      0.06644902307991
  C   -1.21016328566029     -0.46229119685257     -0.24407228962534
  H   -1.66857022307937     -0.22942690520215     -1.20859078866513
  H   -1.97659360127258     -0.33301981954524      0.52432845185356
  H   -0.88265498131971     -1.50229100436631     -0.24824097509907
  C   1.61136784665469     -1.29206174287713      0.21385575033292
  N   1.93632804279779     -2.42346168369071      0.20825588065967
