11
Coordinates from ORCA-job run
  C   -0.06549485642924      0.45982380123427      0.05699097784664
  C   1.19702308182992      0.05884032963060      0.34428374911916
  H   1.94535100600382      0.77456233172885      0.67130169185007
  C   -0.37371151415814      1.85361893291869      0.19981807862172
  N   -0.65853910938050      2.99074657298552      0.30635802047552
  C   -1.17749256054647     -0.43727144830791     -0.40099528166505
  H   -1.54592060192697     -0.10976688353947     -1.37646312852993
  H   -2.01395244480413     -0.38528042931649      0.30064308178398
  H   -0.84099052587058     -1.47161035709356     -0.47656920549840
  C   1.59833497616487     -1.30518506474023      0.23226133853727
  N   1.93539254911742     -2.42947778550027      0.14237067745901
