11
Coordinates from ORCA-job run
  C   -0.15385377181129      0.11309367413185     -0.05426555420762
  C   0.92449748554078     -0.62839104611178      0.29433497851047
  H   0.78458290860623     -1.56711434950233      0.82295276216388
  C   0.02458159477716      1.35300447222466     -0.75246061848466
  N   0.12491237991255      2.37604688548328     -1.32638423424481
  C   -1.56522615953046     -0.29233198767311      0.25600459781244
  H   -2.05094696765621      0.46613119669447      0.87499088337816
  H   -1.58710038447124     -1.24715301892082      0.78289902426175
  H   -2.14515081464980     -0.38378349678443     -0.66578340370476
  C   2.26519580529641     -0.24312432277981     -0.00075036818294
  N   3.38050792398586      0.05362199323803     -0.23253806730190
