11
Coordinates from ORCA-job run
  C   -0.12781457145018      0.29346516382003     -0.34158771001112
  C   1.20900039266203      0.07348633991942     -0.29796789513607
  H   1.87356329119463      0.55386398649334     -1.00989806501131
  C   -0.62717237404029      1.17880347275592     -1.35403523827174
  N   -1.07049192163897      1.90089623885173     -2.17111452384961
  C   -1.13785816756457     -0.31521280747820      0.58602053752978
  H   -1.68076433035950      0.47088181510624      1.11697078697545
  H   -0.65665398633893     -0.96925033808423      1.31359092349672
  H   -1.86974875098014     -0.89323794838743      0.01605510875659
  C   1.79921942591496     -0.79050638276561      0.67116332996412
  N   2.29072099260096     -1.50318954023120      1.46880274555720
