11
Coordinates from ORCA-job run
  C   -0.16139197681714      0.10302940084580     -0.05242506119778
  C   0.96716583533622     -0.56262848843425      0.29042430114736
  H   0.89452819005284     -1.49892806982410      0.83705799897110
  C   -0.07357639356706      1.33887241256045     -0.77453372127404
  N   -0.04962112674473      2.35593168671070     -1.36707878813659
  C   -1.53929943764653     -0.38755696945736      0.28526605872298
  H   -1.49106623549368     -1.33049024690340      0.83129338065066
  H   -2.12314077626681     -0.53573048006016     -0.62668682728580
  H   -2.06604649158373      0.34993117070140      0.89595108600183
  C   2.27603870631839     -0.09792615461590     -0.03142839978629
  N   3.36640970641222      0.26549573847681     -0.28584002781343
