11
Coordinates from ORCA-job run
  C   -0.05125476195819      0.45708275973997     -0.08704346756740
  C   1.22785673273999      0.10320200417282      0.18884880950931
  H   2.02036649119200      0.84557592179855      0.19157579175437
  C   -0.31709431536554      1.83832893392311     -0.36912778033479
  N   -0.56710881250374      2.96388742085704     -0.60600243952798
  C   -1.22207965923396     -0.48040556099475     -0.12131073931706
  H   -1.97595371255433     -0.16606483230582      0.60494738533459
  H   -0.91320802649363     -1.50114811585217      0.10523765843094
  H   -1.68938370070258     -0.46084323029175     -1.10920985947561
  C   1.59105302233366     -1.24490703535901      0.48024681499174
  N   1.89680674254632     -2.35570826568800      0.72183782620190
