11
Coordinates from ORCA-job run
  C   -0.06155115741550      0.46386299866519      0.01749674853021
  C   1.19473033557357      0.07342484408066      0.34425958997514
  H   1.94979096294970      0.80507919963329      0.61578289164381
  C   -0.35252267453467      1.86828002832855      0.04446248743473
  N   -0.62044532168958      3.01444147100938      0.05863360040489
  C   -1.18133421031107     -0.45580669429050     -0.37148460906109
  H   -2.02076785731157     -0.33687670393791      0.31843167202635
  H   -1.54098276492915     -0.20752065253446     -1.37329731238639
  H   -0.85557441209628     -1.49627739548042     -0.35843759767366
  C   1.58121418112297     -1.29933548750629      0.34823600177166
  N   1.90744291864158     -2.43027160796749      0.35591652733433
