11
Coordinates from ORCA-job run
  C   -0.15918552536764      0.10591839861084     -0.05247627910385
  C   0.95663941368790     -0.58439472967317      0.28289576268144
  H   0.86672356912094     -1.52301265426047      0.82258750755111
  C   -0.04883094383559      1.34578197772347     -0.76467526072395
  N   -0.00646912824918      2.36703881242617     -1.34898143464376
  C   -1.54596609861868     -0.35927481528720      0.28507218284732
  H   -2.05513424884550      0.38425758582969      0.90334946283432
  H   -2.13556901709434     -0.48773797172571     -0.62607590989386
  H   -1.51596454190795     -1.30720601168807      0.82377800806653
  C   2.27386550666592     -0.14266209069680     -0.03732640581691
  N   3.37089101444414      0.20129149874125     -0.29014763379839
