11
Coordinates from ORCA-job run
  C   -0.14303059864995      0.13775901288962     -0.00451561245005
  C   0.86262145153459     -0.76789492713504      0.04579479039126
  H   0.71251577157843     -1.76175253260924     -0.36663124524893
  C   0.04693504732883      1.45165243841479      0.53798178992237
  N   0.15743609598731      2.54108280028870      0.97049935922461
  C   -1.48464957370463     -0.15746389406754     -0.61000178309569
  H   -1.69108598555379      0.53399517222361     -1.43074178866326
  H   -1.52109452081698     -1.17920557557401     -0.99018834126203
  H   -2.27380692402315     -0.02790716054713      0.13492143566294
  C   2.13687589370435     -0.48884526909625      0.62126493661970
  N   3.19628334261499     -0.28142006478750      1.09061645889910
