11
Coordinates from ORCA-job run
  C   -0.05327983721831      0.46207696416660      0.05079876799138
  C   1.21176075449346      0.03930789747531      0.29207636963778
  H   1.98826462962905      0.74459498205122      0.57296557463462
  C   -0.32610508419006      1.86458312094851      0.17973923709519
  N   -0.58310545362894      3.00912446630198      0.27736554453622
  C   -1.20231403515468     -0.41909827322511     -0.34212057600904
  H   -1.60600985474688     -0.10112665272690     -1.30675925991959
  H   -0.89070845920130     -1.46156844721784     -0.41294054112140
  H   -2.00633423819662     -0.33654866581351      0.39377907853631
  C   1.57964081833040     -1.33481994212864      0.18902918091215
  N   1.88919075988388     -2.46752544983162      0.10606662370640
