16

C	0.0	0.0	0.0
C	-0.602743	0.063455	-1.38212
F	1.376248	0.0	0.0
H	-1.599917	0.502908	-1.234515
H	0.020203	0.709416	-2.003909
N	-0.275313	1.353875	0.684678
O	-0.318597	1.38269	1.910719
O	-0.304699	2.347142	-0.038834
C	-0.532299	-1.109417	0.847624
H	-0.263583	-2.049707	0.365207
H	-1.62632	-0.991986	0.87095
H	-0.104658	-1.058902	1.848099
N	-0.699817	-1.285571	-1.957195
H	-1.617217	-1.628133	-1.672886
H	-0.737083	-1.187104	-2.965327
H	-3.314049	0.0	0.0
