16

C	0.0	0.0	0.0
C	-0.526438	0.004159	-1.423512
F	1.377609	0.0	0.0
H	-1.605833	0.205234	-1.336017
H	-0.427081	-1.02681	-1.779709
N	-0.307925	1.331048	0.707139
O	-0.206841	1.34246	1.931063
O	-0.531564	2.325459	0.020235
C	-0.568304	-1.117586	0.814755
H	-0.185548	-1.089268	1.834738
H	-0.304259	-2.0663	0.34152
H	-1.665462	-0.976947	0.789221
N	0.133416	0.889562	-2.378378
H	-0.111245	1.838299	-2.128518
H	1.136153	0.805244	-2.256878
H	-3.311816	0.0	0.0
