11
Coordinates from ORCA-job run
  C   -0.73872881054429     -0.42814726625313      0.23271241231820
  C   0.49888768635227      0.04860946871993      0.03242117281774
  H   -0.92786784169499     -1.34416118871931      0.77625647015380
  N   -1.92245472025606      0.20637540001662     -0.32731294878171
  O   -2.89026566474458     -0.54419266304428     -0.45433685827136
  O   -1.87061903169071      1.39817847353519     -0.61975868839348
  C   0.87718055548180      1.20815539792378     -0.69521196313872
  N   1.23919988647477      2.14930626949281     -1.30374257909742
  N   1.63269748079102     -0.71621532969091      0.63881191484637
  O   1.35584042591432     -1.75641017249381      1.21872445341351
  O   2.74413003391646     -0.21949838948691      0.50043661413305
