11
Coordinates from ORCA-job run
  C   -0.86003308518655      0.39264964199374      0.11344650659112
  C   0.48024533875922      0.41823836014438      0.11527919952048
  H   -1.44550187019530      1.27132368909355      0.35974834597959
  N   -1.67218046773685     -0.77955857719678     -0.21055507495418
  O   -1.95128830462964     -0.92885253722478     -1.39215894288726
  O   -2.05337330701880     -1.43741919535825      0.74779866468668
  C   1.19924721241303      1.60537878788329      0.43941868538120
  N   1.75132971812203      2.60744965911442      0.71484276866409
  N   1.31139016988308     -0.76298168236676     -0.21483665433937
  O   2.52108868111259     -0.57069722566317     -0.25833070584525
  O   0.71807591447718     -1.81453092041966     -0.41465279279709
