11
Coordinates from ORCA-job run
  C   -0.73892970105520     -0.42186215456590      0.24026474589040
  C   0.49750222897981      0.06092780367332      0.04732083215807
  H   -0.93056854455039     -1.31559207637973      0.81900088574340
  N   -1.91817283667409      0.17791291895794     -0.36528734014349
  O   -2.87816610076226     -0.58558756650465     -0.47531683860253
  O   -1.87089780213260      1.35644978137550     -0.70796572579158
  C   0.87990174140094      1.19507849421325     -0.71708998318590
  N   1.24546431847647      2.12314567793581     -1.34336026688597
  N   1.62789068612123     -0.68444842195030      0.68330535235625
  O   2.75247969337248     -0.33554434013618      0.34544214147245
  O   1.33449631682363     -1.57048011661907      1.47368619698891
