11
Coordinates from ORCA-job run
  C   -0.71738440413907     -0.52612603825733      0.10193344382241
  C   0.50703401764442      0.00809001471152      0.04278507432858
  H   -0.91268517585302     -1.54713795718525      0.40469057575864
  N   -1.88487458078895      0.27456246047375     -0.25296995232632
  O   -2.24764962876357      0.20458692313623     -1.42185780341081
  O   -2.40478454415710      0.90410797943696      0.66157104832703
  C   0.79250800381574      1.34407667332856     -0.35287301210525
  N   0.99207015372055      2.45442972443214     -0.68869092599005
  N   1.67231532634766     -0.83610797524434      0.41223689911782
  O   2.76705070593715     -0.28739265811651      0.36143322872124
  O   1.43840012623618     -1.99308914671574      0.73174142375671
