11
Coordinates from ORCA-job run
  C   -0.79693899872389      0.22342710787584     -0.46115047073540
  C   0.52820128902572      0.24827589106381     -0.27766824622060
  H   -1.27752657124383      0.84327052169765     -1.21066087735062
  N   -1.75543176979494     -0.53513626059117      0.34209564624775
  O   -1.84137499298742     -1.73748880411321      0.13192489542429
  O   -2.47157504889924      0.15397807838686      1.06241176092495
  C   1.38896692127505      0.99492667942527     -1.13168488509498
  N   2.11107869966977      1.56680485446531     -1.86231801968824
  N   1.20706613058292     -0.43433606950145      0.85174266900361
  O   0.72828234227755     -1.48484814520708      1.25289754392286
  O   2.17725199881830      0.16112614649818      1.30240998356638
