11
Coordinates from ORCA-job run
  C   -0.71732838575580     -0.49282740869599      0.15434016792319
  C   0.50348969459730      0.03919845916480     -0.00521716331895
  H   -0.87494124417766     -1.47249129948168      0.58635661131055
  N   -1.93257817387893      0.21706205696403     -0.20544756173057
  O   -1.87992463171785      1.06015791569926     -1.09697317729559
  O   -2.92422834721996     -0.10949617148994      0.44673604090230
  C   0.82615333685139      1.32233544056142     -0.52601100661667
  N   1.12536113792431      2.38356267319130     -0.94053182768335
  N   1.67066901158250     -0.78533397203657      0.42590429880159
  O   1.44205989022841     -1.93546652361795      0.77281555948886
  O   2.76126771156630     -0.22670117025868      0.38902805821865
