11
Coordinates from ORCA-job run
  C   -0.83494598306981      0.45905150951007     -0.20478773912771
  C   0.50143431351180      0.40389830516040     -0.13020665276132
  H   -1.36643673192672      1.32858680781980     -0.57545623789253
  N   -1.70203055056815     -0.64138514166074      0.19513728527392
  O   -2.49995824972302     -0.35034506676709      1.07923835594756
  O   -1.60020225082970     -1.70373010669795     -0.40533807065831
  C   1.35746146097084      1.45672789326549     -0.54963152196416
  N   2.03853902696081      2.33722866634544     -0.93254685208573
  N   1.20023596804257     -0.80289920376156      0.38884791977025
  O   0.65300700287178     -1.40574998597979      1.30310689091757
  O   2.25289599375960     -1.08238367723408     -0.16836337741955
