11
Coordinates from ORCA-job run
  C   -0.74188733108779     -0.39461548114874      0.27918717731181
  C   0.49953369829869      0.04757181887142      0.02972646112982
  H   -0.93845868715191     -1.25168269843236      0.90935784711705
  N   -1.92014552614357      0.19429211817861     -0.33884298180700
  O   -1.86605615723512      1.36108218730261     -0.71871373215677
  O   -2.88564788170743     -0.56540470583841     -0.41921831602968
  C   0.88457365619573      1.12571148663446     -0.81095037569007
  N   1.24809420740592      2.00058881577147     -1.51058687808031
  N   1.62933041498266     -0.66923885493341      0.69872427710369
  O   1.34095159729807     -1.61735563348048      1.41479800878158
  O   2.74971200914474     -0.23094905292517      0.46651851231988
