11
Coordinates from ORCA-job run
  C   -0.72893978661012      0.08144129150079     -0.65073271338799
  C   0.50856928727101      0.31812052737040     -0.18985908367023
  H   -1.08576085218204      0.47429473679638     -1.59464291955129
  N   -1.70638498187378     -0.72830255202077      0.06070489877006
  O   -1.39438157712647     -1.18714180588782      1.15653239955564
  O   -2.78005466420145     -0.87747691186196     -0.52240015189988
  C   1.43742778587180      1.11300818557116     -0.91638042096353
  N   2.21083729851996      1.76769194542924     -1.51673443045772
  N   1.03669782930391     -0.20539033746175      1.09118007922123
  O   0.91146607285978      0.53718558805103      2.05314835640763
  O   1.59052358816741     -1.29243066748670      1.02918398597608
