11
Coordinates from ORCA-job run
  C   -0.82936891074249      0.43093546974112      0.18262454113822
  C   0.50733720307265      0.39165465127491      0.08949788322978
  H   -1.35120683826945      1.33046296548158      0.48927105831369
  N   -1.71977055167717     -0.69254789575428     -0.10616185841956
  O   -2.10089702460958     -0.78990389215200     -1.26443305944120
  O   -2.05247642895095     -1.36383871928549      0.86080916986344
  C   1.30604027899144      1.53385390925711      0.38681335274845
  N   1.92669965124076      2.50033185822326      0.64270808899126
  N   1.25314292127112     -0.81966990069213     -0.32522403990175
  O   0.59385926283261     -1.83261002586026     -0.51774269919254
  O   2.46664043684106     -0.68866842023384     -0.43716243732978
