11
Coordinates from ORCA-job run
  C   -0.82041842289133      0.35257488069207     -0.42038895160486
  C   0.50539074034770      0.19499273472143     -0.33266848671485
  H   -1.29592352275078      0.95751177352779     -1.18211373671144
  N   -1.74532029493153     -0.25219727241252      0.52484493923688
  O   -2.78105851091331      0.38323171694350      0.71822757663793
  O   -1.43147279161539     -1.32729986252093      1.02678844229886
  C   1.40899335384389      0.77018707273683     -1.26736301398779
  N   2.17066812436618      1.26909232630356     -2.01308095525478
  N   1.16382448869209     -0.59729799550888      0.73172383135289
  O   1.05025418987416     -0.16704483296573      1.87037715685453
  O   1.77506264597831     -1.58375054151711      0.34365319789261
