11
Coordinates from ORCA-job run
  C   -0.84467704290129      0.36956345941926     -0.35271171000453
  C   0.49041843331307      0.33628558947426     -0.24513272970622
  H   -1.36800628540078      1.02781832531965     -1.03399828144298
  N   -1.70241717651894     -0.54358874463699      0.38739927668521
  O   -1.40004769233966     -0.80370080486169      1.54836176767563
  O   -2.67802943137805     -0.95340063651886     -0.23593651878769
  C   1.34004905918535      1.20823544729700     -0.97978749694847
  N   2.04379116912588      1.92800808161006     -1.59012427745125
  N   1.18955720735418     -0.62819437174162      0.63627326230364
  O   1.90173484184614     -0.13065523653762      1.49563161840315
  O   1.02762691771411     -1.81037110882344      0.37102508927351
