11
Coordinates from ORCA-job run
  C   -0.73251504824646     -0.44815662437808      0.21392345409764
  C   0.50182737678523      0.02751819415821     -0.00746661650381
  H   -0.91518203421322     -1.34555229409069      0.78984276621159
  N   -1.93032268868020      0.24273298357346     -0.23886890456105
  O   -2.94544236199652     -0.02406971117461      0.40487587105606
  O   -1.84341529130694      1.01025404616380     -1.19391802250741
  C   0.86517489800178      1.20985770232146     -0.70555415094648
  N   1.21031264351434      2.19024123623833     -1.25952440133872
  N   1.64839478700321     -0.76419629133124      0.53721169113607
  O   1.37607808945499     -1.75876776421130      1.19417624261501
  O   2.76508962968380     -0.33986147726934      0.26530207074109
