11
Coordinates from ORCA-job run
  C   -0.83580768293350      0.51458717731456      0.07265404423942
  C   0.49623013302516      0.37445500979095      0.13010680635202
  H   -1.33477735686407      1.46042964987358      0.24270981810128
  N   -1.72926658320574     -0.58194049059195     -0.27072610995646
  O   -2.81839275597863     -0.23793861432214     -0.72726075456447
  O   -1.33907688506578     -1.72989750205612     -0.07503760151857
  C   1.35683949595686      1.45382925188938      0.47088434490344
  N   2.07208525743447      2.34743041069554      0.74780947020551
  N   1.19698746044255     -0.90310787402447     -0.13574072773080
  O   1.23406251511390     -1.26922596943376     -1.30093337896956
  O   1.70211640207478     -1.42762104913556      0.84653408893817
