11
Coordinates from ORCA-job run
  C   -0.72924707220841     -0.48423023260333      0.11392443224981
  C   0.49518015821339      0.06167593538304      0.06172821505063
  H   -0.90214367915637     -1.48327492914387      0.49124317845991
  N   -1.91653752884003      0.19007847116597     -0.38893943471787
  O   -2.87688586928354     -0.55375786278631     -0.59299869135079
  O   -1.87620468828031      1.40482984594484     -0.56645618075041
  C   0.86245080650112      1.33841608816992     -0.44007316391563
  N   1.22275206746969      2.37816074499839     -0.86013926250869
  N   1.62933849504561     -0.75682870450095      0.59612137933151
  O   1.37157183120861     -1.89430557737150      0.96283093396033
  O   2.72072547933025     -0.20076377925620      0.62175859419121
