11
Coordinates from ORCA-job run
  C   -0.71757697756147     -0.52239150032947      0.03313253218985
  C   0.49302659357701      0.04444197934074     -0.07749816294514
  H   -0.85811736445382     -1.59500415567655      0.04863478959985
  N   -1.92953463767197      0.26178564615698      0.21689336255699
  O   -2.84060681905020     -0.34096668826358      0.78535869491522
  O   -1.95441676167454      1.41984993003058     -0.19137997323753
  C   0.80906179635559      1.42878333178772     -0.06524049360522
  N   1.12209292970038      2.56423171430832     -0.06298604219483
  N   1.66972885638522     -0.86913983222959     -0.19845330151743
  O   2.76881827129567     -0.33493060667569     -0.11374005502596
  O   1.43752411309813     -2.05665981844944     -0.37372135073579
