11
Coordinates from ORCA-job run
  C   -0.70384203269036     -0.50222642900076      0.16597005192495
  C   0.49730789577542      0.07594709926686      0.01377188218320
  H   -0.82566737925087     -1.46529951419383      0.64322519567393
  N   -1.94806576932167      0.12616806346098     -0.25349200017263
  O   -1.89525113033895      1.13650662242121     -0.94969228394667
  O   -2.96627379081179     -0.44058735149185      0.14655069935597
  C   0.79984673090908      1.33450869000170     -0.57025544538774
  N   1.11004583843146      2.37396599397850     -1.02936599879761
  N   1.68622773627933     -0.69501514183940      0.49797495641803
  O   2.77920619730000     -0.22942146763301      0.19891842840684
  O   1.46746570371836     -1.71454656497040      1.13639451434173
