11
Coordinates from ORCA-job run
  C   -0.70445685042484     -0.52658993801798      0.10049111630942
  C   0.50218618122673      0.04876082290114      0.00234448783183
  H   -0.85168456787317     -1.51161698222188      0.52268981714928
  N   -1.92861694067116      0.15547319600761     -0.29723256133520
  O   -2.93718445260764     -0.19739897855101      0.31291795521302
  O   -1.86808080523579      0.98730128875295     -1.20009682767260
  C   0.80376445139907      1.34757890415223     -0.47886689850088
  N   1.08811985937151      2.43017487382703     -0.84448451309517
  N   1.67947644791215     -0.72829366105681      0.50431030092230
  O   2.73302694194674     -0.10874742376375      0.57689385319596
  O   1.48344973495641     -1.89764210202955      0.80203326998205
