11
Coordinates from ORCA-job run
  C   -0.86922907999940      0.44762484496319      0.06208114364274
  C   0.47002502702461      0.43908030739303      0.07121872899950
  H   -1.45319894817287      1.35266006684365      0.17622665671740
  N   -1.66421442895704     -0.76287907539977     -0.12257442302863
  O   -2.50927037970998     -0.68660290397742     -1.00829912847408
  O   -1.44820041019405     -1.70820645487095      0.62744961581941
  C   1.24314804105789      1.61591244476122      0.27404738738830
  N   1.87737555752042      2.59483742073715      0.43061587706044
  N   1.25566356691417     -0.80190202756351     -0.12401471459524
  O   2.23546236344640     -0.92063860720444      0.60200507259177
  O   0.86243869106985     -1.57188601568214     -0.98975621612163
