11
Coordinates from ORCA-job run
  C   -0.76170511484905     -0.27909448394237      0.35300669937384
  C   0.50183239462141     -0.02492411450482     -0.01851299737797
  H   -1.00368316172141     -0.91318111710415      1.19556915309343
  N   -1.90854842937036      0.33545431074531     -0.29885058531932
  O   -1.78343346125340      0.74608633024550     -1.44964208247692
  O   -2.92426338673478      0.38109362464897      0.39574821976391
  C   0.94544916204444      0.81818978451893     -1.07182432557743
  N   1.35915554689816      1.51996308724213     -1.92242996717597
  N   1.59118342205002     -0.69798704565727      0.75540985188025
  O   2.73120004198541     -0.49871161035494      0.35327020727186
  O   1.25381298632957     -1.38588876583727      1.70825582654431
