11
Coordinates from ORCA-job run
  C   -0.81635674325906      0.43978550578720     -0.32237954846301
  C   0.49025216270019      0.39585809178950     -0.02298176084544
  H   -1.29051789232097      1.31826159086863     -0.74191901613573
  N   -1.71174610376151     -0.69351631823665     -0.14721717923036
  O   -2.81512889252820     -0.56972552341003     -0.67802462946286
  O   -1.30909746453435     -1.65773923597574      0.49833380148806
  C   1.34189545801684      1.51863256873340     -0.21376347271340
  N   2.05273466886565      2.44405736203077     -0.37328368729354
  N   1.17450030862005     -0.79301748714230      0.53508594871765
  O   1.54337157403779     -1.62752871925070     -0.27732832859290
  O   1.34209292416355     -0.77606783519407      1.74547787253153
