11
Coordinates from ORCA-job run
  C   -0.71118979050165     -0.52548799767821      0.06412352593814
  C   0.49511609570295      0.05922800974568      0.02231142185948
  H   -0.84948354204513     -1.54501357419303      0.39778505862985
  N   -1.93634954824720      0.18822350237866     -0.25657049215138
  O   -1.87596167069008      1.15198402118728     -1.01621266643926
  O   -2.94307805253884     -0.25624708953787      0.29635043696370
  C   0.80828251118170      1.39230740867942     -0.35068859313389
  N   1.12055338040098      2.48488434353331     -0.66027830706687
  N   1.67443658049356     -0.78312472640846      0.41056339591800
  O   2.76193818143583     -0.21835577933982      0.38960496072098
  O   1.45473585480785     -1.95039811836697      0.70101125876124
