11
Coordinates from ORCA-job run
  C   -0.78917245243933      0.52511502500447     -0.26801312151322
  C   0.51224461678237      0.37890279907025      0.01651704114001
  H   -1.21845177433357      1.46390219388450     -0.59516515333818
  N   -1.73378797800273     -0.58129298626837     -0.21005168965737
  O   -1.51321181056942     -1.48869655318869      0.58733018674870
  O   -2.68817645869708     -0.48533488687130     -0.97930410071785
  C   1.42870835042337      1.46458915735993     -0.03635984185828
  N   2.18874358528133      2.36270662502861     -0.08549736062320
  N   1.11449556548303     -0.91161964774949      0.42456541892031
  O   1.54278126947148     -0.94078230316369      1.56984676580865
  O   1.15482708660056     -1.78748942310621     -0.42686814490955
