11
Coordinates from ORCA-job run
  C   -0.73391537698180     -0.40788561168672      0.27174642465383
  C   0.50104464792803      0.04090583118133      0.00117900110300
  H   -0.91091125136103     -1.29964918833734      0.85816547307477
  N   -1.93602069011794      0.22461769286791     -0.25060240655727
  O   -1.86020651990817      1.37180296286423     -0.68293248711658
  O   -2.94483861673968     -0.48035866591954     -0.20274118217606
  C   0.87125142922474      1.16815891450256     -0.77911568206888
  N   1.23344768206094      2.07899429519472     -1.43223228391853
  N   1.64612527870042     -0.71919417868150      0.59417838569547
  O   1.38338364954601     -1.77031622315327      1.16093564387127
  O   2.75063976764848     -0.20607582883239      0.46141911343899
