11
Coordinates from ORCA-job run
  C   -0.86020525844205      0.38578290552177      0.22820403718824
  C   0.47184180318761      0.43704431473479      0.09672635838215
  H   -1.44292904605653      1.21121827980725      0.61899344424158
  N   -1.65349356225544     -0.79344915431092     -0.11041335468703
  O   -2.29500538130201     -1.25425800277211      0.82660585202299
  O   -1.64653217407157     -1.16742738135370     -1.27645216800192
  C   1.22832567304610      1.59338610544758      0.43676542830080
  N   1.82933374354695      2.55183970516308      0.76176402955142
  N   1.26029271944066     -0.71208653762238     -0.40551307276653
  O   0.86703243367946     -1.82854110217471     -0.09477131732174
  O   2.24033904922681     -0.42250913244064     -1.08190923690996
