11
Coordinates from ORCA-job run
  C   -0.83289798337346      0.51949903396511     -0.08215005186284
  C   0.49934084231654      0.39646098575078     -0.00229174581558
  H   -1.33304165964717      1.47815392221295     -0.14205029265523
  N   -1.72962841197551     -0.62715439808981     -0.04564018710560
  O   -2.84187217881378     -0.39680459058301      0.42507016032228
  O   -1.31781610670319     -1.69734822917080     -0.48472525336859
  C   1.37074562302393      1.51913538935769     -0.04473490795769
  N   2.09212241421397      2.44942537059259     -0.07401187108826
  N   1.18813062411629     -0.90923404568836      0.12060568865171
  O   1.88630632562456     -1.21511949132487     -0.83595877744221
  O   1.01961051121783     -1.51801394702227      1.16688723832201
