11
Coordinates from ORCA-job run
  C   -0.83064793744173      0.52119604710289     -0.09269416542373
  C   0.50133752635799      0.39328802760557     -0.01741178623670
  H   -1.32613755575531      1.48030699665987     -0.17786243923066
  N   -1.73332242539256     -0.61880750150986     -0.01676175794173
  O   -1.32750272016510     -1.70526372608798     -0.42024063103716
  O   -2.84419990972070     -0.36738938140501      0.44652852361127
  C   1.37795300891618      1.50978669244856     -0.09799454693876
  N   2.10422449787691      2.43481160067287     -0.15792294985407
  N   1.18455341321015     -0.91155380932335      0.14006911725273
  O   1.86939401937973     -1.25251818009889     -0.81425466759182
  O   1.02534808273444     -1.48485676606469      1.20754530339062
