11
Coordinates from ORCA-job run
  C   -0.75734464049247     -0.33630110868308      0.31008084478426
  C   0.50238809488784      0.01842355341762      0.01647259507511
  H   -0.99040075546683     -1.14997361424623      0.98385226979280
  N   -1.91353274764124      0.29523210441067     -0.30824226106641
  O   -1.79377821932938      1.42988565956494     -0.76290208345881
  O   -2.93088759573059     -0.39839195388975     -0.31034166801185
  C   0.93277885279248      1.03377579682256     -0.87870916465828
  N   1.33500184272395      1.85397453022314     -1.62210588506210
  N   1.60179831986703     -0.73594858723825      0.69476237102736
  O   1.27303234962086     -1.63566376287808      1.45460510873259
  O   2.74094449876834     -0.37501261750355      0.42452787284533
