11
Coordinates from ORCA-job run
  C   -0.83690233476248     -0.00401580456471     -0.51745575030075
  C   0.48761955158394      0.15153258729949     -0.38829349948292
  H   -1.35274283605530      0.09986052441242     -1.46397164935314
  N   -1.69465733336222     -0.36676005999921      0.60309047465646
  O   -1.43715361098088      0.11010710411204      1.70430287078246
  O   -2.62185452732753     -1.12069810485659      0.31664176555883
  C   1.32220429566574      0.52141428671150     -1.47849007457681
  N   2.00880428243302      0.82167378315173     -2.38668863483864
  N   1.19611916668546     -0.03035692355175      0.89967153849300
  O   1.09919711108397     -1.12772995831608      1.42962062069595
  O   1.82936623503626      0.94497256560116      1.28157233836556
