11
Coordinates from ORCA-job run
  C   -0.74346929647167     -0.42643183828315      0.21846154125785
  C   0.49703744693688      0.05536649643043      0.04985305162082
  H   -0.94499011876642     -1.32462313083562      0.78676557621652
  N   -1.91167955807240      0.17806172552448     -0.40394377166677
  O   -2.87462104588595     -0.58045093167614     -0.52210813030770
  O   -1.85361390700835      1.35476015521947     -0.75125899525378
  C   0.89342386336225      1.19584940636624     -0.69793236443383
  N   1.27099552501209      2.12376413381523     -1.31730950150371
  N   1.61403921322103     -0.68278297852120      0.71791772549736
  O   2.73349880925934     -0.21039895826797      0.56028337689949
  O   1.31737906841320     -1.68111407977178      1.35827149167374
