11
Coordinates from ORCA-job run
  C   -0.74770520358306     -0.22438474076990      0.41717934590157
  C   0.49841809974131     -0.04924828568214     -0.04701871962451
  H   -0.95810814925159     -0.76874190848843      1.32813008821521
  N   -1.91277675998402      0.36290904110776     -0.22719927957799
  O   -1.84696245235327      0.64557390304507     -1.42070193548230
  O   -2.88038643949059      0.52097979514662      0.51774955142834
  C   0.90228981839232      0.67508019854342     -1.20006486577903
  N   1.28293903399260      1.27148058211813     -2.14159033707634
  N   1.61344265334679     -0.66465327740815      0.73734464671928
  O   1.30303383062552     -1.37565573898628      1.68228519618211
  O   2.74581556856399     -0.39333956862610      0.35588630909366
