16
Coordinates from ORCA-job run
  C   0.75132002643710     -0.13126802077956     -0.51035535475292
  C   -0.77878105281620     -0.07837773056091     -0.45933717168350
  Br  1.43426588368256      0.74174313992557     -2.06775918940625
  H   -1.12110049845323     -0.42590601730222     -1.43857786438524
  N   1.27608745242986     -1.56617461505913     -0.55587115807704
  O   0.52277916069175     -2.39025970897663     -1.05523347406832
  O   2.41518735521946     -1.73593171653576     -0.15051018594057
  N   1.31010774510917      0.48177009835289      0.77274691060669
  O   1.85920565726952      1.56922171874103      0.72059295645786
  O   1.06840431213916     -0.19260261637522      1.76698791822712
  C   -1.28711860438502      1.34435147317134     -0.19329779401108
  H   -1.01573025766094      1.67348028135004      0.81107510463143
  H   -2.37522241723013      1.34997870963778     -0.26699323791860
  H   -0.88335806240171      2.04671097700518     -0.92227083633714
  C   -1.32606567004594     -0.99722607719638      0.54265383540873
  N   -1.85198102998543     -1.68850989539802      1.33314954124883
