16
Coordinates from ORCA-job run
  C   0.69374008046330     -0.59972897571322      0.01735636053978
  C   -0.81869880212093     -0.37556526598318     -0.11123517438869
  Br  1.09806403896664     -2.32655146961660      0.72978075973912
  H   -1.16881171379577     -1.17225584914028     -0.77528636624504
  N   1.30345482158350      0.51670757826706      0.86665408482711
  O   1.41832040751392      1.58065372272707      0.26856974301112
  O   1.54765893079963      0.28727862020064      2.03908002330729
  N   1.39040632689285     -0.52377992399056     -1.34178712033903
  O   2.59609513308198     -0.33627906443756     -1.31452340852891
  O   0.68708284968816     -0.72047561954335     -2.32432751095764
  C   -1.24365387433784      0.98326582423883     -0.68697804350633
  H   -1.02222020161504      1.79760872533994      0.00080191995790
  H   -0.75590743123740      1.17388344280955     -1.64072270955943
  H   -2.32270031672859      0.95347367026050     -0.84875004386981
  C   -1.43429671309381     -0.56817103366266      1.20364848274718
  N   -1.96853353606060     -0.67006438175618      2.24471900326538
