16
Coordinates from ORCA-job run
  C   0.75178170160602     -0.13070944232192     -0.51127338068795
  C   -0.77850994453127     -0.07614562889625     -0.46136119402486
  Br  1.43676274025632      0.74851787339582     -2.06438204297527
  H   -1.12092143391989     -0.41602643667027     -1.44311510661303
  N   1.27521689922308     -1.56520860729844     -0.56205005365244
  O   0.52213587797302     -2.38586941767881     -1.06764673598602
  O   2.41324003557325     -1.73828447007504     -0.15485747679963
  N   1.30878554476950      0.47776162510751      0.77548062478339
  O   1.06396494463776     -0.19986329459100      1.76674904373117
  O   1.86038667827079      1.56393458286037      0.72744605468888
  C   -1.28450757550709      1.34559074217700     -0.18552942790738
  H   -2.37224145117302      1.35476259791269     -0.26415290692845
  H   -1.01683047313165      1.66504647901219      0.82287797454629
  H   -0.87541882126448      2.05333800262681     -0.90627159885688
  C   -1.32817853033080     -1.00044468368131      0.53412229671809
  N   -1.85466619245152     -1.69539992187934      1.32096392996408
