16
Coordinates from ORCA-job run
  C   0.66822891528621     -0.26928411084947      0.19057656362247
  C   -0.69614464917387      0.08389951593475     -0.40526707537996
  Br  0.63176302124671     -0.59074103113667      2.06058731660777
  H   -0.49667039990640      0.36230404966639     -1.44498718388318
  N   1.71622395753653      0.81121863879898     -0.11832206707335
  O   2.84322671940869      0.57636530155957      0.28906570602047
  O   1.34773098495235      1.77894070100507     -0.77110191357014
  N   1.21708911416336     -1.48912921115630     -0.58477155179138
  O   1.40073209962153     -1.24105923949228     -1.77128616385541
  O   1.38594885833221     -2.54308962100237     -0.00250968029906
  C   -1.43181280120563      1.22441619085011      0.30482658380159
  H   -0.80383544335462      2.11192329332214      0.35430800885474
  H   -1.73251503260426      0.92967141887403      1.30913559668668
  H   -2.32933070800659      1.46695524638011     -0.26663258746023
  C   -1.51765584119367     -1.12833043299674     -0.40934834797768
  N   -2.20197879510255     -2.08306070975731     -0.40627320430334
