16
Coordinates from ORCA-job run
  C   0.67964809012446     -0.62178841870360     -0.01871954873117
  C   -0.82801099405498     -0.35427321302892     -0.11950430540146
  Br  1.04675767701875     -2.38997331665187      0.60742391894957
  H   -1.20512894189707     -1.11049434224399     -0.81525562747019
  N   1.32604575696117      0.43763604802408      0.87507171753178
  O   1.46148246557496      1.52565339186901      0.32669256831925
  O   1.57650150150907      0.14690216953444      2.03243243039902
  N   1.36415188797457     -0.49938938356217     -1.38077592794091
  O   0.64593287366527     -0.63132960498863     -2.36336682870050
  O   2.57441010833740     -0.34337008994313     -1.35833073864478
  C   -1.22455993120344      1.03986776695763     -0.62702806128239
  H   -0.97341452748578      1.81597313689298      0.09389511098681
  H   -2.30598012500430      1.04520305806919     -0.77523540543373
  H   -0.74392678550963      1.26123131557410     -1.57772590084819
  C   -1.43425116569676     -0.59189664705209      1.19242074249002
  N   -1.95965789031368     -0.72795187074702      2.23400585577687
