16
Coordinates from ORCA-job run
  C   0.67634872921771     -0.62568160879223     -0.01585933434878
  C   -0.82990835254422     -0.35127104447023     -0.12010897200382
  Br  1.03337075655536     -2.39440599857251      0.61499164115451
  H   -1.21030344382672     -1.10951225663176     -0.81177847525529
  N   1.32518953291917      0.43256065181647      0.87812135057494
  O   1.57175273568183      0.14240094492574      2.03636414334770
  O   1.46512896384723      1.51944270052133      0.32855249141831
  N   1.36483404196177     -0.50935148051801     -1.37605011780913
  O   2.57533773706350     -0.35565071199325     -1.35087150789434
  O   0.64894161148068     -0.64373356108742     -2.36011133188930
  C   -1.21926696582599      1.04202713439740     -0.63572563714366
  H   -2.30072926790578      1.05212753622107     -0.78343768653675
  H   -0.96376894957400      1.82077985256394      0.08079065686408
  H   -0.73770934066458      1.25522992578476     -1.58781317303707
  C   -1.43722503979218     -0.57686493815504      1.19329434715279
  N   -1.96099274859380     -0.69809714601027      2.23764160540583
