16
Coordinates from ORCA-job run
  C   0.93190753385697      0.17426997872754      0.82158086086077
  C   -0.52082253069881      0.01340975857679      0.39629412023403
  F   1.17558373980206     -0.74939617230362      1.85140542175941
  H   -1.09686076605297      0.10015542664185      1.32450701760680
  H   1.07475685512384      1.15010971735473      1.30362534722154
  N   1.85392732527582     -0.06123003994684     -0.23462426678500
  H   2.68646125675849      0.50337539948085     -0.17915692999845
  H   1.44822233501912     -0.00936803633262     -1.15414835929141
  C   -0.78791444890746     -1.36880434706411     -0.19436588559756
  H   -0.28920834153523     -1.50515921876074     -1.15744108760930
  H   -1.85990045760581     -1.50927515390528     -0.35509437508301
  H   -0.43352643774017     -2.14901914308644      0.47983395468795
  C   -0.95592625420053      1.13603164517999     -0.54227941942409
  H   -0.72410265560254      2.12074389875047     -0.12609737479123
  H   -0.46872852527722      1.06180097235799     -1.51879333436336
  H   -2.03386862821556      1.09235531432945     -0.71524568942709
