16
Coordinates from ORCA-job run
  C   0.90734622109189      0.36516881504629      0.71419147371827
  C   -0.54271031818519      0.04466158819598      0.38759597391362
  F   1.29750677497716     -0.47442255531929      1.78853011355377
  H   -1.07539670258141      0.10481597214167      1.34381222653714
  H   0.99530604839953      1.38379365598518      1.10317141577586
  N   1.77191507480615      0.22546861743635     -0.40086673945825
  H   1.80284599947871     -0.73734862837619     -0.71031790828670
  H   2.71151887467393      0.51571468127025     -0.16406721908978
  C   -0.70222542701083     -1.37185142278748     -0.15918883389377
  H   -0.21103070173186     -2.10179580132153      0.48742153772053
  H   -0.28992944356084     -1.45668131333427     -1.16881579762755
  H   -1.76060137021439     -1.63560681879708     -0.22157469196487
  C   -1.11662312023993      1.08594595098004     -0.56771983245465
  H   -1.03541447306420      2.09484359826406     -0.15301739147782
  H   -0.57846430605876      1.06929194770971     -1.51707048663403
  H   -2.17404313077997      0.88900171290630     -0.76208384033175
