13

C	-0.390475	0.07175	-1.463844
C	0.0	0.0	0.0
Cl	-2.164776	0.171039	-1.710597
H	1.094973	0.0	0.0
H	0.051806	0.92495	-1.972223
H	-0.382612	-0.928628	0.424915
N	0.076212	-1.139503	-2.222863
O	0.648809	-0.93408	-3.289321
O	-0.16667	-2.235927	-1.731233
N	-0.431079	1.148983	0.780591
H	-1.3702	1.437178	0.540958
H	0.206355	1.918404	0.625879
Cl	3.413913	0.0	0.0
