13

C	-0.578962	-0.081395	-1.397133
C	0.0	0.0	0.0
Cl	0.073075	-1.430095	-2.322184
H	1.096582	0.0	0.0
H	-1.660107	-0.192557	-1.345044
H	-0.367296	0.934692	0.433441
N	-0.350966	1.226296	-2.121407
O	-1.156943	2.10205	-1.810209
O	0.582135	1.353717	-2.896633
N	-0.554583	-1.126352	0.77337
H	-0.422129	-0.906223	1.754222
H	0.048868	-1.924037	0.599403
Cl	3.481738	0.0	0.0
