13

C	-0.481914	-0.016974	-1.433469
C	0.0	0.0	0.0
Cl	0.038295	1.394222	-2.346645
H	1.098612	0.0	0.0
H	-0.132088	-0.908192	-1.952035
H	-0.347228	-0.932712	0.451482
N	-1.996276	-0.120615	-1.431218
O	-2.411076	-1.206199	-1.031028
O	-2.689921	0.82443	-1.772997
N	-0.604624	1.1268	0.71572
H	-0.065337	1.955173	0.490569
H	-0.461607	0.967308	1.705971
Cl	3.475242	0.0	0.0
