13

C	-0.518574	0.062489	-1.427411
C	0.0	0.0	0.0
Cl	-2.190375	0.67252	-1.506734
H	1.091572	0.0	0.0
H	0.100304	0.703893	-2.051806
H	-0.300639	0.941462	0.477892
N	-0.449437	-1.30894	-2.050265
O	0.682109	-1.635307	-2.393057
O	-1.458316	-1.995432	-2.133687
N	-0.489206	-1.189589	0.677706
H	0.240057	-1.542891	1.280408
H	-1.312381	-0.997499	1.229294
Cl	3.451021	0.0	0.0
