13

C	-0.483795	-0.025508	-1.431893
C	0.0	0.0	0.0
Cl	0.031256	1.382828	-2.353346
H	1.098632	0.0	0.0
H	-0.126258	-0.917482	-1.943853
H	-0.346732	-0.928669	0.460572
N	-1.99876	-0.13773	-1.43437
O	-2.696804	0.803318	-1.778713
O	-2.408757	-1.227158	-1.036926
N	-0.609099	1.13157	0.706543
H	-0.076499	1.963514	0.477191
H	-0.471749	0.983684	1.698825
Cl	3.486952	0.0	0.0
