18

C	-0.649303	-0.029727	-1.386793
C	0.0	0.0	0.0
Br	0.238521	1.265976	-2.548962
H	1.094487	0.0	0.0
N	-0.419475	-1.376731	-2.064217
O	0.533799	-2.052091	-1.691065
O	-1.190949	-1.694112	-2.968856
C	-2.133042	0.255666	-1.364606
H	-2.550951	0.236559	-2.369423
H	-2.617444	-0.501372	-0.743686
H	-2.273995	1.241582	-0.922837
N	-0.517534	-1.161199	0.759679
H	0.055705	-1.954331	0.476595
H	-0.24536	-0.978019	1.723753
N	-0.382532	1.247716	0.639098
H	0.427209	1.579866	1.154008
H	-1.159208	1.099364	1.276314
H	2.877342	0.0	0.0
