18

C	-0.4037	0.01141	-1.460184
C	0.0	0.0	0.0
Br	-2.394642	0.053308	-1.68764
H	1.104488	0.0	0.0
N	0.098659	1.292663	-2.11714
O	-0.41345	2.360378	-1.786953
O	1.026948	1.182121	-2.912855
C	0.144581	-1.183732	-2.192259
H	-0.306902	-2.070467	-1.754508
H	1.225996	-1.203279	-2.01892
H	-0.064424	-1.129086	-3.260948
N	-0.401335	-1.282006	0.578586
H	-1.094131	-1.06756	1.287041
H	0.421318	-1.639621	1.05948
N	-0.442933	1.133377	0.793961
H	-1.088003	1.71904	0.280643
H	0.378581	1.689243	1.008703
H	2.744827	0.0	0.0
