18

C	-0.439927	-0.035315	-1.459267
C	0.0	0.0	0.0
Br	-0.335961	-1.833591	-2.220262
H	1.101347	0.0	0.0
N	-1.917102	0.335382	-1.573369
O	-2.299219	0.90334	-2.592479
O	-2.649569	0.034827	-0.630088
C	0.3979	0.903191	-2.294075
H	0.217801	1.920385	-1.945802
H	1.445659	0.649816	-2.101559
H	0.158656	0.822236	-3.353143
N	-0.417514	-1.129192	0.792371
H	0.255536	-1.249252	1.54045
H	-1.34623	-0.99663	1.170673
N	-0.355534	1.344789	0.481127
H	-1.192178	1.299424	1.050803
H	0.417094	1.666623	1.055769
H	2.835584	0.0	0.0
