18

C	-0.39692	-0.14106	-1.471548
C	0.0	0.0	0.0
Br	-0.146372	-1.980813	-2.107395
H	1.110724	0.0	0.0
N	-1.890954	0.121827	-1.638687
O	-2.257792	0.875445	-2.533201
O	-2.647877	-0.437934	-0.847026
C	0.414657	0.788773	-2.334538
H	0.201426	0.653629	-3.3941
H	0.176642	1.811645	-2.042113
H	1.468767	0.593845	-2.110082
N	-0.422186	-1.028783	0.925699
H	-1.216045	-1.556602	0.589279
H	0.365046	-1.648302	1.081211
N	-0.461449	1.337568	0.393106
H	-1.1323	1.194577	1.140067
H	0.340383	1.796207	0.814661
H	2.834287	0.0	0.0
