15
Coordinates from ORCA-job run
  C   -0.46147905968902     -0.26041976053309     -0.20072886250383
  C   0.67460640973938      0.29903324272845      0.22023344834468
  N   -0.36434113953970     -1.16686921679357     -1.36505683775233
  O   0.42727240052400     -2.10072051743076     -1.28179740172263
  O   -1.12245404460140     -0.91743941248639     -2.29610703679246
  C   -1.83749375733826     -0.11087354535911      0.33856120384732
  H   -2.50312648696032      0.17089554758385     -0.47911358209044
  H   -1.88444715583563      0.62801699389189      1.13368878351020
  H   -2.17431857041587     -1.07254851570660      0.73695598300792
  N   1.98194898907215      0.09010185678589     -0.40761924065068
  O   2.87667738416801     -0.23024812145021      0.36738612489976
  O   2.05883122814832      0.25940948295811     -1.61802091122218
  N   0.75283633651786      1.23236212463306      1.34412495639122
  O   1.45017977058999      2.22311687221415      1.14690521601056
  O   0.12630769562051      0.95518296896434      2.36158815672288
