15
Coordinates from ORCA-job run
  C   -0.48404653184278     -0.23452842517196     -0.17787439589126
  C   0.69746695112152      0.27686499013019      0.17366433344703
  N   -0.54941951751855     -0.92038077399436     -1.48648716575524
  O   -1.43018859624178     -0.53069435759209     -2.24549717876032
  O   0.24702047577199     -1.83353221994236     -1.67959130629387
  C   -1.77009486292722     -0.22337548910887      0.56558925193650
  H   -2.54789327593819      0.17208712260300     -0.08988154322468
  H   -2.03905866981252     -1.24902965724226      0.83515171182131
  H   -1.70843288398685      0.36785465961859      1.47506271340333
  N   0.92994655593983      1.00088115994960      1.42341676559873
  O   1.58817593810896      2.03081982239142      1.31037903518882
  O   0.45506036270322      0.53154691939430      2.45237272965666
  N   1.90365715310884      0.21877501645422     -0.65631146729281
  O   2.90132186616571     -0.20297273270615     -0.08152829552529
  O   1.80648503534784      0.59568396521672     -1.81746518830893
