15
Coordinates from ORCA-job run
  C   -0.47885177928632     -0.23548334372992     -0.18953453071087
  C   0.69188039766667      0.27901086925513      0.19193435638428
  N   -0.51121012108720     -0.91155786905957     -1.50418220705477
  O   0.29490497313209     -1.81870771474301     -1.68629988648609
  O   -1.37860277267822     -0.52336523163475     -2.27926686718529
  C   -1.78227921859427     -0.23440736188631      0.52298226815406
  H   -1.73883494019513      0.33281203044810      1.44855694224440
  H   -2.06458749719902     -1.26485625584156      0.75826848624947
  H   -2.54167093642322      0.18256431129452     -0.14084583870612
  N   0.89504324699060      0.99503007413890      1.45151257063179
  O   0.39988038930813      0.51763970969262      2.46702155472291
  O   1.55263650321574      2.02747966404448      1.35930412873328
  N   1.91655868473593      0.23105081111494     -0.61144689387531
  O   2.90134967806347     -0.19574676650982     -0.01843715554681
  O   1.84478339235073      0.61953707341625     -1.77056692755494
