15
Coordinates from ORCA-job run
  C   -0.53427331308098     -0.15448095875095     -0.10832072412659
  C   0.72861862989546      0.14208830498794      0.20513791740043
  N   -1.06052191536076     -1.43971595756411      0.39947052795417
  O   -1.55498430961486     -2.18040704387742     -0.44350717328980
  O   -0.99332266628561     -1.63238099141590      1.60943485867127
  C   -1.51313406557621      0.62986373465023     -0.90399588976529
  H   -1.06471975313414      1.51910295722839     -1.33833943313256
  H   -1.91711017859246     -0.01176824811693     -1.68891815419883
  H   -2.33885676639222      0.93849857436813     -0.25595617495164
  N   1.40841199677169      1.36214560210575     -0.23015370241515
  O   0.79107052824369      2.41914979958608     -0.15187577324102
  O   2.55235234319838      1.19807499742125     -0.64403714925683
  N   1.61197474474349     -0.72556577829720      0.98844482494762
  O   1.71414025921512     -1.89301770590410      0.63285764471088
  O   2.17035446596942     -0.17258728642115      1.92975840069335
