15
Coordinates from ORCA-job run
  C   -0.47413399009269     -0.19335620361577     -0.24368569081170
  C   0.68733251100961      0.21860023279659      0.26870591792822
  N   -0.41715069067448     -0.86788611102711     -1.55846448216683
  O   0.33151184069201     -1.83492132761582     -1.65874754920108
  O   -1.16133725702751     -0.41356116542833     -2.42079051549646
  C   -1.84275939225180     -0.08003967718189      0.32261676239188
  H   -2.22188845379458     -1.08050005288848      0.55153431136314
  H   -2.49456776776221      0.36776837991388     -0.42935874701949
  H   -1.85796281025142      0.51131355737457      1.23392870313953
  N   1.98449356632331      0.06576983221523     -0.39578189701161
  O   2.85612903045817     -0.44974895041487      0.29558006826936
  O   2.07658465631906      0.46660909557880     -1.54922819444043
  N   0.80985051366443      0.91735845918146      1.54821893769538
  O   1.56625726382117      1.88402990327678      1.54072736357342
  O   0.15764097956694      0.49156402783494      2.49574501178668
