15
Coordinates from ORCA-job run
  C   -0.52090495283728     -0.17896470397312     -0.13132512390290
  C   0.72495576757997      0.16084202675501      0.20495809025692
  N   -0.99145103386259     -1.50766326857748      0.31609773826873
  O   -2.04777786760900     -1.51403006945767      0.93878626717939
  O   -0.31345420138389     -2.47821596594262     -0.00617048441977
  C   -1.52723308913735      0.59021493783735     -0.90735261964795
  H   -1.17910036530934      1.59175318589793     -1.14429090764973
  H   -1.73886682181883      0.06445639781220     -1.84318340369103
  H   -2.45099927983432      0.63802345634286     -0.32811979968045
  N   1.33979626542320      1.44266067025897     -0.14098197034912
  O   1.18022835077198      1.86366560725827     -1.28185096507641
  O   1.96306869355987      1.98004328715147      0.76975410023382
  N   1.62658619027232     -0.68129908637640      0.99591266427656
  O   1.19795483071200     -1.12651062533803      2.05313325322856
  O   2.73819751347326     -0.84397584964873      0.50463316097336
