15
Coordinates from ORCA-job run
  C   -0.50370992590202     -0.21568631262759     -0.14248172930331
  C   0.71216847793348      0.21049457915265      0.20498591429690
  N   -0.79570766441299     -1.64751133529382      0.08511562899828
  O   -1.80860451436811     -1.88577403274084      0.73394978140904
  O   -0.03073419524664     -2.46131585213824     -0.42296428810082
  C   -1.63124065231543      0.54448849441394     -0.74017482099686
  H   -1.41369438457770      1.60664970761819     -0.81035450942983
  H   -1.83001616820528      0.16194900746151     -1.74572941433438
  H   -2.52232412145586      0.38083989252528     -0.13164389140611
  N   1.15825437012229      1.59665601794871      0.06438268769065
  O   0.89019129662284      2.17948274240228     -0.98107055925847
  O   1.76417689274948      2.04682246929994      1.03231879669030
  N   1.74414260058476     -0.63695908285082      0.80851647397569
  O   2.83945447012337     -0.57903130556192      0.26030746135186
  O   1.42564351834782     -1.30110498960927      1.78684246841706
