15
Coordinates from ORCA-job run
  C   -0.49521816084933     -0.15564043845622     -0.22745352965169
  C   0.71022725009699      0.15096096569048      0.25634256072821
  N   -0.52899666735512     -1.01418375697855     -1.43122144378321
  O   0.07215429494200     -2.08242548363573     -1.37372211223233
  O   -1.19444248695519     -0.58759506998793     -2.36884903243951
  C   -1.83677680040161      0.23910585075025      0.27369563410521
  H   -2.36982337497758     -0.65261187299014      0.61673201721767
  H   -2.40129042242140      0.67685267517713     -0.55129015685720
  H   -1.77175758776804      0.94171732805550      1.09984362518901
  N   0.92421412082741      1.00167862029511      1.42699470652761
  O   1.81490939557892      1.83739878234035      1.30428027605680
  O   0.21018568997831      0.81521816805053      2.40675605836680
  N   1.97614383696388     -0.28375667802352     -0.33974114991257
  O   2.75436302618447     -0.81746281359801      0.44317321050779
  O   2.13810788615630     -0.06925627668926     -1.53454066382258
