15
Coordinates from ORCA-job run
  C   -0.51488230293713     -0.19948770706515     -0.12579061149199
  C   0.71177578535145      0.19739948154024      0.21853135468099
  N   -0.89335675159652     -1.58153569243304      0.23946017064486
  O   -0.79772610532204     -1.89287583179831      1.42239891079150
  O   -1.30889908449438     -2.27806854685893     -0.68016568904922
  C   -1.58267447677996      0.55570684281228     -0.83013405660716
  H   -2.42647482657188      0.70435084696894     -0.14972095758916
  H   -1.23697264191337      1.52845923523953     -1.16882018790149
  H   -1.92841366270454     -0.03834770124858     -1.67781962348403
  N   1.25029003846284      1.52403489044727     -0.08087701751582
  O   2.40065290220462      1.53176539822028     -0.50906934526454
  O   0.52286179422008      2.49266932853570      0.11174781086287
  N   1.69178451098235     -0.64870212607047      0.90476613007099
  O   1.91308596400255     -1.75432119154000      0.42695436728512
  O   2.19894885709595     -0.14204722674976      1.89953874456709
