15
Coordinates from ORCA-job run
  C   -0.32416151736302     -0.02069383061179     -0.51815020980817
  C   0.83212031899065      0.30516806077768      0.34183291564817
  N   -0.43218144651211     -1.54400156725498     -0.65312099337489
  O   -1.48212763821304     -1.98545781424130     -1.10329298674277
  O   0.56989471716115     -2.19171784376026     -0.36161076358141
  C   -1.65820571463814      0.59818357284501     -0.22992956515259
  H   -1.52488278587443      1.67651771851265     -0.13350501319373
  H   -2.34010648032568      0.38916103952481     -1.05347325529310
  H   -2.07504915711842      0.19264761746840      0.69381100910676
  N   1.64652282244095      0.73836996553222     -0.60665172132232
  O   0.30958983676209      0.47357887437889     -1.68117773336462
  O   2.70019357528483      1.17356988994229     -0.87878007665526
  N   1.18244693490320      0.11410281150222      1.71491982381861
  O   2.30692280725000      0.45843882561131      2.06918279537156
  O   0.28902372725198     -0.37886732022716      2.40094577454376
