15
Coordinates from ORCA-job run
  C   -0.51791687062084     -0.20950135284128     -0.09509050192296
  C   0.72057399322115      0.20751230538179      0.17509086361180
  N   -0.80739541565303     -1.63857258568855      0.14976277109427
  O   -1.29354528125854     -2.25087234488015     -0.79493811020585
  O   -0.57677765051673     -2.07071123435850      1.27484214928229
  C   -1.67482718493573      0.56290183749154     -0.61604362436793
  H   -1.40543130231788      1.58861743269276     -0.85232287241023
  H   -2.05784507567654      0.05844323016316     -1.50493510641268
  H   -2.46845976076838      0.57547946754477      0.13682085917320
  N   1.17741025916819      1.58190005343029     -0.03019045332725
  O   0.44344925700245      2.49046006344292      0.34416064552028
  O   2.27322334024498      1.68682921725644     -0.57349818205945
  N   1.79583314140144     -0.65627826202221      0.66969775386994
  O   2.37999274238757     -0.23015203353737      1.66012952878570
  O   2.01171580832190     -1.69405579407562      0.05651427936886
