15
Coordinates from ORCA-job run
  C   -0.47333400163830     -0.22903658632536     -0.21133172355687
  C   0.68616310857257      0.26978116657259      0.22167367688385
  N   -0.45594270757624     -0.91109502635833     -1.52316290524653
  O   -1.27606961825397     -0.50895517385460     -2.34130768534926
  O   0.34792472822064     -1.82705217226657     -1.66624533214947
  C   -1.80679676223837     -0.20689879358113      0.44305263257335
  H   -2.53420945222887      0.19779538164691     -0.26270538826266
  H   -1.80191205271945      0.38090818100983      1.35681625863986
  H   -2.10340216923310     -1.23068816249719      0.68982732940846
  N   1.94606854810217      0.20291789299951     -0.52345405411327
  O   1.93071497954866      0.57665032784245     -1.68956044499930
  O   2.89755201437188     -0.23096232076657      0.11685548821252
  N   0.83871848405241      0.98776056376738      1.48715017972761
  O   0.29519483090759      0.51603406151058      2.48044997521662
  O   1.50933007011239      2.01384066030051      1.42294199301510
