15
Coordinates from ORCA-job run
  C   -0.48658060386330     -0.22755842297912     -0.18014910039440
  C   0.69845982180461      0.27560952769503      0.17128283187944
  N   -0.49564907137039     -1.17807691899885     -1.31285003929308
  O   -0.00006903475122     -0.79491418462601     -2.36796240509947
  O   -1.03981308831677     -2.25559400184369     -1.09689518058581
  C   -1.82723977762717      0.03203623214244      0.40439183453673
  H   -2.29094527486921     -0.92486412534254      0.65001887672241
  H   -2.45322273853020      0.53374356493604     -0.33958196889178
  H   -1.77058828857391      0.66108043598494      1.28844309274048
  N   0.88704995735554      1.21280453167008      1.27855088725583
  O   0.09093038351242      2.13999883509827      1.38400046423947
  O   1.84263781628060      0.96666173977628      2.00871738020913
  N   1.96805236470630     -0.07086750804404     -0.47293753380436
  O   2.23192451574879     -1.26064665747079     -0.59328715616365
  O   2.64505301849392      0.89058695200195     -0.82074198335094
