15
Coordinates from ORCA-job run
  C   -0.52323468179375     -0.16920978386553     -0.13675067357780
  C   0.73212594741520      0.14324005653141      0.19118578351743
  N   -0.91582810404462     -1.58720121259589      0.01387313383561
  O   -0.22637681758533     -2.42238966918236     -0.56300479081149
  O   -1.92725630519446     -1.79018683078572      0.67679539746571
  C   -1.60751045796650      0.70989423645802     -0.64491409152474
  H   -2.49112833061447      0.56949563064431     -0.02008613940204
  H   -1.31352083365140      1.75580399017625     -0.65215745800010
  H   -1.86166173462029      0.41327059836828     -1.66692347863583
  N   1.71667439686274     -0.81323721620997      0.70393430474836
  O   2.79223748448449     -0.80526753643221      0.11506151260265
  O   1.38401019461424     -1.50846457405228      1.65546395938995
  N   1.27637690417678      1.49931004746626      0.11877638617222
  O   1.01859610454027      2.16587266380294     -0.87806764490721
  O   1.94649623337711      1.84106959967648      1.08881379912731
