15
Coordinates from ORCA-job run
  C   -0.53035637876489     -0.18692401798660     -0.07264292845823
  C   0.73993255049583      0.17059845772490      0.12611190656358
  N   -0.93913769743578     -1.50726269063904      0.45268449832912
  O   -0.28380354240964     -2.47989342476570      0.09183192235334
  O   -1.92965887183150     -1.50691188785071      1.17566961934710
  C   -1.61698062875729      0.55497234466386     -0.76222853095611
  H   -1.30649849713143      1.55542834720777     -1.05080226601507
  H   -1.91017379215652      0.00851391838295     -1.66354448499759
  H   -2.48099223596336      0.60513846732346     -0.09744878319846
  N   1.30230473926009      1.44843474420113     -0.31169243543849
  O   1.02405935895003      1.83764962236736     -1.44111232658729
  O   2.00729527331624      2.01554166754724      0.51778958045856
  N   1.72636649540863     -0.64256136883964      0.84216805302428
  O   1.41356563796610     -1.06065198305682      1.94990346557448
  O   2.78307758905349     -0.81107219628015      0.24331271000076
