13

C	-0.51004	-0.173751	-1.417643
C	0.0	0.0	0.0
F	-0.181867	-1.435184	-1.911691
H	1.095744	0.0	0.0
H	-0.078146	0.569893	-2.094557
H	-1.602139	-0.08684	-1.41642
N	-0.438966	-1.049129	0.902447
H	0.089897	-1.889694	0.706565
H	-1.419255	-1.246596	0.735695
N	-0.563567	1.262911	0.497005
H	-0.331351	1.284277	1.484733
H	-0.045564	2.026152	0.071484
Br	3.734121	0.0	0.0
