13

C	-0.4819	0.045288	-1.444367
C	0.0	0.0	0.0
F	-0.256413	1.295625	-2.027145
H	1.095743	0.0	0.0
H	0.050079	-0.697176	-2.046343
H	-1.576364	-0.138116	-1.473935
N	-0.54295	-1.2367	0.592092
H	-0.730315	-1.903236	-0.163552
H	0.208853	-1.670611	1.135368
N	-0.436178	1.132001	0.791995
H	0.00457	1.969193	0.440506
H	-1.439473	1.228037	0.675605
Br	3.720011	0.0	0.0
