19

C	-0.421046	-0.00345	-1.46765
C	0.0	0.0	0.0
Cl	0.376228	1.284742	-2.379528
H	1.095612	0.0	0.0
N	-0.175953	-1.235116	-2.112493
H	-0.355953	-1.170449	-3.106694
H	-0.746651	-1.963062	-1.705155
N	-1.969719	0.332899	-1.505146
O	-2.711978	-0.649733	-1.431021
O	-2.351084	1.495754	-1.522844
C	-0.440602	-1.271844	0.723639
H	0.048369	-2.152665	0.303923
H	-1.527017	-1.410123	0.712903
H	-0.115814	-1.199963	1.764202
C	-0.46341	1.242673	0.753477
H	0.068647	1.27767	1.706941
H	-1.539351	1.229043	0.95867
H	-0.227368	2.157907	0.209855
Cl	3.473187	0.0	0.0
