19

C	-0.542238	-0.001719	-1.419465
C	0.0	0.0	0.0
Cl	0.370125	-1.231833	-2.425419
H	1.090973	0.0	0.0
N	-1.94514	-0.176744	-1.478714
H	-2.262889	-0.104632	-2.437078
H	-2.185462	-1.084271	-1.103745
N	-0.244813	1.305984	-2.164072
O	-1.014539	1.597801	-3.0802
O	0.744884	1.938824	-1.83312
C	-0.425108	-1.285636	0.716434
H	-0.180878	-2.175834	0.133154
H	0.133487	-1.352913	1.652166
H	-1.493646	-1.289082	0.962182
C	-0.500099	1.213375	0.784975
H	-0.085891	2.141494	0.392698
H	-1.592101	1.27011	0.780065
H	-0.156955	1.120022	1.818099
Cl	3.506851	0.0	0.0
