19

C	-0.541599	-0.049671	-1.422483
C	0.0	0.0	0.0
Cl	0.285961	-1.272349	-2.410001
H	1.093317	0.0	0.0
N	-1.937662	-0.29866	-1.474488
H	-2.418377	0.413619	-0.939103
H	-2.265794	-0.243873	-2.431015
N	-0.197463	1.324189	-2.093465
O	0.969903	1.574046	-2.33927
O	-1.152627	2.089871	-2.259225
C	-0.438847	-1.24393	0.770867
H	0.080453	-1.25503	1.732361
H	-0.161129	-2.153021	0.23507
H	-1.518237	-1.261308	0.944514
C	-0.438477	1.273258	0.727204
H	-0.014777	1.24682	1.733408
H	-1.527459	1.362198	0.825278
H	-0.053332	2.174012	0.24527
Cl	3.488152	0.0	0.0
