19

C	-0.524839	0.04453	-1.43226
C	0.0	0.0	0.0
Cl	0.211555	-1.218384	-2.449015
H	1.093309	0.0	0.0
N	-1.938984	-0.080652	-1.522952
H	-2.225915	0.008233	-2.490163
H	-2.360275	0.684184	-1.010456
N	-0.044919	1.398516	-2.070789
O	1.149716	1.559312	-2.252907
O	-0.931014	2.2341	-2.276833
C	-0.46912	-1.274283	0.695544
H	-0.133265	-2.16085	0.1567
H	-1.558928	-1.310114	0.782073
H	-0.026994	-1.311447	1.694853
C	-0.445481	1.236732	0.78318
H	-0.100043	2.165924	0.325509
H	0.004048	1.187465	1.777901
H	-1.534076	1.28728	0.911479
Cl	3.393876	0.0	0.0
