12

C	-0.52172	-0.036923	-1.416237
C	0.0	0.0	0.0
F	-0.309162	1.182848	-2.064743
H	1.094335	0.0	0.0
H	-1.605508	-0.214145	-1.440573
H	-0.012602	-0.808541	-2.000418
H	-0.308085	-0.941053	0.475139
C	-0.536821	1.186861	0.790376
H	-0.151932	1.169936	1.812177
H	-1.632517	1.186749	0.833564
H	-0.214147	2.12099	0.329567
Br	3.81622	0.0	0.0
