12
Coordinates from ORCA-job run
  C   0.60897744459572      0.67601309808911     -0.14132105919108
  C   -0.86475509518839      0.34068779529915     -0.07780285505737
  Br  1.01548228757888      1.89668082782830     -1.58297471524556
  H   -1.39541954768300      1.27031781955325      0.14057127940933
  H   0.97473233045196      1.10677155270248      0.78757713763599
  H   -1.19516379777121     -0.01678259110386     -1.05750700648128
  N   1.41932197172918     -0.57616497654399     -0.35056151666278
  O   0.90247281181655     -1.47506149020089     -1.00912404713476
  O   2.53889383262653     -0.59371950314061      0.14672302079173
  N   -1.04810302527553     -0.60833318109862      1.01165274532262
  H   -1.02119936683057     -1.55526346825039      0.65888960938108
  H   -1.93423984605010     -0.46414588313394      1.47387740723208
