12
Coordinates from ORCA-job run
  C   0.64835253081733      0.69163327498253     -0.10096128312521
  C   -0.47805552312205      0.16289280678709      0.77173854300784
  Br  0.00988703572626      1.91157568392368     -1.44626024320319
  H   -0.00873794056864     -0.42755868010583      1.56182590551678
  H   1.40650941923906      1.21231606713588      0.48266935486861
  H   -0.97250197549847      1.02612986172660      1.23781608229576
  N   1.35496058320582     -0.50171008895610     -0.71263136873986
  O   1.28394725258372     -0.72205390901048     -1.90851842268248
  O   1.94307245472956     -1.17902239869731      0.12632327809379
  N   -1.33518481591995     -0.70764884675894     -0.01053170455789
  H   -1.96186362190378     -0.16960849149689     -0.59435370144533
  H   -1.89038539928885     -1.29594527953023      0.59488355997120
