12
Coordinates from ORCA-job run
  C   0.51122844303382      0.41182282816992     -0.42303193764360
  C   -0.55551106290239     -0.34458306286886      0.35766655480124
  Br  0.15111604263708      0.41708060947626     -2.31537917734984
  H   -0.17736658543125     -0.47393404705136      1.37988302262553
  H   0.59899255548951      1.44707613443543     -0.10276159086193
  H   -0.65360139004742     -1.34027196472744     -0.07813454721780
  N   1.85016904808705     -0.22072668595741     -0.18356858843492
  O   1.93710147788483     -1.42977095036184     -0.37339061167701
  O   2.74357403107215      0.51720213874160      0.22584646707810
  N   -1.79869451171455      0.40644517321207      0.31479312831798
  H   -2.56148092265307     -0.15823723145060     -0.02537135377961
  H   -2.04452712545577      0.76689705838222      1.22444863414186
