12
Coordinates from ORCA-job run
  C   0.65432056452690      0.68923104614086     -0.07934708243394
  C   -0.50225093780650      0.16487793232798      0.75579303463946
  Br  0.06559869412455      1.91228880119216     -1.44416134139678
  H   -1.00859934430498      1.02959011448860      1.20591791170975
  H   1.39602046655618      1.20597609412356      0.52842492477262
  H   -0.06155656966673     -0.42806019741530      1.56032462738287
  N   1.37486502955729     -0.50755052428385     -0.66841531897562
  O   1.34259148969846     -0.72703546060886     -1.86607166219979
  O   1.93173410859866     -1.18794523443515      0.18916823499894
  N   -1.33673611707510     -0.70178134294408     -0.05523653564058
  H   -1.94238131591735     -0.16024119877372     -0.65776971668793
  H   -1.91360606829136     -1.28835002981222      0.53137292383100
