12
Coordinates from ORCA-job run
  C   0.50581375721727      0.44060792045671     -0.35749316489283
  C   -0.53629337777745     -0.34507936943289      0.41514542817442
  Br  0.07368148051609      0.54670690508506     -2.23853421056106
  H   -0.60699066206416     -1.35177600191860     -0.01159631168983
  H   0.60620006345925      1.45678291587139      0.01442100682163
  H   -0.16043988552816     -0.43987476440290      1.43982696195195
  N   1.84943461155400     -0.21018510258395     -0.20976701454799
  O   2.76453524034907      0.50977189573964      0.18260554408292
  O   1.92225400134870     -1.40948918259773     -0.45657395795394
  N   -1.77404335211638      0.41968353989725      0.44402057722159
  H   -2.28274459299742      0.28991314990223     -0.42116755940295
  H   -2.36240728396082      0.09393809398379      1.19911270079610
