12
Coordinates from ORCA-job run
  C   0.53474423376263      0.68822994918483     -0.11568010235899
  C   -0.95066943696038      0.35117161005718     -0.07683358682888
  Br  0.93768687551001      2.03137915038763     -1.44303634862987
  H   -1.26543626440942      0.06471627430976     -1.08091549465155
  H   0.92230107817779      1.04045816616187      0.83883562356732
  H   -1.48941264360989      1.26284394257111      0.19387972244019
  N   1.31878123729177     -0.55660307137305     -0.42905275725479
  O   2.24722286510975     -0.82585255802660      0.32870383553750
  O   0.94776158899704     -1.22329515730399     -1.38897530153058
  N   -1.29476767518047     -0.71021262753710      0.84460232442037
  H   -0.92822400666010     -1.60219396524122      0.54187175820723
  H   -0.97998785202872     -0.52064171319043      1.78660032708204
