16
Coordinates from ORCA-job run
  C   0.53124185896327      0.26461869002760     -0.30430498134641
  C   -0.98917009760808      0.14639545408972     -0.10816861556073
  F   0.69979455272515      0.06337354870772     -1.70759438043003
  H   -1.43623983515632      1.01667210218166     -0.61799438634291
  N   0.95134609148265      1.55689194929944      0.08163470576843
  H   1.95778274889037      1.64822009557406      0.03641997676642
  H   0.52412945476386      2.27382766869659     -0.49140150057812
  C   1.31865998324186     -0.81573396931251      0.39455727050032
  H   1.24471264507427     -0.69761611379273      1.47583670677166
  H   2.36735993692347     -0.74487944013576      0.09620710704878
  H   0.93323425054589     -1.79262820352626      0.10949326614850
  C   -1.31831567891544      0.25644468693131      1.31580025139621
  N   -1.61810205886745      0.34742981768376      2.44658323254699
  N   -1.45437235380273     -1.13502310204037     -0.62348978917293
  H   -2.45364722742893     -1.22329115605544     -0.48644906306151
  H   -1.26141427083183     -1.16570202832878     -1.61712980045468
