16
Coordinates from ORCA-job run
  C   0.43717755140202     -0.02818663845282     -0.26774200839440
  C   -1.00288688212246      0.10861556358607      0.27582793518749
  F   0.41648455833318     -1.04520960732537     -1.21659212325426
  H   -1.01318710609817      0.98477674398430      0.93718088308544
  N   0.72441094643279      1.18623269817608     -1.00784863240943
  H   1.47874516229579      0.99558802318192     -1.65800047741055
  H   1.03755723548805      1.91317899864546     -0.37436160665303
  C   1.45967415419704     -0.40495814963659      0.78423526736843
  H   1.47738280712339      0.33990368856439      1.58449287445227
  H   2.45001789284713     -0.44822566079606      0.32593028940195
  H   1.23117592854682     -1.37910702536547      1.21828866020438
  C   -1.35567210195907     -1.05934844262733      1.09198830057769
  N   -1.61511748200091     -2.00418920777903      1.73814877610587
  N   -2.00858747513971      0.30704835480975     -0.75468889411555
  H   -1.67273259353336      1.06090746760696     -1.34579046469174
  H   -2.04244259581256     -0.52602680657226     -1.33206877945457
