16
Coordinates from ORCA-job run
  C   0.59245540749837     -0.00551647194510     -0.20612214405559
  C   -0.89032059112373     -0.00079194939916      0.21283349450549
  F   0.74602712753000     -1.10370386192180     -1.08322206981676
  H   -0.98131018719462      0.69080056847150      1.05861828733513
  N   0.85113473412030      1.22130567554227     -0.86247951946535
  H   1.82172087118957      1.27610889164393     -1.14458052184076
  H   0.25393135236545      1.27827714436670     -1.67989131669317
  C   1.53007289500158     -0.23919553108145      0.95607654917605
  H   1.47095261757452      0.58503811049446      1.66789672072279
  H   2.55436162141856     -0.31139332209035      0.58365493542399
  H   1.28955391851195     -1.17787683244501      1.45733750062642
  C   -1.28004170031224     -1.33191889190990      0.69080106877451
  N   -1.61752390068693     -2.38929557355412      1.07236288107491
  N   -1.72870054698443      0.42565624315598     -0.91092291734456
  H   -2.14949406650333      1.32156601437787     -0.70909759304859
  H   -2.46381955240501     -0.23906021370579     -1.10526535537455
