16
Coordinates from ORCA-job run
  C   0.59090012547424      0.19190755903509     -0.25959418028106
  C   -0.88744934711234     -0.17456535019433     -0.46150602201413
  F   0.98659742609163      0.80094593801361     -1.47185351878353
  H   -0.94853078815440     -0.80642411307209     -1.35217977130812
  N   0.70130670037794      1.09225241707512      0.83400560841406
  H   1.66947410038359      1.24053137713447      1.08735591473358
  H   0.28211845483717      1.98699339715654      0.60618766456795
  C   1.46040321718241     -1.02775320693666     -0.06573245843056
  H   1.34470883234785     -1.70168814583814     -0.91537943437985
  H   2.50686191444079     -0.71647318276151     -0.01850292749193
  H   1.18593860923228     -1.55230164653621      0.84646209374124
  C   -1.65391009767747      1.06218412695417     -0.73154260139745
  N   -2.28210088699086      2.04426152382126     -0.87576558458913
  N   -1.35758485455948     -0.92378539105455      0.69007379663186
  H   -1.26880802435702     -0.33838795711775      1.51289903327909
  H   -2.33092538151634     -1.17769734567901      0.57507238730797
