16
Coordinates from ORCA-job run
  C   0.53658656615789      0.25172831376615     -0.30751029757385
  C   -0.98520391537922      0.17294453788879     -0.10374123551352
  F   0.69318551956419      0.04522011455329     -1.71111367000345
  H   -1.41235222067897      1.05311101420822     -0.61357116770164
  N   0.99165192669263      1.53338522359274      0.07531716529127
  H   0.57936747606123      2.26017736827971     -0.49634550326221
  H   1.99978890300757      1.59882338454135      0.02241332448444
  C   1.29960259596379     -0.84750906716208      0.38905289118071
  H   1.23342546472574     -0.72601193898577      1.47044091009911
  H   2.34836210867589     -0.80343229723876      0.08580284600629
  H   0.88844964093435     -1.81484507333649      0.10734235162734
  C   -1.30461583529688      0.29190336201790      1.32171695428424
  N   -1.59595887314340      0.37352990998065      2.45545468486360
  N   -1.48576593601387     -1.09722044703401     -0.61459424361267
  H   -2.48613565663481     -1.15952143694769     -0.47112537649649
  H   -1.30038776463613     -1.13328296812403     -1.60953963367312
