16
Coordinates from ORCA-job run
  C   0.51662242071514     -0.11503935400307     -0.27219608728288
  C   -0.92237538612451      0.12896837697505      0.25649496759436
  F   0.37906958395248     -1.18956254800672     -1.15855658518511
  H   -0.88149016353150      0.99377325624371      0.92834099016178
  N   1.04293003093267      0.97814642549536     -1.02901794880886
  H   1.46482478683664      1.68014668465997     -0.43789605194141
  H   0.34622579785995      1.39761073596172     -1.62964932356594
  C   1.48841094411093     -0.51727949204661      0.81300593761048
  H   1.18225135733853     -1.46163577560924      1.26163641903992
  H   1.53827264454723      0.24289755828941      1.59736073537560
  H   2.47715998307981     -0.63946906799300      0.36912107280107
  C   -1.36933537004036     -1.02735051431000      1.04885526450098
  N   -1.70198044978873     -1.96007703803648      1.67881079324989
  N   -1.91430157703919      0.40191351998062     -0.77084206220046
  H   -1.81471652455230     -0.25906161594792     -1.53143929847982
  H   -1.83156807829677      1.34501884834716     -1.12402882286965
