16
Coordinates from ORCA-job run
  C   0.49262014995296     -0.00772771281029     -0.19566609919630
  C   -0.96512539040008      0.06816618592293      0.30174107423269
  F   0.47493585889982     -0.94999599110503     -1.25706428213904
  H   -0.97811186917802      0.76372253401247      1.14681238861986
  N   0.88202928452289      1.27516028908498     -0.66571973757677
  H   1.86327546824675      1.27835488766805     -0.91467194098259
  H   0.34689805762879      1.52530805651192     -1.48758346086707
  C   1.45611027708421     -0.52449999891096      0.84641747051177
  H   2.45956324224077     -0.58191693656929      0.41788312518522
  H   1.47835084176406      0.14387118141066      1.70850351139936
  H   1.16749490371717     -1.52514304787137      1.16696840874135
  C   -1.38573224114632     -1.25147052359591      0.79820800943249
  N   -1.70772504469841     -2.30854544393204      1.19261310353360
  N   -1.93284811017571      0.53329274858356     -0.67734877896567
  H   -1.81491832375311      0.03451969907602     -1.55055688144919
  H   -1.83781710470580      1.52790407252429     -0.83053591047972
