16
Coordinates from ORCA-job run
  C   0.56084249367301      0.14155489269552     -0.49361953192427
  C   -0.88197491427061     -0.33620691606647     -0.21099931820284
  F   0.60039890704336      0.31617482871028     -1.87756495825971
  H   -1.02457212384810     -1.28724415786179     -0.73238491926653
  N   0.89711344271054      1.39518298356761      0.09993144685381
  H   1.17075127181676      1.30492222301296      1.06692188855236
  H   0.17472370800238      2.09489562492391     -0.01496587286893
  C   1.57508804237173     -0.91392794178194     -0.11903734674944
  H   1.38960672383854     -1.82087769648312     -0.69650693343957
  H   1.51094409797962     -1.15387842950038      0.94166872221815
  H   2.57012063698189     -0.53950711061326     -0.36151830903167
  C   -1.83543322678371      0.64154159065293     -0.77148257061483
  N   -2.59431513722989      1.46394273928025     -1.12934875620417
  N   -1.05448852953441     -0.55535350518207      1.21910942810886
  H   -1.89904832917880     -1.08647391022703      1.39175604709933
  H   -1.15775706357228      0.33625478487257      1.68904098372946
