16
Coordinates from ORCA-job run
  C   0.56808998344936      0.01988898291450     -0.31618603469351
  C   -0.86582813638726      0.05698429256700      0.25502180230970
  F   0.48679984159944     -0.92946910372586     -1.35616406085413
  H   -0.86896803092711      0.78109531370945      1.07625993518017
  N   0.94355119086796      1.26481187729354     -0.87938306239346
  H   1.53914906498488      1.81038221174323     -0.27653848985468
  H   0.13540727619935      1.78778374128990     -1.19041154026334
  C   1.59366341220369     -0.48446568343829      0.67174751610954
  H   2.57548648609598     -0.46337425834728      0.19589364638578
  H   1.61518533969880      0.13952073782185      1.56874341313308
  H   1.36928657307441     -1.51136423075239      0.95938693711885
  C   -1.25162219015533     -1.25664188764285      0.80317607560980
  N   -1.59054154817588     -2.29602850352751      1.23297580438572
  N   -1.75879120804930      0.54710799697088     -0.78693039321637
  H   -1.79611284391475     -0.13654115673456     -1.53423884627237
  H   -2.69575521056419      0.67130966985840     -0.42435270268475
