16
Coordinates from ORCA-job run
  C   0.57359787375671      0.00095138273944     -0.30861108824714
  C   -0.86946555306823      0.06958575021884      0.23618857157510
  F   0.51293850767837     -1.01488814635487     -1.28393286418398
  H   -0.88895233938834      0.84793175917654      1.00604256399847
  N   0.95525138873029      1.20722567067428     -0.94937041692149
  H   1.52272607632293      1.80078652901123     -0.36442976507941
  H   0.14903634839417      1.69821719534583     -1.31395535289833
  C   1.58507427838797     -0.43004394934358      0.72748289240314
  H   1.59014038768195      0.25410046344673      1.57976676445780
  H   2.57404070074241     -0.43668974933775      0.26633366243671
  H   1.35989393369591     -1.43573204279992      1.08170840562339
  C   -1.25794943015016     -1.20508296182158      0.86818275869983
  N   -1.59613132872696     -2.21267518220236      1.36848938540790
  N   -1.74803208912681      0.48194497344241     -0.85059506300729
  H   -2.69106228104729      0.62628658419960     -0.51201372084680
  H   -1.77110647388292     -0.25191827639486     -1.54928673341786
