16
Coordinates from ORCA-job run
  C   0.44500455813776     -0.01330009781527     -0.25229072451410
  C   -1.01592280209114      0.06903940322626      0.24548470410918
  F   0.49640199952574     -1.04559059570227     -1.18349075812828
  H   -1.08400473299245      0.95546277751372      0.88910199640071
  N   0.70262697186837      1.20070612366016     -1.00471835754604
  H   1.47079154704338      1.02529664727837     -1.64275265117840
  H   0.98484568068833      1.94523653514384     -0.37723684089363
  C   1.45021649842723     -0.32755505069066      0.83585861176488
  H   1.24931528034445     -1.30190572269512      1.28286532426903
  H   2.45447629154591     -0.33797484427078      0.40683956027392
  H   1.41360027754566      0.43232481999734      1.62121824650636
  C   -1.34190816685288     -1.10053798072271      1.07051419209987
  N   -1.57912793240501     -2.04788867378780      1.72103885431848
  N   -1.99718658124390      0.20604867383647     -0.81793293799278
  H   -1.96638563083009     -0.63101473630732     -1.38983615611139
  H   -1.68374325871140      0.97365272133581     -1.40366306337783
