16
Coordinates from ORCA-job run
  C   0.58933739124027      0.01630305147171     -0.28019091875838
  C   -0.87854060340203      0.06143884492279      0.19872326873406
  F   0.57199724922496     -0.93855360983159     -1.31582116922439
  H   -0.93273462642470      0.79954897415930      1.00562399192102
  N   1.00730167305165      1.25514163163568     -0.83209178189160
  H   0.22167255073560      1.75928690755048     -1.22372867645269
  H   1.51921823802215      1.82218036307244     -0.17354880396260
  C   1.54898064800596     -0.47954335073037      0.77577576839279
  H   1.51413601339254      0.15303479309200      1.66643093583507
  H   1.30465427121570     -1.50312171276596      1.05889008847651
  H   2.55888554961177     -0.46283082964699      0.36307858078020
  C   -1.29897818832420     -1.24311038525708      0.74252683955877
  N   -1.66394587176440     -2.27694028124096      1.16437782384350
  N   -1.70345483574792      0.53381904857877     -0.90587614658128
  H   -1.69679256945746     -0.16427869078700     -1.64064536064425
  H   -2.66073688937990      0.66662524577675     -0.60452444002672
