16
Coordinates from ORCA-job run
  C   0.64961879065933      0.17976442604309     -0.35178149049818
  C   -0.85545265505186     -0.16931139891979     -0.41529286358947
  F   0.94664842093469      0.65854926208405     -1.62810442437631
  H   -0.98242401212695     -0.95461602372582     -1.16623619508386
  N   0.97968603172062      1.21539174147649      0.57360842934378
  H   0.35579940160566      2.01048704629774      0.51474758453523
  H   1.05350593268860      0.87697533702706      1.52145430383445
  C   1.49019832327852     -1.04972999932279     -0.09729475573806
  H   2.53964730578866     -0.75415091008194     -0.08087623167582
  H   1.21557151882998     -1.51785819437534      0.84726826304884
  H   1.33912188799069     -1.76869568496105     -0.90400069414739
  C   -1.61001555869995      1.01763558118860     -0.86295813533686
  N   -2.22039512151211      1.98396330089623     -1.13473961380151
  N   -1.29483208231941     -0.68001045961180      0.87670521389028
  H   -2.19269249902019     -1.13873189873573      0.78401595314613
  H   -1.41598568476626      0.09033787472102      1.52348465644873
