16
Coordinates from ORCA-job run
  C   0.48276944703436      0.27427255942791     -0.43322446079300
  C   -1.01914755034898      0.15065869277052     -0.11505695728785
  F   0.56814690408777      0.06919460411179     -1.81615752335507
  H   -1.49436554332677      0.98488155929686     -0.65158390931350
  N   0.88721006384067      1.63303728826224     -0.20023613328563
  H   1.88575624709366      1.72358675152350     -0.34844300217324
  H   0.68515999522130      1.90901390881759      0.75348228552678
  C   1.32891585463062     -0.79868253012888      0.21950283545789
  H   0.94652774612115     -1.79044181406137     -0.01826018919317
  H   2.35431368283425     -0.70896019384067     -0.14731910126507
  H   1.33095484022056     -0.67096613931874      1.30379574656305
  C   -1.23394709034945      0.35755465246802      1.32032415325076
  N   -1.38472293962310      0.55005508439709      2.46855710895822
  N   -1.49641131610969     -1.17003534627444     -0.50598903531025
  H   -2.49018240790737     -1.24486173923700     -0.32522254253683
  H   -1.35097793341900     -1.26830733821440     -1.50416927524311
