16
Coordinates from ORCA-job run
  C   0.53419764566780      0.26283116067900     -0.30281258430505
  C   -0.98676196857506      0.17062878483330     -0.09776100922532
  F   0.68878893451147      0.09046566878876     -1.71127288519370
  H   -1.41996672877804      1.06158934506816     -0.58329735611360
  N   0.98291060691631      1.53761788486079      0.10921189948341
  H   1.99069781314917      1.60934906625445      0.05774968243916
  H   0.56680474160457      2.27517135663788     -0.44564887711430
  C   1.30476940873724     -0.84838124177735      0.36595264429763
  H   0.89623382849405     -1.81088298122649      0.06456872780359
  H   2.35192090659997     -0.79323736888808      0.05897470650299
  H   1.24306372840044     -0.75083889050348      1.45001363479285
  C   -1.30268952053514      0.25205711309734      1.33128659268578
  N   -1.58873605873769      0.29531031430371      2.46846719979881
  N   -1.48175732816708     -1.08880986154706     -0.63865571525078
  H   -2.48106384198787     -1.16159324977581     -0.49305872623611
  H   -1.29941216730012     -1.09927710080515     -1.63471793436535
