16
Coordinates from ORCA-job run
  C   0.53036680837444      0.30895663834447     -0.45011338507779
  C   -0.99644802763270      0.19289184545410     -0.28215804857323
  F   0.77484597374296      0.27559490709850     -1.81333307569918
  H   -1.40257887246867      0.95640396788194     -0.95060330992265
  N   0.92328056473237      1.63115170582061     -0.01707809719579
  H   1.86658043236499      1.80914736873076     -0.34349068484822
  H   0.92362140321605      1.69339067774686      0.99445923559724
  C   1.28371843278561     -0.85197174243214      0.16833426456819
  H   0.98142710831042     -1.78962496470389     -0.29951385810438
  H   2.35371189909682     -0.71108817094135      0.00234298079275
  H   1.10275139873406     -0.90172535719882      1.24541149417781
  C   -1.35562390097848      0.55185145639664      1.10298865249269
  N   -1.62074292406239      0.77479325632043      2.22577516239728
  N   -1.48662932718084     -1.11328093132293     -0.69307747698955
  H   -1.41860033430596     -1.77830224490196      0.06752022121771
  H   -2.46068063472868     -1.05018841229321     -0.95946407483288
