16
Coordinates from ORCA-job run
  C   0.48294461394907      0.26763392791843     -0.46087890825716
  C   -1.02464242314162      0.24252949912627     -0.09880690137286
  F   0.47472880848915      0.12026670073934     -1.85724470920173
  H   -1.46076010485807      1.11407627072249     -0.60486120389042
  N   1.11773116630100      1.50899696207942     -0.16297863813308
  H   1.49635221724396      1.53027240717301      0.77281669083858
  H   0.50638011313111      2.30355983707452     -0.30226931402843
  C   1.26796327970714     -0.88589842748159      0.11834375733599
  H   2.30516020987710     -0.79817159849028     -0.20718165801747
  H   0.87344513669610     -1.83312307098482     -0.24880839759587
  H   1.23102900863458     -0.88289915979498      1.20997398515591
  C   -1.15973096194321      0.45073273090187      1.34712914470265
  N   -1.20691008547636      0.60866949354968      2.50930416521434
  N   -1.78753434972673     -0.92309503043431     -0.51030339035150
  H   -1.48572141250561     -1.74653831185554     -0.00433160820455
  H   -1.63043521637757     -1.07801223024349     -1.49890301419443
