16
Coordinates from ORCA-job run
  C   0.52903691294563      0.31790071494845     -0.44750448414053
  C   -0.99700464109212      0.20107153807213     -0.27556860308007
  F   0.76843320388222      0.31063444533703     -1.81198894486822
  H   -1.40590558177252      0.97620401376127     -0.92877433680391
  N   0.92621346163635      1.63047090634522      0.00986214558153
  H   1.87042993209357      1.81132981536862     -0.31225437926510
  H   0.92542779503272      1.67437205085430      1.02236130646813
  C   1.28275764383426     -0.85626724957840      0.14540768774095
  H   0.98161863403308     -1.78355910691483     -0.34332809509374
  H   2.35287942418058     -0.71102901995993     -0.01584828014020
  H   1.10073171814051     -0.92994996629905      1.22097622112522
  C   -1.35083827962034      0.53493327064777      1.11751092052241
  N   -1.61213193074531      0.72643251885051      2.24704519155772
  N   -1.49062703322980     -1.09712302285338     -0.70722828051489
  H   -1.41151237631393     -1.77733043770232      0.03881686099870
  H   -2.46850888300491     -1.03009047087746     -0.95848493008801
