16
Coordinates from ORCA-job run
  C   0.64262304299819      0.26819417359019     -0.30960444489720
  C   -0.86390446923799     -0.05941436686268     -0.42457057579983
  F   0.91007640994633      1.06202667815871     -1.42488105229217
  H   -1.01289802866399     -0.62668002310085     -1.34797625442615
  N   0.99661940916752      1.03040603439315      0.84501801699768
  H   1.08665641363220      0.45558360404343      1.66980080659706
  H   0.37068246537201      1.80922086777009      1.00887878089195
  C   1.48680165232374     -0.98152787991317     -0.40138806842371
  H   2.53695349359753     -0.69571759988756     -0.33429956819468
  H   1.31511817181580     -1.46905045063544     -1.36233499926804
  H   1.23465921233188     -1.67845508823030      0.39705402545272
  C   -1.62749284513731      1.19919799165097     -0.53327504281695
  N   -2.24507433032451      2.19859006571946     -0.52571250960176
  N   -1.27298722848889     -0.88528278977284      0.70463657432468
  H   -2.16509017592304     -1.32339497336250      0.51173068806375
  H   -1.39374319340943     -0.30469624356065      1.52592362339263
