15

C	0.0	0.0	0.0
C	-0.262565	0.005363	-1.527114
F	1.402605	0.0	0.0
H	0.252997	0.875259	-1.941097
H	-0.342287	0.95769	0.399919
N	-0.528864	-1.046805	0.789866
H	-0.478288	-1.922058	0.283924
H	-1.504419	-0.844501	0.991836
N	-1.589095	-0.104824	-1.989918
H	-2.292266	-0.309621	-1.278341
H	-1.881401	0.725261	-2.479612
N	0.554642	-1.149932	-2.118427
O	1.410675	-0.879389	-2.958511
O	0.27532	-2.289336	-1.746188
Br	-4.191148	0.0	0.0
