15

C	0.0	0.0	0.0
C	-0.423622	-0.441885	-1.399602
F	1.405383	0.0	0.0
H	-0.069158	0.289589	-2.130226
H	-0.311581	1.037013	0.143159
N	-0.560078	-0.799206	1.003122
H	-0.314384	-1.772542	0.908493
H	-0.42294	-0.443235	1.935008
N	-1.779279	-0.767266	-1.509043
H	-2.340837	-0.70311	-0.662218
H	-2.26646	-0.320339	-2.267669
N	0.445227	-1.672106	-1.763617
O	1.100032	-1.611398	-2.802835
O	0.397778	-2.64963	-1.020962
Br	-4.702773	0.0	0.0
