15

C	0.0	0.0	0.0
C	-0.3952	-0.025532	-1.474288
F	1.41005	0.0	0.0
H	-1.487488	0.05191	-1.517388
H	-0.329454	0.932594	0.455656
N	-0.492485	-1.104132	0.735895
H	-0.502278	-1.915968	0.124281
H	-1.46685	-0.895579	0.956019
N	0.090732	-1.205992	-2.098678
H	-0.267595	-1.295317	-3.038971
H	1.101476	-1.176325	-2.138509
N	0.13507	1.254066	-2.127548
O	0.868909	1.147386	-3.111701
O	-0.217733	2.317977	-1.627918
Br	-3.663092	0.0	0.0
