12

C	-0.311387	0.025423	-1.484381
C	0.0	0.0	0.0
Br	-2.267268	0.051579	-1.838623
H	1.098184	0.0	0.0
H	-0.011519	-0.936236	-1.912747
H	-0.35833	-0.920856	0.463326
N	0.297283	1.178981	-2.07447
H	0.319759	1.095318	-3.083582
H	1.254281	1.240263	-1.726935
C	-0.520019	1.152346	0.723227
N	-0.962266	2.047074	1.34061
Cl	3.328709	0.0	0.0
