12

C	-0.512958	0.012063	-1.430333
C	0.0	0.0	0.0
Br	-0.183182	-1.699451	-2.320755
H	1.093533	0.0	0.0
H	0.105553	0.715327	-1.997602
H	-0.283841	0.960428	0.453278
N	-1.937769	0.26597	-1.476035
H	-2.132518	1.117522	-0.960022
H	-2.238479	0.393823	-2.43455
C	-0.569896	-1.064805	0.814531
N	-1.03993	-1.89588	1.496691
Cl	3.370748	0.0	0.0
