12

C	-0.307281	-0.000545	-1.497545
C	0.0	0.0	0.0
Br	-2.229056	0.325654	-1.816136
H	1.096064	0.0	0.0
H	-0.122713	-0.992006	-1.912748
H	-0.337925	0.936471	0.453287
N	0.465828	0.96149	-2.238562
H	0.342348	1.876561	-1.816252
H	1.447737	0.71482	-2.099382
C	-0.56139	-1.131365	0.719428
N	-1.03161	-2.047873	1.283445
Cl	3.336247	0.0	0.0
