12

C	-0.293353	0.010498	-1.499306
C	0.0	0.0	0.0
Br	-2.240791	-0.059606	-1.83918
H	1.096307	0.0	0.0
H	0.09397	-0.915978	-1.923924
H	-0.369773	-0.904598	0.488
N	0.279812	1.115963	-2.215251
H	0.003811	1.98562	-1.770606
H	1.291723	1.033035	-2.115656
C	-0.510062	1.185874	0.671588
N	-0.911375	2.157866	1.194225
Cl	3.323796	0.0	0.0
