16

C	0.0	0.0	0.0
C	-0.254818	0.183722	-1.559382
Br	1.934989	0.0	0.0
H	0.540971	-0.409159	-2.018831
C	-0.508689	1.036416	0.875935
N	-0.617175	1.951147	1.609855
N	-0.398779	-1.377371	0.479389
O	-0.38519	-2.266848	-0.363365
O	-0.567234	-1.520243	1.679155
C	0.055069	1.582999	-1.869943
N	0.266778	2.698938	-2.170735
C	-1.536829	-0.215281	-2.296859
H	-1.797036	-1.240621	-2.053988
H	-1.306726	-0.13423	-3.368794
H	-2.363809	0.421059	-2.013763
F	-2.255284	0.0	0.0
