16

C	0.0	0.0	0.0
C	-0.248683	0.159345	-1.562117
Br	1.934839	0.0	0.0
H	0.524198	-0.474859	-2.006638
C	-0.512747	1.052446	0.855191
N	-0.612677	1.983615	1.569477
N	-0.40564	-1.367601	0.496761
O	-0.406984	-2.267006	-0.335382
O	-0.564222	-1.495187	1.699837
C	0.109647	1.539674	-1.907719
N	0.353084	2.64098	-2.23815
C	-1.545847	-0.208092	-2.289105
H	-1.844822	-1.21668	-2.022711
H	-2.350006	0.463674	-2.02172
H	-1.314081	-0.159662	-3.362905
F	-2.262202	0.0	0.0
