16

C	0.0	0.0	0.0
C	-0.251071	0.24776	-1.553818
Br	1.934999	0.0	0.0
H	0.550787	-0.31787	-2.037438
C	-0.502641	1.006592	0.914329
N	-0.632855	1.885444	1.687096
N	-0.405238	-1.39028	0.425877
O	-0.378423	-2.250309	-0.446845
O	-0.592586	-1.57522	1.617779
C	0.048276	1.662609	-1.800791
N	0.260618	2.792521	-2.046539
C	-1.529133	-0.132363	-2.304645
H	-1.334287	0.049928	-3.371586
H	-2.371596	0.441117	-1.947359
H	-1.747302	-1.185319	-2.152847
F	-2.270532	0.0	0.0
