16

C	0.0	0.0	0.0
C	-0.239791	-0.020446	-1.571385
Br	1.934659	0.0	0.0
H	0.496547	-0.746126	-1.927474
C	-0.506614	1.155805	0.717811
N	-0.598263	2.177306	1.297325
N	-0.415412	-1.296141	0.651654
O	-0.547965	-1.280991	1.863596
O	-0.44267	-2.28385	-0.071775
C	0.189947	1.285523	-2.086491
N	0.476624	2.326685	-2.549715
C	-1.556668	-0.393423	-2.256037
H	-2.323079	0.344194	-2.05958
H	-1.327707	-0.466437	-3.32981
H	-1.907646	-1.349798	-1.884519
F	-2.268253	0.0	0.0
