15

C	0.0	0.0	0.0
C	-0.341389	-0.011571	-1.518141
Br	1.966148	0.0	0.0
H	-0.128388	-1.035679	-1.872536
H	0.40997	0.634069	-1.989628
C	-0.52399	1.230775	0.713052
H	-0.208774	2.123955	0.169944
H	-0.147671	1.270133	1.738273
H	-1.619758	1.159585	0.71067
C	-0.394999	-1.237396	0.669348
N	-0.630665	-2.248541	1.220413
N	-1.664665	0.50217	-1.8074
H	-1.97994	0.096303	-2.682399
H	-2.387172	0.234432	-1.081882
H	-3.478742	0.0	0.0
