15

C	0.0	0.0	0.0
C	-0.588042	0.015321	-1.403991
Br	1.960919	0.0	0.0
H	-1.662892	0.210963	-1.21641
H	-0.130599	0.84495	-1.952415
C	-0.516528	1.194334	0.786052
H	-1.614268	1.085022	0.798474
H	-0.111629	1.206669	1.79992
H	-0.232854	2.117543	0.27304
C	-0.352914	-1.251607	0.681734
N	-0.552919	-2.269445	1.234599
N	-0.356392	-1.246242	-2.10836
H	-0.482772	-1.085825	-3.10099
H	-1.10357	-1.875259	-1.825737
H	-3.27638	0.0	0.0
