15

C	0.0	0.0	0.0
C	-0.573425	-0.028807	-1.410111
Br	1.973911	0.0	0.0
H	-0.255835	-0.952262	-1.912511
H	-1.666477	-0.080296	-1.207968
C	-0.526874	1.185563	0.781874
H	-0.243985	2.102279	0.264758
H	-1.625027	1.06272	0.77206
H	-0.143304	1.187787	1.804407
C	-0.332397	-1.26135	0.674966
N	-0.515454	-2.290643	1.212508
N	-0.245147	1.18756	-2.140779
H	-1.044332	1.465151	-2.695302
H	0.542239	1.034574	-2.756485
H	-3.287295	0.0	0.0
