15

C	0.0	0.0	0.0
C	-0.596101	-0.063438	-1.399856
Br	1.974079	0.0	0.0
H	-0.244832	-0.970426	-1.906347
H	-1.681451	-0.163838	-1.172602
C	-0.522996	1.202512	0.758739
H	-0.135377	1.226564	1.779417
H	-0.238154	2.10702	0.221339
H	-1.621103	1.084807	0.756583
C	-0.327862	-1.245361	0.706376
N	-0.512919	-2.263792	1.263701
N	-0.341931	1.160381	-2.148591
H	-1.219246	1.499468	-2.525244
H	0.300334	0.994349	-2.911518
H	-3.296244	0.0	0.0
