15

C	0.0	0.0	0.0
C	-0.358448	-0.014467	-1.510324
Br	1.965881	0.0	0.0
H	-0.074393	-1.011288	-1.884365
H	0.341236	0.695812	-1.973666
C	-0.545211	1.218475	0.720118
H	-0.272126	2.120851	0.169522
H	-1.638764	1.115517	0.741824
H	-0.15332	1.27412	1.738209
C	-0.389738	-1.23895	0.672387
N	-0.627167	-2.251617	1.220227
N	-1.724507	0.379253	-1.789911
H	-2.074534	-0.186551	-2.554932
H	-2.416182	0.201399	-1.003198
H	-3.554089	0.0	0.0
