15

C	0.0	0.0	0.0
C	-0.369219	-0.032507	-1.508648
Br	1.966249	0.0	0.0
H	0.374035	0.601428	-2.010368
H	-0.178087	-1.064856	-1.852129
C	-0.534436	1.229478	0.709139
H	-1.628746	1.141897	0.721119
H	-0.246237	2.124145	0.154582
H	-0.148161	1.283185	1.730062
C	-0.387152	-1.234429	0.682708
N	-0.601399	-2.258899	1.218426
N	-1.693685	0.495119	-1.76501
H	-2.022148	0.119884	-2.648869
H	-2.418834	0.21412	-1.044609
H	-3.546906	0.0	0.0
