12

C	0.0	0.0	0.0
C	-0.490786	-0.027427	-1.449286
Cl	1.769149	0.0	0.0
H	0.341124	-0.20576	-2.14009
H	-0.353583	0.848443	0.566882
H	-1.240547	-0.806577	-1.530354
N	-0.423312	-1.211112	0.777304
O	-0.488189	-2.279461	0.181452
O	-0.545711	-1.058179	1.984635
C	-1.121366	1.245194	-1.785364
N	-1.494974	2.299287	-2.139889
F	-2.366079	0.0	0.0
