12

C	0.0	0.0	0.0
C	-0.484231	-0.110725	-1.447547
Cl	1.761631	0.0	0.0
H	0.346211	-0.367245	-2.116028
H	-0.374401	0.865977	0.523607
H	-1.262095	-0.866311	-1.47945
N	-0.419165	-1.182191	0.82066
O	-0.522103	-0.994479	2.025408
O	-0.48311	-2.269152	0.259317
C	-1.065844	1.147744	-1.894257
N	-1.406316	2.172218	-2.35473
F	-2.362545	0.0	0.0
