12

C	0.0	0.0	0.0
C	-0.567571	0.020448	-1.397285
Cl	1.766297	0.0	0.0
H	-1.703348	0.012486	-1.09246
H	-0.372426	0.820579	0.601653
H	-0.260504	-0.877076	-1.936916
N	-0.435987	-1.24848	0.721797
O	-0.614303	-1.146402	1.928583
O	-0.486923	-2.286899	0.072896
C	-0.170517	1.212994	-2.110321
N	0.128474	2.184841	-2.702521
F	-2.640314	0.0	0.0
