11
Coordinates from ORCA-job run
  C   0.26931055465540     -0.22137762676706     -0.40843838365383
  C   -0.72731499243469      0.28235739163726      0.33754707039331
  H   0.02481799731628     -0.72848295983592     -1.34230793509714
  H   -0.49972782267248      0.79998544803613      1.26804834962838
  C   1.71935115989684     -0.09699916139479     -0.04565958811174
  H   1.83898317413661      0.41172548054077      0.91427564730408
  H   2.20114332400787     -1.07645624251484      0.03315984742180
  H   2.27592118479722      0.47508910392679     -0.79479446711852
  N   -2.08644678714575      0.31083604635240     -0.00293869050997
  H   -2.69763324979005      0.17417857583449      0.78793987361794
  H   -2.31840454276725     -0.33185605581520     -0.74683172387430
