11
Coordinates from ORCA-job run
  C   0.27829108055541     -0.28449577924938     -0.35987851824565
  C   -0.74127404012409      0.29560781259461      0.29385230925290
  H   0.05808125060570     -0.99847987087996     -1.15405414671039
  H   -0.53851279457066      1.01728287572493      1.08351184016338
  C   1.72032523687736      0.02106684768871     -0.08263860177383
  H   1.81702332839905      0.73106681842507      0.74266095866333
  H   2.27972319750486     -0.88057468683474      0.18527168587424
  H   2.21596334628774      0.45868520373336     -0.95506874016613
  N   -2.10405156031336      0.14976922304677      0.00196879734954
  H   -2.68899269085086      0.14392651316136      0.82383011082281
  H   -2.29757635437115     -0.65385495741072     -0.57845569523020
