11
Coordinates from ORCA-job run
  C   0.44893808752472      0.77987967277002     -0.19252331996903
  C   -0.88829098279690      0.67881820652624     -0.08985252006205
  H   0.87083135614581      1.75956823277704     -0.38641110287933
  H   -1.51792508911375      1.55657034783109     -0.20747846960548
  C   1.36612408990796     -0.40612194342496     -0.07503193723108
  H   2.40937260833294     -0.11556509358098     -0.20241039408375
  H   1.14172331223058     -1.16550146080519     -0.83238815286255
  H   1.28564949094734     -0.89226781478456      0.90515849917213
  N   -1.59377729101868     -0.51816283142549      0.06627633153924
  H   -2.47466134840086     -0.41174319092192      0.54386532219467
  H   -1.04798423375916     -1.26447412496129      0.47079574378722
