11
Coordinates from ORCA-job run
  C   0.32401841805445      0.23787037883898     -0.35639984404526
  C   -0.78182107784137     -0.18070696920616      0.28025165370191
  H   0.22761159640147      0.97623789736041     -1.15294260737025
  H   -0.70337271232305     -0.92389826417100      1.07211304528973
  C   1.69940437500760     -0.27732020266857     -0.05166731496054
  H   1.67352362184439     -0.99468085280406      0.77251834734720
  H   2.14295926365869     -0.78227840510265     -0.91568872386737
  H   2.38004927617356      0.53168747573847      0.23107355706064
  N   -2.10249562073139      0.16589577007038     -0.03533227224163
  H   -2.69418750368019      0.26125783338178      0.77611859075561
  H   -2.16368963656418      0.98793533856241     -0.61904443167005
