15
Coordinates from ORCA-job run
  C   -0.64260955783355      0.04725894545062     -0.46345256573889
  C   0.86576390797629      0.25645486918975     -0.36154478447427
  F   -0.98694190093306      0.06616135558618     -1.75266451843345
  H   1.06760854739234      1.23505123114516     -0.81136049610057
  N   -1.41988590797226      1.17249063456655      0.21713209493889
  O   -1.18724757886279      2.27242640054034     -0.25920628202008
  O   -2.19843118496586      0.86798006773086      1.10523542197941
  N   -1.08843165527368     -1.26426919311001      0.14502974017291
  O   -0.41441887375711     -1.65225021468857      1.09127777360724
  O   -2.07560786074073     -1.77876941647905     -0.35348679821133
  C   1.55684395573877     -0.80156910919517     -1.08003329234784
  N   2.07663309362627     -1.65559141428374     -1.69662006331258
  N   1.36169842064761      0.36419492307774      1.07497457484027
  O   2.39249181842896     -0.22277428378518      1.35260521024782
  O   0.69353477652882      1.09320520425454      1.79311398485246
