16
Coordinates from ORCA-job run
  C   0.75861210705588     -0.38925074315044      0.41208352618997
  C   -0.57611841404526      0.36704599524455      0.34100911049806
  Br  1.55347625626098     -0.12715671863455      2.19570153823028
  H   -0.36287902283742      1.42424293039005      0.54029752488254
  H   0.56172122101732     -1.46513159714991      0.36349191101506
  C   1.78172896475375      0.02083020409839     -0.63227186169243
  H   1.94444246156662      1.10112423953325     -0.60602617661742
  H   1.43407556766741     -0.25821393213869     -1.62952014729265
  H   2.73850614920048     -0.47288723938097     -0.45857061362572
  N   -1.57704845843759     -0.05648460906943      1.31164470907662
  H   -1.20509536330776      0.02315472888142      2.25052697121725
  H   -1.80803961032747     -1.03271988368700      1.15775768297538
  C   -1.18508597006495      0.24193519248327     -1.05360622089630
  H   -2.17712479973965      0.69466273432529     -1.03885553612766
  H   -0.58625584107694      0.74048009770737     -1.81609713463841
  H   -1.29591524768539     -0.81063139945261     -1.33756528319457
