16
Coordinates from ORCA-job run
  C   0.85675670119913      0.16939691985488      0.61534169136675
  C   -0.66182237972249      0.38214289547227      0.47505196152808
  Br  1.78044224979526      1.90578032017744      0.61628443886265
  H   -0.94414343550572      1.14480979212260      1.20890398161678
  H   1.05372987407386     -0.22468943792926      1.61642122077518
  C   1.48786972018568     -0.72706912242973     -0.43423885218865
  H   2.53744013949314     -0.91189814431637     -0.20150086837843
  H   0.97452919129689     -1.69291613172495     -0.46069758696696
  H   1.43636632401729     -0.27455075352273     -1.42506853029513
  N   -1.42253264743934     -0.82025343214032      0.80585373261984
  H   -1.17139726746832     -1.17073322290456      1.72302249775209
  H   -1.25093067987549     -1.55339457413472      0.12831759277515
  C   -1.08172698261025      0.85820118195128     -0.90664542239604
  H   -0.52865409282850      1.74786021272039     -1.21018488040263
  H   -2.14760373519127      1.08951468141479     -0.89624360946254
  H   -0.91832297941987      0.07779881538900     -1.65561736720615
