17

C	-0.53437	0.016115	-1.433516
C	0.0	0.0	0.0
Br	0.310108	1.389607	-2.52388
H	1.094512	0.0	0.0
N	-0.231654	-1.31479	-2.132903
O	-1.019896	-1.660177	-3.007669
O	0.784249	-1.895103	-1.791404
C	-1.97991	0.209244	-1.46639
N	-3.134438	0.42715	-1.421983
N	-0.536101	-1.229424	0.588014
H	0.228048	-1.880235	0.724433
H	-0.95834	-1.035777	1.486883
C	-0.453763	1.230889	0.770751
H	-0.155728	2.151462	0.26768
H	0.038984	1.214631	1.745594
H	-1.539317	1.237542	0.915561
Br	3.546001	0.0	0.0
