17

C	-0.435822	0.003506	-1.476453
C	0.0	0.0	0.0
Br	0.440285	-1.422898	-2.453557
H	1.100984	0.0	0.0
N	-1.96278	-0.193925	-1.534978
O	-2.606642	0.820424	-1.277736
O	-2.41659	-1.301595	-1.75628
C	-0.144695	1.259976	-2.153542
N	0.076993	2.27426	-2.706607
N	-0.551377	-1.204448	0.626105
H	0.028129	-1.993177	0.354366
H	-0.42413	-1.10041	1.626968
C	-0.469961	1.23124	0.759383
H	0.032219	1.226727	1.731335
H	-1.551463	1.224541	0.911389
H	-0.17993	2.151782	0.251416
Br	3.511375	0.0	0.0
