17

C	-0.504453	-0.012239	-1.446701
C	0.0	0.0	0.0
Br	0.326373	1.370989	-2.53511
H	1.094495	0.0	0.0
N	-0.145089	-1.341589	-2.1237
O	0.880502	-1.885829	-1.754408
O	-0.903128	-1.719918	-3.011444
C	-1.953137	0.139999	-1.519202
N	-3.114061	0.324964	-1.511974
N	-0.527348	-1.232317	0.588272
H	0.24755	-1.856634	0.775068
H	-1.002612	-1.035594	1.458902
C	-0.480366	1.233907	0.746723
H	-0.025187	1.223572	1.739975
H	-0.167679	2.153019	0.250327
H	-1.570968	1.238178	0.852659
Br	3.545122	0.0	0.0
