17

C	-0.437763	-0.023115	-1.484577
C	0.0	0.0	0.0
Br	0.010033	-1.685225	-2.35261
H	1.095659	0.0	0.0
N	-1.963105	0.157218	-1.520039
O	-2.374696	1.28912	-1.773024
O	-2.6507	-0.798732	-1.186955
C	0.151492	1.06663	-2.251116
N	0.619226	1.947276	-2.874033
N	-0.429595	-1.202357	0.677433
H	0.314027	-1.517764	1.284297
H	-1.273348	-1.057328	1.21415
C	-0.463757	1.295678	0.662834
H	0.01968	1.354646	1.640186
H	-0.17373	2.180949	0.093035
H	-1.550158	1.3134	0.80836
Br	3.459546	0.0	0.0
