17

C	-0.420791	0.003603	-1.481125
C	0.0	0.0	0.0
Br	0.440669	-1.440848	-2.446449
H	1.100987	0.0	0.0
N	-1.949104	-0.17068	-1.561522
O	-2.417101	-1.273831	-1.778338
O	-2.581214	0.856294	-1.324873
C	-0.094709	1.251667	-2.157053
N	0.159421	2.257856	-2.709962
N	-0.558804	-1.201985	0.622623
H	-0.437698	-1.097547	1.624218
H	0.020536	-1.991883	0.354926
C	-0.472499	1.234705	0.750959
H	0.014367	1.227568	1.73036
H	-0.167646	2.15221	0.246555
H	-1.556043	1.236485	0.886262
Br	3.498878	0.0	0.0
