16
Coordinates from ORCA-job run
  C   -0.54097683514813     -0.29140650461387     -0.17016848804109
  C   0.82110350314554     -0.97409211941996     -0.02122898521523
  Br  -1.73943686119992     -1.76431075464463     -0.71060923612477
  H   1.15207510509175     -1.39398619370760     -0.97006135184477
  H   0.79247743502402     -1.73556895007351      0.75687633471622
  C   -1.05429116397367      0.27074550329847      1.14530983143661
  H   -0.41834412556825      1.09805487964845      1.47066214545006
  H   -2.07177929735951      0.64484419006390      1.02006324749524
  H   -1.05593507695776     -0.48843113261996      1.92914164075301
  C   -0.54927886924577      0.74904695125403     -1.27804770165181
  H   0.09790055740715      1.58711623239563     -1.00684934278560
  H   -0.19082475151074      0.33054661758232     -2.21991627689720
  H   -1.56172665816301      1.12779508718577     -1.42766693259471
  N   1.85466247026685      0.02274805259868      0.39111186681815
  O   2.01377913555048      0.20072653366989      1.59829860071152
  O   2.45259543264099      0.61617160738241     -0.50591535222563
