16
Coordinates from ORCA-job run
  C   -0.44595436404893     -0.16907414684229     -0.03977412387874
  C   0.93837162670385     -0.34044249825818      0.58213388782114
  Br  -0.98209566138106     -1.89100940108650     -0.82863232660784
  H   1.24331605404466      0.60733894131035      1.03301947014385
  H   0.93507613852056     -1.13865644166977      1.32262973413769
  C   -1.42061436972728      0.14705076118715      1.08863802719461
  H   -1.15302635450743      1.10589036960590      1.54511197380847
  H   -2.43668537754009      0.22329094096385      0.69854035890618
  H   -1.40601351086212     -0.62709652595179      1.85820782931468
  C   -0.50358685930977      0.89195475186831     -1.12718621705319
  H   0.12920933272857      0.64421298985658     -1.97717032117031
  H   -0.16642746555567      1.85044163928639     -0.71988373735854
  H   -1.53206624593402      1.00083895640220     -1.47604129791351
  N   2.00044452669119     -0.68528747120152     -0.40476247745721
  O   2.40927998511964     -1.84343133153455     -0.41626424076105
  O   2.38977254505790      0.22297846606386     -1.13856653912623
