16
Coordinates from ORCA-job run
  C   -0.40918368847198     -0.12091821699766     -0.21669719399346
  C   1.11707622752967     -0.11753954782621     -0.27161001365027
  Br  -1.03371298303712     -1.94556586094782     -0.61092871803033
  H   1.47619413625171      0.89369097836248     -0.06418465517126
  H   1.47131695188487     -0.46338265418332     -1.24135040992904
  C   -0.97611480705885      0.29619918868278      1.13095793918989
  H   -0.60482974387995      1.29278418765658      1.39025333062058
  H   -0.69055142662600     -0.38884462302356      1.92685264494186
  H   -2.06548774395934      0.33132332866361      1.07300569952962
  C   -0.91097713760875      0.79117313417259     -1.33002851739529
  H   -2.00133825977669      0.77690407134590     -1.36605694543881
  H   -0.58521293074357      1.81855379454175     -1.13583415925913
  H   -0.53161278780588      0.47834086568883     -2.30469440841748
  N   1.75561431121468     -0.99651256245246      0.74846827996609
  O   2.24015080939525     -2.05628814531140      0.36029711058354
  O   1.74866907269196     -0.59091793837209      1.91055001645349
