16
Coordinates from ORCA-job run
  C   -0.44933153974735     -0.12063199546238     -0.11252929164380
  C   0.90240408959016     -0.58148842577141      0.42896625302180
  Br  -1.01113028334850     -1.38164241737065     -1.51582916177866
  H   1.21945854031740      0.10429096475839      1.21875867041866
  H   0.84277735928957     -1.60218127339631      0.80325631591912
  C   -1.45768069122618     -0.21616793268672      1.02650045498620
  H   -2.45462810630077      0.04764133548755      0.67034031076337
  H   -1.49778504908906     -1.22507004844082      1.44159949865580
  H   -1.17848635546837      0.48354846023374      1.82137221204164
  C   -0.42741348854667      1.27768484137691     -0.70910314239542
  H   -0.07169028895370      1.98965972213047      0.04241767462802
  H   0.22791150941074      1.34472704763670     -1.57534194157603
  H   -1.43734515994417      1.56090387603823     -1.01105060744023
  N   1.99114028965685     -0.56749638474041     -0.58830985824592
  O   2.36113860460700     -1.64928268629979     -1.03735589397611
  O   2.43966056975304      0.53450491650650     -0.90369149337843
