16
Coordinates from ORCA-job run
  C   -0.54070825914270     -0.29277979975295     -0.16869986418321
  C   0.82365931990166     -0.97180041287423     -0.02369714444773
  Br  -1.73650974924526     -1.76871098342044     -0.70668657240539
  H   1.15240093928817     -1.39204854276668     -0.97314542310220
  H   0.79902690592779     -1.73263002003281      0.75520135910292
  C   -1.05192517802277      0.26709340108140      1.14859446962373
  H   -0.41682630245227      1.09540989422240      1.47305420464564
  H   -1.04995348716141     -0.49288160920099      1.93166223921970
  H   -2.07054561567637      0.63910936579954      1.02634345192864
  C   -0.55505047387661      0.74835467004204     -1.27585601681147
  H   0.08934594363687      1.58885082810336     -1.00553724915320
  H   -0.19690236554782      0.33193497608325     -2.21876829126582
  H   -1.56931844855916      1.12319214961845     -1.42306101256277
  N   1.85604533075444      0.02790869077056      0.38448768714544
  O   2.01893091121482      0.20671020579872      1.59108211522056
  O   2.44933052896061      0.62228718652839     -0.51497395295484
