15

C	0.0	0.0	0.0
C	-0.529452	-0.11386	-1.416384
Br	1.94691	0.0	0.0
H	-1.580505	-0.401164	-1.304606
H	0.018791	-0.919146	-1.90957
C	-0.413855	1.201918	0.71312
N	-0.618044	2.235135	1.236003
N	-0.376456	-1.237321	0.828492
O	-0.43457	-2.29162	0.214391
O	-0.503806	-1.07734	2.033295
C	-0.442519	1.200671	-2.176937
H	-1.129925	1.925823	-1.738504
H	-0.750592	1.038831	-3.212871
H	0.567312	1.619388	-2.182245
Br	-3.623734	0.0	0.0
