15

C	0.0	0.0	0.0
C	-0.447116	-0.076891	-1.462892
Br	1.94818	0.0	0.0
H	-0.122521	0.879627	-1.888252
H	-1.540605	-0.074239	-1.430658
C	-0.405701	1.252019	0.630393
N	-0.555868	2.337223	1.05776
N	-0.415612	-1.171523	0.885693
O	-0.550341	-2.254796	0.338075
O	-0.489127	-0.94172	2.083876
C	0.085463	-1.215874	-2.328117
H	-0.221235	-1.023893	-3.360035
H	1.175534	-1.280746	-2.315255
H	-0.3261	-2.173926	-2.02203
Br	-3.507556	0.0	0.0
