14

C	0.0	0.0	0.0
C	-0.52054	0.233661	-1.411054
Cl	1.77414	0.0	0.0
H	-1.617471	0.285789	-1.33631
H	-0.141058	1.182195	-1.789362
N	-0.318673	1.298303	0.837324
O	-0.444215	1.128444	2.042626
O	-0.356899	2.372155	0.251098
N	-0.533697	-1.150575	0.571966
H	-1.558117	-1.083239	0.485526
H	-0.283679	-1.203853	1.552282
C	-0.124249	-0.849122	-2.302105
N	0.179815	-1.691053	-3.061086
Cl	-3.521701	0.0	0.0
