14

C	0.0	0.0	0.0
C	-0.552915	0.134758	-1.402868
Cl	1.803306	0.0	0.0
H	-0.191559	1.05431	-1.8639
H	-1.649177	0.190102	-1.274551
N	-0.318687	1.332978	0.768549
O	-0.425	2.363199	0.118029
O	-0.383062	1.238314	1.988276
N	-0.47919	-1.124819	0.668349
H	-1.505093	-1.101322	0.626408
H	-0.175279	-1.098381	1.633983
C	-0.190957	-1.009756	-2.227345
N	0.089995	-1.895485	-2.944318
Cl	-3.503779	0.0	0.0
