14
Coordinates from ORCA-job run
  C   1.05466751153058     -0.22652713662227      0.02300306059941
  C   -0.38992074812723     -0.25895239516379      0.59381446502365
  Cl  2.22133984679421     -0.59832515521321      1.32743419661162
  H   -0.51913074586885     -1.25461288407586      1.03325216623794
  C   1.18376200497789     -1.24368292847722     -1.02358772007915
  N   1.24670244586563     -2.07603843757410     -1.85114024504910
  C   1.35275241109904      1.09633622967781     -0.52956481125543
  N   1.55321365051656      2.16522672881720     -0.97568733059762
  C   -1.43972549993819     -0.01601147518408     -0.49393404306484
  H   -1.31405629569607      0.97114041569504     -0.94267089181138
  H   -1.37066404813357     -0.77798856485248     -1.27206560456483
  H   -2.43530392104297     -0.06541280488411     -0.05051740324046
  C   -0.50635404328115      0.73509385559398      1.66140553810158
  N   -0.63528256869588      1.54775455226311      2.49925862308860
