14
Coordinates from ORCA-job run
  C   0.88966545503138     -0.35251235434708     -0.39908956992364
  C   -0.50757910719782     -0.38128553915294      0.28519869040051
  Cl  0.80233849347381     -1.25939063373925     -1.94342538791316
  H   -0.76298328868176     -1.44088091014854      0.40179239808162
  C   1.29257390545869      1.02681665309052     -0.67932953211884
  N   1.58139501381445      2.14463813049697     -0.90029875427318
  C   1.88423573393016     -1.00423597965674      0.45572281922497
  N   2.65880332853732     -1.54602694369333      1.15468301053798
  C   -1.58639578242468      0.33995782488459     -0.52428094066771
  H   -1.69283247341892     -0.11002672160364     -1.51090305306470
  H   -2.54007124169435      0.25707381383452     -0.00083814777473
  H   -1.34570501725968      1.39890161488696     -0.63357115195631
  C   -0.37876885813765      0.21317113793726      1.61755176427047
  N   -0.29267616143096      0.71379990721070      2.67678785517671
