14
Coordinates from ORCA-job run
  C   1.05509119356494     -0.21789666090509     -0.06023933188106
  C   -0.33592911174902     -0.24811658107234      0.63052011057406
  Cl  2.33083456481479     -0.55167777380970      1.14845017926012
  H   -0.41907908632051     -1.23516913491971      1.09961453486493
  C   1.10485886592403     -1.25654326088504     -1.09253208105908
  N   1.10582540018276     -2.10349829015451     -1.90747171291457
  C   1.29341351477144      1.09375344221531     -0.66613856351545
  N   1.44525600400019      2.15238239300623     -1.15406231591400
  C   -1.47557528315322     -0.03618073137940     -0.36971363906684
  H   -1.46807106865097     -0.81682098861913     -1.13229091818750
  H   -1.39434775125911      0.94019180440351     -0.85111013036880
  H   -2.42967881665864     -0.07885072970062      0.15764883477843
  C   -0.37190662224506      0.76671149177881      1.68424222739333
  N   -0.44169180322156      1.59271502004170      2.51608280603644
