14
Coordinates from ORCA-job run
  C   0.89007346167345     -0.30614080748234     -0.43664342160915
  C   -0.49287918359611     -0.41088955900013      0.26919109475739
  Cl  0.79333249280304     -1.11694678280136     -2.03303195190856
  H   -0.72312190661946     -1.48131295791475      0.32079406433139
  C   1.25456381394350      1.09756965564028     -0.63746283638392
  N   1.50592144036630      2.23481727927856     -0.79581982245149
  C   1.91592873008588     -0.98555106147725      0.35751879772752
  N   2.71779551708151     -1.54950390725000      1.00618712686135
  C   -1.60195649937859      0.33699606685950     -0.47225543709856
  H   -1.71555966427086     -0.04735170422350     -1.48532760307083
  H   -2.54403048792176      0.19630188271435      0.05940144134055
  H   -1.38737294287674      1.40607507140448     -0.51314359580952
  C   -0.35221627531071      0.09814897791457      1.63530579583740
  N   -0.26147849597947      0.52678784633759      2.72528634747641
