14
Coordinates from ORCA-job run
  C   1.05497628036253     -0.22200483939815      0.01967012805792
  C   -0.38685376071637     -0.25874045950669      0.59640037350022
  Cl  2.22855190033752     -0.58731655797075      1.31991443436416
  H   -0.50992794780051     -1.25423125915247      1.03811894095839
  C   1.18354847509185     -1.23980821301388     -1.02636811377065
  N   1.24774040003357     -2.06627098845109     -1.85956318236232
  C   1.34775579098838      1.10011523943042     -0.53738165518831
  N   1.54723232871181      2.16695913055694     -0.98897334230103
  C   -1.44216530377864     -0.02259609937682     -0.48740417482831
  H   -1.32001792670349      0.96233547616699     -0.94187213636302
  H   -2.43552528238168     -0.07103981838238     -0.03909000823392
  H   -1.37569568657330     -0.78839176930891     -1.26197620118619
  C   -0.50368332025448      0.73550166572495      1.66376832236834
  N   -0.63593594731720      1.54448849268184      2.50475661498471
