14
Coordinates from ORCA-job run
  C   1.03717833688275     -0.26756214756273      0.12769013611986
  C   -0.47537709618117     -0.35427763134509      0.46871700742991
  Cl  1.99532309520594     -0.93405678783864      1.48371291764033
  H   -0.67876212649478     -1.41096571582661      0.67694870063530
  C   1.30942121379649     -1.06246315328616     -1.07266459738638
  N   1.49602468078530     -1.70683199093934     -2.03787130160614
  C   1.42807557111000      1.12493015812180     -0.10135697876839
  N   1.70700996544912      2.25019875219532     -0.29608847931166
  C   -1.35064618270129      0.13953885606142     -0.68639890684214
  H   -2.40121429536711      0.04393927982481     -0.40833016597056
  H   -1.14938203715611      1.18972796487811     -0.90592309831868
  H   -1.17568444441175     -0.45665593095183     -1.58353331718397
  C   -0.74052284387834      0.41144114002692      1.68740262375352
  N   -1.00044383703908      1.03403720664203      2.64869545980898
