14
Coordinates from ORCA-job run
  C   1.05495045806888     -0.22663893516220     -0.03808225859092
  C   -0.36256289011255     -0.28978945655292      0.59397706068082
  Cl  2.27700109864979     -0.67532940075073      1.18919860708679
  H   -0.47638808159427     -1.30897876183399      0.98059966157519
  C   1.13241087120657     -1.18155578984609     -1.14660025383993
  N   1.14515601864343     -1.96879913751357     -2.01932896221711
  C   1.33453369770552      1.12521498379754     -0.52657519466204
  N   1.52818173506909      2.21192461943778     -0.93070200927826
  C   -1.45883353505273      0.01795524040691     -0.42961294789745
  H   -1.34770725767358      1.02844992617992     -0.82730693816008
  H   -1.42946420723847     -0.69899029954522     -1.25176578651699
  H   -2.43367013919575     -0.05304373739352      0.05499338749851
  C   -0.42882331936693      0.63844739094789      1.72340737768367
  N   -0.53578444910899      1.38113335782815      2.62679825663776
