14
Coordinates from ORCA-job run
  C   1.03771437410376     -0.27344786948580      0.11340893613058
  C   -0.47777411331560     -0.39634947345172      0.43100678966828
  Cl  1.98648271267606     -1.05261249718668      1.41504486421463
  H   -0.67700297342434     -1.46812891625579      0.54421288342558
  C   1.32409615526636     -0.95961478282324     -1.14905167603879
  N   1.51081381017220     -1.52399536752478     -2.16301569496228
  C   1.42355176712512      1.13543604552530      0.01149854705779
  N   1.69503793433718      2.27567101623363     -0.07747955102538
  C   -1.34532662151822      0.19218727892194     -0.68486944302607
  H   -1.15948634537762     -0.32299363228156     -1.62873244397829
  H   -1.14763799416919      1.25838380913121     -0.81026606290397
  H   -2.39775515282596      0.06808069263355     -0.42575294404965
  C   -0.75656091134606      0.26062588154936      1.70864225929172
  N   -1.01615264170367      0.80675781501458      2.71535353619586
