14
Coordinates from ORCA-job run
  C   0.97803012528121      0.07269863994027     -0.20212916788895
  C   -0.44554513706929     -0.28132329558293      0.31762635881472
  Cl  1.35121020741615      1.79547069605315      0.10496334608647
  H   -0.56796459405719     -1.35612709822393      0.13191519989156
  C   1.97571974041812     -0.75476655604238      0.48025523073358
  N   2.75016309579608     -1.44289302642538      1.03576913068538
  C   1.03839410969263     -0.17780057396360     -1.64459997085978
  N   1.04659656996543     -0.39538532553794     -2.79962400183461
  C   -1.55535007685801      0.48867238038335     -0.39929528367268
  H   -2.52240793572627      0.16044766998317     -0.01565351487733
  H   -1.52468329252485      0.29112846748642     -1.47219427763682
  H   -1.46135358464743      1.56045234549080     -0.22658037145923
  C   -0.49378148892078     -0.06933607172303      1.76469411365312
  N   -0.56702773876580      0.11076174816204      2.92285320836452
