14
Coordinates from ORCA-job run
  C   0.89677623278185     -0.30718603444937     -0.42185107606469
  C   -0.48689837050087     -0.40882035152043      0.28306584851044
  Cl  0.82014069144505     -1.17677999517158     -1.98766020215871
  H   -0.69838451042566     -1.48024890837899      0.37705036674701
  C   1.23851469876893      1.09456932171943     -0.67086544653917
  N   1.47299476159948      2.23027245272868     -0.86251065104270
  C   1.93090483237036     -0.93941893760806      0.40016293398946
  N   2.74063206856494     -1.46568391531535      1.07057881792241
  C   -1.60653544967369      0.28814988756142     -0.49161574718822
  H   -1.71509565090184     -0.14532219607124     -1.48542410659478
  H   -2.54631097694046      0.15963620376290      0.04736741671667
  H   -1.40684955542950      1.35723940311543     -0.58319287461627
  C   -0.36028927972257      0.15807892282939      1.62757889849460
  N   -0.27959949193603      0.63451414679777      2.69831582182398
