14
Coordinates from ORCA-job run
  C   0.87400037839939     -0.32691708019313     -0.45215241699158
  C   -0.47956269669936     -0.39456284771014      0.31303628297299
  Cl  0.72068260391203     -1.23253722083390     -1.99213153837029
  H   -0.69809680360709     -1.46088125348950      0.44248723633671
  C   1.22235822018965      1.06364361694493     -0.74946612801237
  N   1.46805768147402      2.19026146201984     -0.97708063503253
  C   1.93397964640227     -0.95352794756970      0.34048777184351
  N   2.76129971186233     -1.47692943072719      0.99139780932863
  C   -1.62342433678123      0.29640361381793     -0.43080288389195
  H   -2.54079521954970      0.19362264105814      0.15063608801830
  H   -1.41573278594228      1.36020739572928     -0.55882992752823
  H   -1.77954581342942     -0.16133300918047     -1.40729019966275
  C   -0.28855285503630      0.20257145888685      1.63667881394530
  N   -0.15466773119432      0.70097860124704      2.69202972704424
