14
Coordinates from ORCA-job run
  C   0.88993303562567     -0.28913587220907     -0.44827997409861
  C   -0.47443029201568     -0.41868611260212      0.28890855498210
  Cl  0.78637311522956     -1.14028538682772     -2.02268605552791
  H   -0.66986808209736     -1.49401697688633      0.37251106587902
  C   1.20717120366036      1.11997550584518     -0.68806806466716
  N   1.42439004604712      2.26033371922729     -0.87285142716039
  C   1.95211111123031     -0.91739760122611      0.34031761247374
  N   2.78176201745352     -1.44208826890650      0.98714869421174
  C   -1.62157740716681      0.27429748935032     -0.44817370263230
  H   -1.74680294306966     -0.14425649329241     -1.44640448409040
  H   -1.43951097837933      1.34756430782426     -0.52621415938816
  H   -2.54672530354115      0.12284956635126      0.10984604082636
  C   -0.32211951819392      0.13058988910539      1.63801292794332
  N   -0.22070600478266      0.59125623424658      2.71393297124863
