14
Coordinates from ORCA-job run
  C   0.96851768337071      0.12969372252425     -0.21367553275859
  C   -0.42511018682385     -0.29934603546083      0.33020983378067
  Cl  1.23485982492132      1.87982448642876      0.04622054181782
  H   -0.48145186679828     -1.38419281905643      0.17330565776787
  C   2.02328338304109     -0.61538740292737      0.47782279250197
  N   2.85261778020271     -1.23850827245605      1.03082232502713
  C   1.03132141565333     -0.15376964319058     -1.64994364450011
  N   1.03963268961246     -0.39982788099107     -2.79925285804794
  C   -1.58778622393469      0.38071862605191     -0.39373056128899
  H   -1.56040052531618      1.46035398011989     -0.24863589814914
  H   -1.55450547787115      0.15846778483733     -1.46167785153651
  H   -2.52863711827424      0.00194094741353      0.00810869695529
  C   -0.47223660907933     -0.05471669131400      1.77218443862516
  N   -0.53910476870387      0.13474919802058      2.92924205980543
