14
Coordinates from ORCA-job run
  C   0.88883272616479     -0.28817407636737     -0.45098965429800
  C   -0.46934361570626     -0.41839983169660      0.29728874165474
  Cl  0.77998823389170     -1.15744508865550     -2.01497219193077
  H   -0.65599966718728     -1.49402070267050      0.39618917295450
  C   1.19509017493887      1.12023042746904     -0.70832827847865
  N   1.40362492864645      2.25988971240000     -0.90663168143585
  C   1.96070537930674     -0.90063383166453      0.33705692542177
  N   2.79820173637485     -1.41290289354357      0.98362398360133
  C   -1.62682358346897      0.25673044182234     -0.43997669517251
  H   -1.75884252887688     -0.17831662617456     -1.43024599100419
  H   -2.54608878341149      0.10945492140954      0.12876285476511
  H   -1.45134797702192      1.32958577790378     -0.53677424960450
  C   -0.31144456308823      0.14887625535104      1.63835621419297
  N   -0.20655246056240      0.62612551441690      2.70664084933404
