14
Coordinates from ORCA-job run
  C   0.88977776226704     -0.31924132639790     -0.42728144548229
  C   -0.48923531862548     -0.40190243078119      0.28931899148419
  Cl  0.79069166085410     -1.19594877876190     -1.98794759870307
  H   -0.71181364580773     -1.47048125089846      0.38945218251390
  C   1.24590030004072      1.07692344106219     -0.68695153683156
  N   1.49398501185786      2.20746439572340     -0.89234482058089
  C   1.92288672387955     -0.95947827523918      0.38994166849350
  N   2.72842918813891     -1.49334041538087      1.05929483934531
  C   -1.60687536174261      0.30448254292239     -0.47953244111760
  H   -1.39631145511925      1.37098376372717     -0.57632668549890
  H   -1.72718957801774     -0.13126053309233     -1.47100479879315
  H   -2.54421658672179      0.18793112207480      0.06636866102354
  C   -0.34486900889866      0.16968958148265      1.63003038156259
  N   -0.25015969210492      0.65417816355921      2.69598260258439
