14
Coordinates from ORCA-job run
  C   0.89043475720416     -0.31629532198789     -0.42935846308690
  C   -0.49380280746209     -0.40587372941394      0.27603079905729
  Cl  0.79629471704357     -1.16162627612048     -2.00751686275553
  H   -0.72579935459419     -1.47484454571310      0.34674881803938
  C   1.25544335715322      1.08282437127043     -0.65976371925602
  N   1.51054953016029      2.21561144657506     -0.84206980829949
  C   1.91544928011080     -0.97664973342805      0.38169831666730
  N   2.71613635331112     -1.52306287438065      1.04682180874647
  C   -1.60022691195980      0.32981450449562     -0.48156585993731
  H   -1.71063159298410     -0.07169009317649     -1.48847258817070
  H   -1.38501096841989      1.39808661224805     -0.53996784795122
  H   -2.54409316175230      0.19855298418097      0.04944799289798
  C   -0.35595880786157      0.12783516735396      1.63291543100559
  N   -0.26778438994922      0.57631748809645      2.71505198304315
