14
Coordinates from ORCA-job run
  C   0.97480534574676      0.03176037593394     -0.22916155382129
  C   -0.44708183576862     -0.26349720182657      0.33022537086635
  Cl  1.42726297128712      1.73769593758231      0.06773543242990
  H   -0.61866441689709     -1.33216326816231      0.14791129973328
  C   1.95633346162565     -0.83642344753853      0.42501908749229
  N   2.71736190900127     -1.55777062288905      0.95643850577042
  C   0.98329158397155     -0.21759979499165     -1.67288379365968
  N   0.94658818547342     -0.42897470111804     -2.82848005675293
  C   -1.54401243569045      0.55216559474825     -0.35533828870474
  H   -1.55212730785393      0.35453315062953     -1.42867245897637
  H   -1.40093695764189      1.61902497140417     -0.18551865459187
  H   -2.51253274336826      0.26383320599842      0.05592470365899
  C   -0.44737472352217     -0.05167140125751      1.77796345037946
  N   -0.48291303636335      0.12908720148704      2.93783695617619
