14
Coordinates from ORCA-job run
  C   1.04344211408522     -0.27065451552746     -0.04477495134326
  C   -0.39552946443340     -0.35991846915062      0.53405585142762
  Cl  2.20441109096505     -0.95683797643641      1.13112624447329
  H   -0.56550129668765     -1.41909018110204      0.75876911330863
  C   1.11563524026270     -1.05116721449416     -1.28255118365400
  N   1.13160875427868     -1.69179465733204     -2.26788977051910
  C   1.39677743882363      1.12426565866357     -0.31526526206361
  N   1.64213811029588      2.25302126217802     -0.53319839406078
  C   -1.44353766551060      0.14973027804104     -0.45880476347755
  H   -1.41722298575243     -0.43523064371261     -1.37966780963776
  H   -2.43596699589797      0.05164145752253     -0.01647476355445
  H   -1.27688981998844      1.20244139385020     -0.69459787924482
  C   -0.45674704977211      0.39161298170262      1.78827483803141
  N   -0.54361747066856      1.01298062579733      2.78099873031438
