14
Coordinates from ORCA-job run
  C   0.92264609045895     -0.37496422682277     -0.41398022487556
  C   -0.57153681432864     -0.49471986628256     -0.00709405767168
  Cl  1.61234556371193     -2.00969366313715     -0.64398758248804
  H   -1.05630783914736     -1.07237113407125     -0.80241988425706
  C   1.02333899655920      0.35768546995419     -1.67879620423726
  N   1.07502519061351      0.95065458655507     -2.69230946929469
  C   1.67826021969365      0.32632657824320      0.62589605444158
  N   2.25520154767888      0.90714167808889      1.46942832305626
  C   -1.23592161738602      0.87722989825722      0.13630658151821
  H   -0.75377271475899      1.46331302819122      0.92092657298866
  H   -2.28450439255446      0.74294307525372      0.40579018143799
  H   -1.18956148740220      1.42712419306973     -0.80517570528547
  C   -0.67331461683321     -1.25583229850920      1.23866943450194
  N   -0.80289812630520     -1.84583731879028      2.24574598016516
