14

C	0.0	0.0	0.0
C	-0.483236	-0.177856	-1.428481
Br	1.968149	0.0	0.0
H	-0.065419	-1.114033	-1.811846
H	-0.237122	1.01003	0.352262
H	-1.569078	-0.289457	-1.356706
N	-0.497168	-1.058715	0.830376
H	-1.512937	-1.045931	0.69652
H	-0.325523	-0.832807	1.804109
C	-0.165292	0.992961	-2.347286
H	0.910179	1.153899	-2.454842
H	-0.617806	1.910533	-1.960593
H	-0.585238	0.816984	-3.341373
Cl	-3.676984	0.0	0.0
