14

C	0.0	0.0	0.0
C	-0.391142	0.419171	-1.414994
Br	1.962263	0.0	0.0
H	0.010558	-0.340658	-2.093795
H	-0.243012	0.793231	0.715652
H	0.136073	1.352287	-1.633379
N	-0.517727	-1.293824	0.334621
H	-0.426938	-1.461578	1.329482
H	-1.512651	-1.295589	0.118078
C	-1.88676	0.607417	-1.635358
H	-2.344824	1.265231	-0.897402
H	-2.460098	-0.316422	-1.587085
H	-2.054073	1.041885	-2.625571
Cl	-4.791384	0.0	0.0
