14

C	0.0	0.0	0.0
C	-0.462448	-0.172452	-1.441978
Br	1.970227	0.0	0.0
H	-0.058607	-1.118351	-1.823596
H	-0.277994	0.989641	0.366102
H	-1.550319	-0.267015	-1.371181
N	-0.496249	-0.974687	0.928709
H	-0.402712	-1.894774	0.509424
H	-1.501047	-0.785545	0.996382
C	-0.111017	0.980639	-2.371887
H	-0.567647	0.829658	-3.353262
H	0.967128	1.086762	-2.506883
H	-0.503913	1.918684	-1.970809
Cl	-3.667471	0.0	0.0
