14

C	0.0	0.0	0.0
C	-0.481695	-0.155046	-1.434548
Br	1.970279	0.0	0.0
H	0.005216	0.606651	-2.049549
H	-0.221757	1.015699	0.343424
H	-1.553757	0.06194	-1.404001
N	-0.52385	-1.037298	0.837596
H	-0.368281	-0.79611	1.81016
H	-1.538712	-1.01134	0.685322
C	-0.257203	-1.542627	-2.02166
H	0.802629	-1.80929	-2.029047
H	-0.62882	-1.575273	-3.050167
H	-0.794854	-2.292959	-1.443655
Cl	-3.681434	0.0	0.0
