12
Coordinates from ORCA-job run
  C   -0.44632782868346     -0.07309381479033      0.08484828478851
  C   0.84673482009194     -0.50184273800153      0.06580166081436
  H   1.00234049412002     -1.52537713474527      0.39075973394408
  N   -1.48814853374852     -1.03325612740292      0.41366572231302
  O   -2.56839184819686     -0.90973411506825     -0.15450514053320
  O   -1.19035987160992     -1.92968533570792      1.20356719859387
  N   -0.84171402464651      1.27925877911705     -0.20394259041902
  O   -1.93127691404979      1.67910391265010      0.18593523086017
  O   -0.00070252183630      1.97357481374432     -0.79335033073165
  N   1.93765262417349      0.18542070871299     -0.28040057720986
  H   2.83651697721536     -0.26022908400714     -0.26053487998896
  H   1.84367662717053      1.11686013549890     -0.65284431243132
