12
Coordinates from ORCA-job run
  C   -0.44932020444713     -0.08105120331542      0.05802278406716
  C   0.84212551951935     -0.51347232540172      0.01935946530963
  H   0.98618972414015     -1.56893245507791      0.22609063556913
  N   -1.47945564500210     -1.01751932474493      0.47885058460311
  O   -2.42333123737926     -0.56689716066665      1.11990202910346
  O   -1.30130002124878     -2.20366628178647      0.20038801504086
  N   -0.85330155770340      1.25378257368528     -0.29311219556961
  O   -2.02137013381857      1.46449728650569     -0.59359293066237
  O   0.05031165843946      2.10201280774492     -0.32037648066371
  N   1.93995721661832      0.19307533620730     -0.25976735345710
  H   2.83908067861022     -0.25211578749137     -0.24267229287130
  H   1.87141400227176      1.18928653434128     -0.39409226046927
