12
Coordinates from ORCA-job run
  C   -0.41753024243595      0.18379559220408      0.06059444926917
  C   0.93972555371655      0.29862084821504      0.02899562111261
  H   1.32905182627049      1.28516525842229      0.25843752255453
  N   -1.12509106984653     -1.00938590167063     -0.31882089834594
  O   -0.44810391077361     -2.04678239650379     -0.36625672577403
  O   -2.30880910712116     -0.93076747557186     -0.62164808875018
  N   -1.19787280776104      1.32835272190395      0.50365265659221
  O   -2.22379144029735      1.10045374149493      1.13647220057613
  O   -0.74280868446307      2.44424440987577      0.25081001883849
  N   1.83982214614416     -0.64174513100277     -0.26746675993307
  H   1.53764376124780     -1.59019026485713     -0.42340479496017
  H   2.81876397531971     -0.42276140250989     -0.24236520117975
