12
Coordinates from ORCA-job run
  C   -0.44749711263104     -0.09155240930377     -0.05904674678940
  C   0.79717671415335     -0.45886926521739      0.35576060158638
  H   0.86735246978434     -1.44704299280856      0.79856003723154
  N   -1.56303855795405     -0.97692141398532      0.23636337402608
  O   -1.32346313577827     -2.18445178094759      0.26347716307353
  O   -2.64588525510978     -0.45647656714121      0.48446769130508
  N   -0.72409050624975      1.13064024373437     -0.76467727249013
  O   0.15650011863599      2.00106684859906     -0.70357638164036
  O   -1.75628466210485      1.22268298777204     -1.41685195598079
  N   1.93494631559910      0.23324989640682      0.26159193451418
  H   2.78724394776592     -0.15439884938371      0.62258013806824
  H   1.91603966388904      1.18107330227525     -0.07964858290435
