12
Coordinates from ORCA-job run
  C   -0.43112581394725     -0.07247480970850      0.07259702073095
  C   0.86719143974251     -0.39708146529361      0.29148788816163
  H   1.04062186083216     -1.33205335018280      0.81716081062769
  N   -0.89044048581958      1.12284354397998     -0.56856073206562
  O   -2.09801594809773      1.33481410473370     -0.60173382910647
  O   -0.02045428671128      1.86540512114993     -1.04165443559296
  N   -1.47375140622828     -1.02012180625406      0.43899725470276
  O   -1.51650573080751     -1.38063230231929      1.61579662022079
  O   -2.15651419030356     -1.46473206184572     -0.48066567913675
  N   1.96118623941432      0.32655336932293     -0.00148846471573
  H   2.86175363359998     -0.11388879054295      0.05999092587442
  H   1.85605468832622      1.12936844696039     -0.60192737970072
