12
Coordinates from ORCA-job run
  C   -0.40915197201879      0.16818009397745      0.09251735405486
  C   0.93988158285359      0.33421505980635      0.00206940583205
  H   1.31317719011923      1.31722971929536      0.26808972810954
  N   -1.08370813863553     -1.08234695773355     -0.12553511262304
  O   -2.22392051045774     -1.21905678930897      0.29929750370145
  O   -0.43013966902790     -1.96369714365614     -0.70131490140034
  N   -1.22986276929630      1.33477043749836      0.39632832744271
  O   -0.75021041283490      2.15827690764627      1.17458795812801
  O   -2.35383375886724      1.37618785686194     -0.08970388849521
  N   1.84738163080534     -0.55859382040891     -0.40693414423634
  H   2.82536209480225     -0.36738724671637     -0.28213230552233
  H   1.55602473255800     -1.49777811726178     -0.62726992499135
