12
Coordinates from ORCA-job run
  C   -0.41479915188950      0.17395542589762      0.09752124408009
  C   0.94340367356536      0.27907307556247      0.07202530488851
  H   1.34397392154428      1.21988660862741      0.43519951828891
  N   -1.12777165178623     -1.02820724174667     -0.24112757773150
  O   -0.48366941810346     -1.87885096808537     -0.87219547629300
  O   -2.27980737064077     -1.16883570991821      0.14900249675261
  N   -1.19064390400826      1.34344926836124      0.48025979986769
  O   -0.67968653654361      2.10618376580249      1.30081746988035
  O   -2.27147906600573      1.50993172160803     -0.07553015324790
  N   1.83353479114307     -0.63507519082214     -0.32097472753076
  H   1.51435199278898     -1.49964873833715     -0.72814719814654
  H   2.81359271993587     -0.42086201694973     -0.29785070080846
