12
Coordinates from ORCA-job run
  C   -0.41533421695480      0.19656470755262     -0.03516468744794
  C   0.93949969105109      0.28959277228673      0.07390793396933
  H   1.33248679606114      1.29904853748687      0.13785312164975
  N   -1.20179242548899      1.41570529962105      0.07225831309303
  O   -2.29959758190479      1.33314779966049      0.61331928401180
  O   -0.68266858110825      2.45106438136994     -0.34561929355457
  N   -1.11528968386071     -1.04422137581377     -0.23330314895718
  O   -0.47156588693962     -2.07374216151366      0.01645138151241
  O   -2.25467036887139     -1.02187716738908     -0.68108516088062
  N   1.83600259444055     -0.69987459606990      0.08351356998903
  H   2.81083862637105     -0.48863914062973      0.19336222433001
  H   1.52109103720472     -1.65676905656156      0.10350646228494
