12
Coordinates from ORCA-job run
  C   -0.41816736699271      0.17939644490786      0.07004327141926
  C   0.93828240703608      0.30215689837071      0.03244967564217
  H   1.32417514279240      1.28303522804029      0.29027678391360
  N   -1.12242907059188     -1.00457845921995     -0.34328111841480
  O   -2.30925768168546     -0.92279565972676     -0.63296423425785
  O   -0.44028982276203     -2.03596972902367     -0.43097824714500
  N   -1.20081313648816      1.30548574333254      0.55449418971493
  O   -2.22070040667591      1.05299557696562      1.18774631642499
  O   -0.75310775459103      2.43103013754822      0.33284953335973
  N   1.84099529465758     -0.62340478857763     -0.30025594270227
  H   1.54244049545625     -1.56765548452644     -0.48574563345301
  H   2.81887189984486     -0.39969590809078     -0.27563459450175
