12
Coordinates from ORCA-job run
  C   -0.40337783473733      0.17966456171743      0.05242241300900
  C   0.94418301331118      0.31167490699792      0.04611573677849
  H   1.31278862282853      1.29920527773192      0.30812770269835
  N   -1.24959971669016      1.28755649757582      0.46428914886535
  O   -0.87455520508514      2.42369187041348      0.18185533759608
  O   -2.21119210257836      0.99453109346951      1.16854399477715
  N   -1.09944712558621     -0.99793412715967     -0.40861506652435
  O   -2.26074619227535     -0.88069334112849     -0.77403476143684
  O   -0.45685912439873     -2.05364890495943     -0.37702786454397
  N   1.87487281211340     -0.60701917023371     -0.26617476598024
  H   1.59233809217609     -1.57119107457944     -0.33404962532428
  H   2.83159476092208     -0.38483758984533     -0.05945224991474
