12
Coordinates from ORCA-job run
  C   -0.42510138694120     -0.11779525981018      0.06441316581648
  C   0.89301907995047     -0.43209238609095      0.10430399993627
  H   1.12385302457158     -1.40788742156813      0.52171740436594
  N   -0.95910810098335      1.06650703405979     -0.55720351422330
  O   -2.13967211384379      1.06568557509512     -0.88160623792025
  O   -0.16679046789903      1.99982479779154     -0.73021742126521
  N   -1.41094035959599     -0.99852310658962      0.66387810200106
  O   -2.23385822745062     -0.46556732495524      1.40274477236271
  O   -1.27646271837946     -2.20779416734307      0.47869088507542
  N   1.93616625049169      0.28895881739331     -0.33696775099141
  H   2.86197827767493     -0.04762544425502     -0.14802650918274
  H   1.79791674240477      1.25530888627243     -0.58172689597497
