12
Coordinates from ORCA-job run
  C   -0.42612473334646      0.17207292083329      0.03517591354091
  C   0.90423860636057      0.20762333108426      0.32813023921535
  H   1.22505134983420      1.06199433947289      0.91508643033533
  N   -1.06440208531719     -0.91704781919207     -0.65392197957587
  O   -2.28160205727291     -1.03283883381754     -0.59287424389683
  O   -0.30701315384616     -1.69774370010191     -1.24866663019195
  N   -1.24360536688240      1.31196718884334      0.42238964154416
  O   -2.15719141932032      1.63687028962539     -0.32863036878034
  O   -0.91598179918664      1.90383088753228      1.45154207673829
  N   1.84588963858258     -0.68538687058160      0.01312426999455
  H   1.61765644532310     -1.45204882950454     -0.59985646365702
  H   2.80308457507163     -0.50829290419378      0.25850111473341
