12
Coordinates from ORCA-job run
  C   -0.45611753364072     -0.05250900165979      0.03345392923782
  C   0.81075437923314     -0.39680557434968      0.39788411457686
  H   0.88412195532219     -1.19951337532698      1.12433818968729
  N   -1.56224051862629     -0.84815073796755      0.54211811491423
  O   -1.42319798272497     -1.34353669988754      1.66085754997359
  O   -2.52883791465472     -1.00787414377747     -0.19612876654452
  N   -0.76286898173081      1.05526829472724     -0.83117318406086
  O   0.18189743441255      1.49442939359704     -1.50287441883484
  O   -1.89180818483242      1.52905344612816     -0.81610143632496
  N   1.96135730007875      0.14328486581707     -0.01049974075483
  H   1.95442963052528      0.84489966638575     -0.73356010783764
  H   2.83251041663800     -0.21854613368624      0.33168575596785
