12
Coordinates from ORCA-job run
  C   -0.41486658374904      0.19586547031262     -0.04082425928079
  C   0.92809677914135      0.28722551606038      0.17007323784967
  H   1.30292109485612      1.28839252112238      0.35628105688482
  N   -1.08165469895859     -1.02385930758205     -0.41027249192321
  O   -2.18401096291800     -0.96396863802609     -0.93981996759544
  O   -0.44624807690305     -2.06920432801947     -0.21013574922189
  N   -1.22327736626463      1.39382282854520      0.12182735320374
  O   -2.35607300812489      1.25304086331477      0.57115053521643
  O   -0.68996467945454      2.46774436448425     -0.15828944755678
  N   1.83347686383188     -0.69378974494723      0.15374916131911
  H   2.79845220642842     -0.48650913238729      0.33480679264480
  H   1.53214843211498     -1.64976041287747      0.05145377845953
