12
Coordinates from ORCA-job run
  C   -0.42172500467487      0.17848943363518     -0.04638805283500
  C   0.92638217816830      0.32900990140140      0.08028656042533
  H   1.28017877036356      1.35458305537534      0.10341272498062
  N   -1.07020457643529     -1.09548943070171     -0.20342470145603
  O   -2.20073708245678     -1.13614748991225     -0.67188358032920
  O   -0.39339923212270     -2.08770876132288      0.10351145693080
  N   -1.25556790997771      1.37001744390432     -0.01733855823787
  O   -2.35909488376217      1.27349684758719      0.50973403958961
  O   -0.76897294035489      2.40128101333938     -0.48210031598461
  N   1.85850454979956     -0.62361161232162      0.15758264646190
  H   1.58054983872872     -1.59082347930544      0.20690413476214
  H   2.82408629272427     -0.37109692167892      0.26170364569231
