12
Coordinates from ORCA-job run
  C   -0.43215837230506      0.15576706796914      0.02685612767541
  C   0.90666040860855      0.32284870877290      0.21593641402257
  H   1.20292492188011      1.28400725427087      0.62325682498271
  N   -1.31038328545736      1.29054038391033      0.26538983184980
  O   -0.97154227470084      2.08089837535799      1.14675072833962
  O   -2.29452579849356      1.40399963168012     -0.45812970326647
  N   -1.02851018770238     -1.08112309276988     -0.40055551003019
  O   -2.22089603845609     -1.27069659889188     -0.19687383011186
  O   -0.25500601815319     -1.90759585145536     -0.90593895296805
  N   1.88760347187234     -0.55219888300200     -0.01721860838923
  H   1.67570212220357     -1.43395740334177     -0.45629934299551
  H   2.84113105070390     -0.29248959250047      0.15682602089119
