12
Coordinates from ORCA-job run
  C   -0.44968213014501     -0.09322474732680      0.03007397370097
  C   0.85087566022184     -0.41307631435498      0.27994259576118
  H   1.00719980808280     -1.34829201103585      0.80757907845838
  N   -0.86523545873236      1.15227655085068     -0.55678195578598
  O   -2.02249302467606      1.52431557997599     -0.41007112456224
  O   0.02037929916596      1.79936323171796     -1.13433091664106
  N   -1.47819003756172     -1.06192145470148      0.37510520676200
  O   -2.45919325670857     -1.12805254105602     -0.35853167769452
  O   -1.26302675407508     -1.77843720831789      1.35311563007660
  N   1.94521213996202      0.28845859987868     -0.02467013202545
  H   1.86237399956458      1.13052591182231     -0.57164858573180
  H   2.85177975490159     -0.07193559745260      0.21021790768191
