12
Coordinates from ORCA-job run
  C   -0.43115588528591      0.16117621886541      0.00447290894710
  C   0.90237836438348      0.32519684791383      0.23023488952559
  H   1.19437254564757      1.30016141883052      0.60659174277823
  N   -1.30650091085224      1.31096447774415      0.16879637869795
  O   -2.26785085320119      1.40027843009764     -0.58804932965471
  O   -0.98798564780959      2.13569192749514      1.02586711022395
  N   -1.02517779263669     -1.08879455653874     -0.38670959757163
  O   -2.22431552753286     -1.26112005007520     -0.20904170519271
  O   -0.24441743111519     -1.94122709574713     -0.83435410890805
  N   1.88188477531700     -0.56695779290815      0.06550292677610
  H   2.83167762972322     -0.30872188486398      0.26075350696293
  H   1.67609073336241     -1.46464794081348     -0.34306472258476
