12
Coordinates from ORCA-job run
  C   -0.44108115525555     -0.09930384110493      0.08138362367944
  C   0.87848140641113     -0.43763205458869      0.10452082776535
  H   1.10231737612731     -1.41164933233184      0.52722586612182
  N   -0.92614734905515      1.19009960099402     -0.32822836671051
  O   -2.04594113342525      1.54416074167472      0.01834498732394
  O   -0.12862495016189      1.88821012877862     -0.97143161852641
  N   -1.41670750443691     -1.09321776402610      0.50189333013686
  O   -1.06592652315527     -1.87980948936123      1.38186297310485
  O   -2.49546124059583     -1.10627327248213     -0.08181363928308
  N   1.92001290018257      0.27369519793669     -0.33358419563752
  H   1.76744875467638      1.18867781337999     -0.72738943481573
  H   2.85362941868844     -0.05795772886912     -0.17378435315901
