12
Coordinates from ORCA-job run
  C   -0.41845147384687      0.18070016552314      0.05687388758384
  C   0.93808317551316      0.30529555032549      0.03371536586882
  H   1.31945159660658      1.29199310793373      0.27553870494951
  N   -1.21836405521967      1.37542541578769      0.27891794030489
  O   -2.29153461131977      1.45269420822856     -0.31008923711398
  O   -0.73323048899681      2.24278956250083      1.00586041718269
  N   -1.10711175975601     -1.06862149437655     -0.11793536602968
  O   -0.44040483648590     -1.98837302888106     -0.61459470686782
  O   -2.26250683653975     -1.17313017154169      0.27391924244123
  N   1.84718719712440     -0.62864963668461     -0.25609340549024
  H   1.54595807809261     -1.56409193994433     -0.47916914113454
  H   2.82392401482805     -0.42503173887119     -0.14794370169473
