12
Coordinates from ORCA-job run
  C   -0.41403070499328     -0.15503985616370      0.02729252452778
  C   0.87270020442449     -0.52203990854843      0.04226051848085
  H   1.10899378067893     -1.54138445599460      0.34227523142500
  N   -1.50162176076788     -1.03682788676214      0.41266322105224
  O   -1.20654914952778     -2.09426336473608      0.95820817005394
  O   -2.63324519977237     -0.64486848230183      0.13409653662153
  N   -0.85282649100328      1.16961409584869     -0.38864335892422
  O   -1.00867568108538      1.99268176240395      0.51214835429508
  O   -0.98888295912406      1.35387920449272     -1.59377336071254
  N   1.88305317767138      0.36980897783030     -0.29546716723201
  H   1.96565177072721      1.18044649615187      0.29996749385892
  H   2.77443301277203     -0.07200658222074     -0.45102816344656
