12
Coordinates from ORCA-job run
  C   -0.45055401749318     -0.08679775395066     -0.03706282595279
  C   0.83412296255054     -0.51427387589288      0.11295677615901
  H   0.95807461271952     -1.58618696440648      0.22774021402704
  N   -1.52329654033025     -1.06041013149957      0.09259969806352
  O   -1.27748476100683     -2.21089640209951     -0.27087305535553
  O   -2.57340891287905     -0.67822798897632      0.59864224011998
  N   -0.80895037233602      1.28012044854450     -0.30656608350223
  O   -1.90751732826574      1.52507910216892     -0.78828559766867
  O   0.06945526747594      2.12441195436582     -0.07789813944660
  N   1.95265251615044      0.21538602916992      0.10381363184115
  H   2.83851245695871     -0.22901533850367      0.26144087142060
  H   1.88939411645591      1.22081092107994      0.08349227029451
