12
Coordinates from ORCA-job run
  C   -0.44175307114577     -0.10074853020331      0.07868875960763
  C   0.87860199751390     -0.43605374233485      0.10593094801959
  H   1.10236556100419     -1.41448147699888      0.51831685648822
  N   -0.92746599333123      1.19197562499449     -0.32088515337466
  O   -2.05007353426530      1.54034944186692      0.02229879275865
  O   -0.12727636704181      1.89891090683394     -0.95096011306424
  N   -1.41689952410692     -1.10146341274621      0.48355410232654
  O   -1.06714283716173     -1.89918291634649      1.35393080156414
  O   -2.49450861527956     -1.10870287146442     -0.10244053311409
  N   1.92089955131298      0.28168411301649     -0.31956560078726
  H   1.77002585495499      1.19973908928618     -0.70667249699906
  H   2.85422697754626     -0.05202622590385     -0.16219636342547
