12
Coordinates from ORCA-job run
  C   -0.54763946575013      0.26143870432576      0.06819143667694
  C   0.75258953509473     -0.40182444066554      0.35968054967995
  H   1.09910550567260     -0.29619397876729      1.38893538194756
  N   -1.21877078316357     -0.89370712358262      0.07975658918517
  O   -2.31983776160717     -1.35358209358528      0.00696327368364
  O   -0.02136402655181     -1.69594904564193      0.28736863631389
  N   -1.08649389821754      1.57541276430164      0.06582410530928
  O   -0.28607478940681      2.47519066331209      0.31758956350212
  O   -2.28399402495825      1.69219636848504     -0.18911176568483
  N   1.79116334409809     -0.22330241631339     -0.55297555507511
  H   1.50380342142153     -0.38346603878979     -1.50839376686561
  H   2.61751294336835     -0.75721336307869     -0.32482844867300
