12
Coordinates from ORCA-job run
  C   -0.43193101727156     -0.10690777871158      0.11737064000342
  C   0.90581623114979     -0.36385666797893      0.14361887023999
  H   1.19787329912843     -1.25729188690766      0.68576737826117
  N   -1.00378014384467      1.08220011684444     -0.45476097028775
  O   -0.26785827201875      1.72120047807608     -1.22072793224653
  O   -2.13190902014087      1.42176935372504     -0.12132261849191
  N   -1.33550415590331     -1.08724707916515      0.69869597189283
  O   -2.42842981005179     -1.23493414479744      0.16145405768883
  O   -0.91466319817419     -1.73137779280143      1.66004456961413
  N   1.89363510083230      0.35518715676782     -0.39459104170568
  H   2.84333935745530      0.04270463587605     -0.30896953676934
  H   1.67441162883933      1.15655360907277     -0.96457938819916
