12
Coordinates from ORCA-job run
  C   -0.42945059259815      0.16476915396535      0.01399607616165
  C   0.90819483633744      0.31090298622872      0.22767059386616
  H   1.21416075080867      1.27512354322065      0.62026798005250
  N   -1.29088018376005      1.32025237140517      0.20961616148486
  O   -2.25908788721302      1.43416225941666     -0.53506879387262
  O   -0.95458869478586      2.12486108793227      1.07895913757632
  N   -1.04040017234461     -1.07039745911183     -0.39786462580344
  O   -0.27320048061607     -1.92090062101525     -0.87192501121653
  O   -2.23931763680976     -1.23442297467783     -0.21117644386083
  N   1.87664355785602     -0.58746465829599      0.03381322901322
  H   2.83090228271597     -0.34232671545641      0.22412638280982
  H   1.65702422040942     -1.47455897361151     -0.39041468621111
