12
Coordinates from ORCA-job run
  C   -0.44354551605037     -0.08705249887220      0.08560336651004
  C   0.85813835943021     -0.48589447991352      0.02825102244115
  H   1.04350720931052     -1.51341689014464      0.32370448059780
  N   -1.45584805083630     -1.07969622771974      0.41137347024695
  O   -2.54855745430102     -0.97150125686396     -0.13549634884557
  O   -1.12244618214187     -1.98388007471978      1.17789277116149
  N   -0.87489716440790      1.26324674517029     -0.15493694246130
  O   -1.96855172258847      1.62389188302353      0.26106384787248
  O   -0.05852936321573      1.99617974693245     -0.73236638067607
  N   1.92335263342062      0.22716600229522     -0.34408383838903
  H   2.84083078719844     -0.17448490596499     -0.28171826423070
  H   1.80654646418187      1.18344195677734     -0.63928718422723
