12
Coordinates from ORCA-job run
  C   -0.42625243807675      0.17180864431594      0.02891356517006
  C   0.89890934256996      0.21814063912998      0.34248654175550
  H   1.19913702478356      1.04686186957594      0.97537490420608
  N   -1.03459645721261     -0.90582087077844     -0.70366297875150
  O   -2.24561500106062     -1.06987257207161     -0.62790413577407
  O   -0.25666974756474     -1.64172016895227     -1.32818410705024
  N   -1.27558339569434      1.27329521231465      0.45466767352515
  O   -2.19476208561062      1.59716518899988     -0.29029201305289
  O   -0.97696043991394      1.83017301699481      1.51151841245941
  N   1.86184487895843     -0.63192193922792     -0.02034318464711
  H   1.64831586466635     -1.39480234184273     -0.64286626816629
  H   2.80223245415532     -0.49130667845824      0.30029159032590
