12
Coordinates from ORCA-job run
  C   -0.42451414164707      0.16496584007437      0.06689990551740
  C   0.91609571134845      0.35624222239462     -0.08322984484119
  H   1.24941971058207      1.38685992507654     -0.01846972591847
  N   -1.07047632851030     -1.10963890960020     -0.09421436158555
  O   -2.27500842997421     -1.14547996870010     -0.31119073793455
  O   -0.32690637346046     -2.10086582049440     -0.05577093226296
  N   -1.25127295657773      1.31070497895997      0.41233855201917
  O   -0.89419060539599      2.40621375029924     -0.02206986803960
  O   -2.21268977129683      1.11128301869541      1.14777660407387
  N   1.85782088207449     -0.56001989932011     -0.31990432914985
  H   1.61322248259078     -1.53743606989149     -0.32430914765873
  H   2.81849982026679     -0.28082906749386     -0.39785611421956
