12
Coordinates from ORCA-job run
  C   -0.43642635332044     -0.07001996461111      0.12809420391106
  C   0.84574402271244     -0.50762949097320     -0.01544796243905
  H   1.02536757944838     -1.53192062402069      0.29445589116569
  N   -1.44843598542569     -1.02320710384276      0.55570585179004
  O   -1.08229168376048     -1.92099240461027      1.31469946057541
  O   -2.57685494917271     -0.89319734734468      0.09244842416822
  N   -0.84859526618201      1.28499948066868     -0.12230716110689
  O   -1.89283140026739      1.69178889107506      0.37084132197599
  O   -0.06374832774763      1.97380859793760     -0.79026226146685
  N   1.90264285330591      0.17175035780625     -0.46680756749712
  H   1.77888822763820      1.10395506817556     -0.82855032349040
  H   2.79654128277143     -0.27933546026043     -0.53286987758609
