12
Coordinates from ORCA-job run
  C   -0.41846285815917      0.16143005101515      0.10341745865502
  C   0.92003920650468      0.34933155408720     -0.06739460743988
  H   1.27129444871362      1.36401073541155      0.08920633437846
  N   -1.05554719239672     -1.12690760534231      0.04887169726018
  O   -2.15529716371965     -1.27109911910663      0.56739061693355
  O   -0.39820471074689     -2.03258844494224     -0.48427767911006
  N   -1.25377706855027      1.32580638536212      0.35253908775967
  O   -2.38652401407730      1.31810365843773     -0.11827380288943
  O   -0.74161655292875      2.25499025561647      0.97740723468909
  N   1.84646073135929     -0.55968288182095     -0.38005397460716
  H   2.80449412916528     -0.28130241167659     -0.48763259454986
  H   1.56614104483585     -1.50209217704150     -0.60019977107957
