12
Coordinates from ORCA-job run
  C   -0.41019109253020      0.20040643638106     -0.05889731018303
  C   0.91092523648528      0.26860408720234      0.26699770677699
  H   1.26871231716537      1.25090495753925      0.55779264026023
  N   -1.04372180331676     -0.98419179444827     -0.57259710888149
  O   -2.09982241152489     -0.87877187747875     -1.18310950455438
  O   -0.42533652649889     -2.04496976283369     -0.40226175548474
  N   -1.22994034541340      1.38763750775001      0.12535795527837
  O   -0.67660883931719      2.47632975976280     -0.03206597498108
  O   -2.39528733167211      1.22029807517899      0.47017972723506
  N   1.81534204370628     -0.71337016403644      0.25103938811745
  H   1.52402359477712     -1.65721775541719      0.05237708079311
  H   2.76190515813937     -0.52565946960011      0.52618715562353
