12
Coordinates from ORCA-job run
  C   -0.41803468595014      0.18324665181502      0.05820369418468
  C   0.93935824245014      0.29927982809763      0.04146518693804
  H   1.32541755969929      1.28272867880897      0.28892525393488
  N   -1.12143131579376     -1.00508421833585     -0.34401450727244
  O   -2.30214332212609     -0.92210819142948     -0.65746897141694
  O   -0.44379043578050     -2.04156229654419     -0.39968977226523
  N   -1.20316899356334      1.31991467592652      0.51355492658269
  O   -2.23431345988784      1.08114504691109      1.13366069823043
  O   -0.74643242696371      2.43996742276953      0.28311498202757
  N   1.84244592960078     -0.63645701087327     -0.26064011919445
  H   2.82102383078874     -0.41751604359231     -0.22373892252981
  H   1.54206907752643     -1.58255454355365     -0.43337244921943
