12
Coordinates from ORCA-job run
  C   -0.55710522288284      0.20455809053577      0.07526666028809
  C   0.70301487986415     -0.55015392548201      0.36119912549586
  H   1.04927075710917     -0.44824018991431      1.39143182944711
  N   -1.29487282956235     -0.90683946493499      0.07496334699872
  O   -0.13672256792160     -1.77417448645030      0.27597582065238
  O   -2.41825422023938     -1.30754545740403     -0.00142783797904
  N   -0.98501844366156      1.55320911784277      0.02323575407958
  O   -0.08780568616305      2.38564909218729      0.17387255059411
  O   -2.17823883519773      1.77411238182519     -0.17332389683405
  N   1.78176009007680     -0.56870072796596     -0.53264908120183
  H   2.58691241611886     -0.06534349592537     -0.19639704496674
  H   1.53905966245953     -0.29653093431405     -1.47314722657420
