12
Coordinates from ORCA-job run
  C   -0.42887608098549      0.16430553558443      0.03012007721335
  C   0.91027676878683      0.28612835340518      0.24946774414723
  H   1.22210653882013      1.21067700966369      0.72423285361798
  N   -1.04684980412775     -1.02725932803669     -0.48602359133496
  O   -0.28550640464800     -1.83614058700353     -1.03618935440681
  O   -2.24586237388733     -1.20177999333486     -0.30976448720312
  N   -1.28442382454316      1.30162979644793      0.33117680219291
  O   -0.94050514570785      2.02442429914268      1.26684171542987
  O   -2.25526598393655      1.48520340054226     -0.39578560780972
  N   1.87398037762099     -0.59555687216164     -0.02675025988338
  H   2.83024001150754     -0.37163927127217      0.17901992189412
  H   1.64868592110064     -1.44099234297730     -0.52634581385747
