12
Coordinates from ORCA-job run
  C   -0.43896742195037     -0.09761751903840     -0.00146059807697
  C   0.85099312903245     -0.49740885117370      0.14841603831240
  H   1.01146479466639     -1.56640326141689      0.24747280758168
  N   -1.49876154887728     -1.08862241536870      0.08532576357868
  O   -2.53438336523733     -0.74376999699596      0.64662035524002
  O   -1.27493926305977     -2.19801335526433     -0.40065793482122
  N   -0.83647321153644      1.24951219529569     -0.31145284427513
  O   -1.95047825683294      1.44310873253404     -0.78152387691782
  O   0.00914363226380      2.12755208932800     -0.09012599732754
  N   1.94541928316029      0.27100277155310      0.23187950929399
  H   1.86968001545628      1.26200499388535      0.06396144669211
  H   2.84930221291492     -0.16234538333819      0.16254533071980
