12
Coordinates from ORCA-job run
  C   -0.43078894931690     -0.15880995604432      0.03518981632677
  C   0.87700100692349     -0.17259690789520      0.41692486716074
  H   1.13098434128082     -0.89575812240406      1.18499097953004
  N   -0.98214496621308      0.79911852385461     -0.88532998083382
  O   -2.19092583095068      0.99358367617480     -0.89119212515846
  O   -0.16070727537340      1.41418587726649     -1.58067160088754
  N   -1.32218244297195     -1.16728442100237      0.58642568050350
  O   -2.21553868625138     -1.58822551061227     -0.14148888704327
  O   -1.08262783622078     -1.55858481164965      1.72904807032563
  N   1.87102129431500      0.60440428957117     -0.01970941418386
  H   1.70676647130918      1.24776104210974     -0.77747589842034
  H   2.79814287346966      0.48220632063105      0.34428849268061
