12
Coordinates from ORCA-job run
  C   -0.41832225873443      0.19010975588812     -0.04475186336290
  C   0.92914242898953      0.33587823684235      0.05458543700597
  H   1.28412705091120      1.36030408736231      0.11049256543783
  N   -1.05358450791794     -1.08733590935635     -0.26088861705036
  O   -0.41273144948379     -2.08333729173578      0.10468962247727
  O   -2.14043124652414     -1.11563205804754     -0.82464096420144
  N   -1.27424542972186      1.34959352361309      0.06933670893135
  O   -0.80523210323694      2.44054646945737     -0.24993268839089
  O   -2.37509234783475      1.16917038421227      0.58882252180806
  N   1.86315596161525     -0.62631601064689      0.04289688123165
  H   1.59075584432838     -1.58409949622063      0.19271655954639
  H   2.81245805760949     -0.34988169136831      0.21767383656707
