12
Coordinates from ORCA-job run
  C   -0.43708957667677     -0.08443557949717      0.11643782698126
  C   0.86772846154929     -0.46787875797767      0.03422716348413
  H   1.08176551675328     -1.47000221276051      0.39107917424698
  N   -1.41934984616229     -1.06622082311674      0.54914888704090
  O   -2.53436574137221     -1.01013198874315      0.04079593367669
  O   -1.04048758495751     -1.91307827317681      1.35880021813191
  N   -0.90130403438073      1.23820792987282     -0.20494765726371
  O   -1.98178192496108      1.61384903974780      0.23165456015251
  O   -0.12401129240759      1.93648781054637     -0.87194114261489
  N   1.90796181040413      0.24008778173870     -0.41166807745948
  H   2.82402641017319     -0.16927509544307     -0.42319039159086
  H   1.75690780203830      1.15339016880943     -0.80939649478545
