12
Coordinates from ORCA-job run
  C   -0.41916543195107      0.17024514222413      0.08398512805408
  C   0.92933983389584      0.32965704879656     -0.02752930905100
  H   1.29412970269917      1.33806307003285      0.13815480124650
  N   -1.08061715395893     -1.10434873314798      0.00607687092053
  O   -0.41830121440541     -2.02745378912084     -0.48977165599415
  O   -2.20724791729670     -1.22132362960419      0.47102255821312
  N   -1.23974330107144      1.35370117542095      0.28908240187417
  O   -2.34866790490831      1.36872198760693     -0.23520954906364
  O   -0.73724540714086      2.27446604045616      0.93400256190573
  N   1.84938933242903     -0.59963015714616     -0.29596643708045
  H   1.56058126670534     -1.53927296420865     -0.51684130283367
  H   2.81754819500336     -0.34282519130975     -0.35600606819120
