12
Coordinates from ORCA-job run
  C   -0.40075442855893     -0.16332481723954      0.09605745147679
  C   0.91385378564735     -0.35499290232167      0.27347694579668
  H   1.22769967406945     -1.31671604677961      0.67183122280852
  N   -0.95619357458140      1.07521686780570     -0.43216885416283
  O   -1.27111438461923      1.05646908612427     -1.62183569628613
  O   -1.04792392175943      2.02430180689626      0.34009699512708
  N   -1.39166913034991     -1.18288539869798      0.38109313541446
  O   -2.55287943026321     -0.79232608981182      0.47693068681944
  O   -0.99384883959251     -2.33354341764286      0.53167497301580
  N   1.85392699648264      0.60921471996417     -0.03052128784718
  H   1.83141404204265      0.98747338478879     -0.96524641096092
  H   2.78648921148254      0.39111280691429      0.27861083879827
