14

C	-0.406491	-0.127571	-1.459669
C	0.0	0.0	0.0
Cl	0.370589	1.078408	-2.455187
H	1.099387	0.0	0.0
H	-0.076917	-1.111427	-1.796883
N	-1.920408	-0.140803	-1.671817
O	-2.493094	-1.018326	-1.031298
O	-2.43876	0.639102	-2.452341
C	-0.434779	-1.103695	0.844649
N	-0.733358	-1.992053	1.552821
N	-0.480942	1.276287	0.627965
O	-0.026119	1.53385	1.733659
O	-1.300329	1.946577	0.002235
Cl	3.121405	0.0	0.0
