14

C	-0.583141	-0.020378	-1.399877
C	0.0	0.0	0.0
Cl	0.018128	-1.427838	-2.274845
H	1.107775	0.0	0.0
H	-1.670432	-0.044518	-1.408268
N	-0.212149	1.222464	-2.178568
O	0.702742	1.91554	-1.759607
O	-0.883166	1.414372	-3.188386
C	-0.47011	-1.162721	0.741872
N	-0.873929	-2.099972	1.325151
N	-0.491937	1.213974	0.746791
O	-1.373323	1.889112	0.212137
O	0.005574	1.416442	1.844159
Cl	3.13043	0.0	0.0
