14

C	-0.590971	-0.082371	-1.395729
C	0.0	0.0	0.0
Cl	-0.002449	-1.532696	-2.207572
H	1.098822	0.0	0.0
H	-1.678846	-0.100802	-1.394964
N	-0.219661	1.119281	-2.235564
O	-0.935799	1.301888	-3.215067
O	0.743132	1.787755	-1.891788
C	-0.476427	-1.123574	0.797602
N	-0.886428	-2.027236	1.426612
N	-0.47871	1.252158	0.690588
O	-1.324193	1.933786	0.110299
O	-0.000863	1.480447	1.790884
Cl	3.137665	0.0	0.0
