14

C	-0.42286	-0.130863	-1.452739
C	0.0	0.0	0.0
Cl	0.145922	1.117092	-2.54898
H	1.107899	0.0	0.0
H	-0.033322	-1.079894	-1.819433
N	-1.925921	-0.233792	-1.589354
O	-2.606753	0.442181	-0.824764
O	-2.34237	-0.978564	-2.471019
C	-0.482806	-1.175632	0.710738
N	-0.857458	-2.17761	1.196639
N	-0.442801	1.243974	0.711317
O	-0.881033	1.109757	1.849367
O	-0.267448	2.304462	0.128325
Cl	3.108987	0.0	0.0
