16
Coordinates from ORCA-job run
  C   1.14940019365459      0.18321401748787     -0.18309252218578
  C   -0.32469881591242      0.49485154005820      0.17654577402040
  Cl  1.86380269672516      1.52836790397406     -1.13987498368705
  H   -0.29189763462338      1.45878425699386      0.69813569636888
  C   1.23552489144107     -1.04656702739355     -0.97560586810076
  N   1.25454735219638     -2.03892341592217     -1.60487608752943
  C   1.95662368448626      0.03551339410522      1.03144009507726
  N   2.57162294506770     -0.07163763439124      2.02702327285243
  C   -0.87230459471030     -0.57550783902815      1.11945400234548
  H   -0.29454369267007     -0.65078375503871      2.04262768129699
  H   -0.88668910779611     -1.55593270557136      0.63470977011880
  H   -1.90052672254741     -0.32311976072507      1.38837752688334
  C   -1.19039732318868      0.61895103606771     -1.07280853960618
  H   -0.82020318913140      1.38043880039271     -1.75944594196776
  H   -1.24665592243234     -0.33455730887422     -1.60476358323097
  H   -2.20460476055905      0.89690849786483     -0.77784629265565
