12
Coordinates from ORCA-job run
  C   -0.55101172484096      0.01979234262991     -0.49254983711151
  C   0.50282503068699      0.11542574078470      0.60070204633023
  H   -0.35212742625084      0.79922585610637     -1.22881366218541
  H   0.52512252150136      1.12429570600994      1.01198099408488
  H   -0.45437948695454     -0.94963278666329     -1.00218148949865
  H   0.34673967215719     -0.61531008860645      1.39252136078768
  N   -1.85500789393515      0.25784668329492      0.11782941589190
  H   -2.19630031790948     -0.58856884849268      0.55542473599036
  H   -2.52759238728708      0.52526520490799     -0.58814555905583
  N   1.85072479265141     -0.16090675170446      0.02927044786277
  O   2.22636590416947      0.58629523584900     -0.87239563234476
  O   2.48364131601162     -1.11572829411597      0.47535717924834
