12
Coordinates from ORCA-job run
  C   -0.58917943992588     -0.22130562289370     -0.38685302795114
  C   0.53952096018644      0.17468777695308      0.55329411165576
  H   -0.51617186256421     -1.29259732968478     -0.57708786985117
  H   0.51117592413192      1.23137177947246      0.81393799149737
  H   -0.45521304608860      0.29551048669143     -1.34799540660224
  H   0.51169415839287     -0.44055593265600      1.45226576871286
  N   -1.85394872870547      0.06172787465352      0.28398678702506
  H   -2.60142378331604     -0.46932079711320     -0.14211744449843
  H   -2.08802227448146      1.04193939591516      0.19023571043430
  N   1.85402632948877     -0.06253772536402     -0.10682435529915
  O   2.09051562267006     -1.21772320417345     -0.45602668839136
  O   2.59902614021160      0.90080329819950     -0.27481557673185
