12
Coordinates from ORCA-job run
  C   -0.78409610501705      0.24415822841689      0.38966353355441
  C   0.56851653322280     -0.37917710235565      0.67093620756448
  H   -1.49074796898289     -0.11415188630679      1.15289500498348
  H   0.57092573404835     -1.45857978814400      0.52483561768689
  H   -0.69150261036131      1.32456633802277      0.50634387279885
  H   0.92667665795597     -0.13285661750764      1.67287488175340
  N   -1.16617773239112     -0.04554966697801     -0.98595192525837
  H   -1.87323874504369      0.60202255879306     -1.30526389088081
  H   -1.54306205195411     -0.98122134019810     -1.06547015862802
  N   1.57466077961578      0.17223911648341     -0.28551677085399
  O   1.69022715314252      1.39392297472383     -0.31398073614085
  O   2.21781835576474     -0.62537281494978     -0.96036563657948
