18

C	0.0	0.0	0.0
C	-0.487346	-0.140881	-1.443774
F	1.400934	0.0	0.0
H	-1.573255	-0.267255	-1.371194
C	-0.358338	1.318567	0.566062
N	-0.549922	2.389376	1.007313
C	-0.479138	-1.120863	0.894803
H	-0.153424	-2.064012	0.456129
H	-0.050685	-1.000868	1.892191
H	-1.569939	-1.083298	0.945763
N	0.098372	-1.374573	-1.975182
H	1.051624	-1.188522	-2.267617
H	-0.428432	-1.654259	-2.79406
C	-0.173976	1.099422	-2.278894
H	-0.751236	1.961518	-1.94094
H	-0.431785	0.907045	-3.323894
H	0.891881	1.343458	-2.224331
Cl	-3.781557	0.0	0.0
