18

C	0.0	0.0	0.0
C	-0.395287	0.003675	-1.507794
F	1.395956	0.0	0.0
H	0.348212	0.681976	-1.947773
C	-0.363019	1.315355	0.572959
N	-0.538047	2.398775	0.990901
C	-0.561507	-1.122258	0.836034
H	-0.207395	-2.082706	0.459058
H	-1.655219	-1.083515	0.790667
H	-0.243561	-1.011486	1.875047
N	-1.701369	0.509733	-1.848319
H	-1.79689	1.480539	-1.571503
H	-2.463354	0.02841	-1.366366
C	-0.200896	-1.380226	-2.113791
H	0.770154	-1.806305	-1.846086
H	-0.994296	-2.05646	-1.785739
H	-0.266886	-1.294636	-3.1996
Cl	-4.286499	0.0	0.0
