18

C	0.0	0.0	0.0
C	-0.423998	-0.072449	-1.493549
F	1.388168	0.0	0.0
H	0.467443	-0.499181	-1.96912
C	-0.399717	1.273683	0.631479
N	-0.647487	2.297001	1.150211
C	-0.486467	-1.158305	0.848051
H	-0.131052	-2.099144	0.422322
H	-0.088736	-1.056512	1.85985
H	-1.578521	-1.155134	0.883255
N	-0.559924	1.293076	-2.011013
H	-0.612321	1.242603	-3.022932
H	-1.457626	1.657757	-1.698557
C	-1.619687	-0.968071	-1.794223
H	-1.798006	-0.944493	-2.874596
H	-2.531091	-0.629468	-1.293074
H	-1.437488	-2.010149	-1.515158
Cl	-4.434594	0.0	0.0
