18

C	0.0	0.0	0.0
C	-0.402939	0.140753	-1.501063
F	1.402689	0.0	0.0
H	0.384252	0.795697	-1.897484
C	-0.357505	1.252798	0.700083
N	-0.582641	2.257258	1.265046
C	-0.562133	-1.191495	0.734355
H	-0.248664	-1.171753	1.780225
H	-0.209404	-2.115056	0.274019
H	-1.655799	-1.144893	0.686974
N	-1.672782	0.760633	-1.790485
H	-1.690692	1.712307	-1.442762
H	-2.462207	0.292566	-1.337691
C	-0.314396	-1.203434	-2.211711
H	-0.390049	-1.031411	-3.286426
H	-1.149219	-1.844836	-1.918148
H	0.627972	-1.715336	-1.99614
Cl	-4.251387	0.0	0.0
