18

C	0.0	0.0	0.0
C	-0.493125	-0.021399	-1.456892
F	1.408131	0.0	0.0
H	-1.582986	0.065394	-1.38863
C	-0.36235	1.276956	0.649336
N	-0.53427	2.310853	1.178711
C	-0.488298	-1.162788	0.832413
H	-0.102034	-1.07809	1.849883
H	-1.581761	-1.138355	0.841165
H	-0.130669	-2.097185	0.396825
N	-0.177436	-1.274441	-2.140243
H	-0.808184	-2.000367	-1.823041
H	0.771622	-1.5557	-1.916228
C	0.079282	1.143611	-2.25299
H	1.169477	1.076737	-2.308857
H	-0.321531	1.099709	-3.26643
H	-0.188812	2.104276	-1.808436
Cl	-3.744491	0.0	0.0
