16

C	0.0	0.0	0.0
C	-0.288617	0.646918	-1.385838
F	1.350768	0.0	0.0
H	0.214133	-0.070729	-2.048648
N	-0.451533	0.811053	1.202371
O	-0.627942	2.007447	1.022379
O	-0.496497	0.198715	2.261772
C	-0.493805	-1.371321	0.11312
N	-0.723795	-2.523537	0.13648
C	0.505569	1.879771	-1.499816
N	1.127575	2.852263	-1.715161
C	-1.691152	0.877953	-1.928246
H	-1.570911	1.273458	-2.941203
H	-2.255622	1.575113	-1.318642
H	-2.266128	-0.043062	-1.950401
Cl	-3.918152	0.0	0.0
