17

C	0.0	0.0	0.0
C	-0.484299	0.195654	-1.446294
F	1.380735	0.0	0.0
H	-1.557568	-0.014185	-1.349936
N	-0.557202	0.897322	0.917626
H	-0.425519	1.805221	0.480056
H	-1.589218	0.673312	0.795239
N	-0.342423	-1.416864	0.499373
O	-0.689817	-2.270566	-0.318778
O	-0.163121	-1.635807	1.691223
N	0.25547	-0.610555	-2.429131
H	-0.341041	-0.674456	-3.248572
H	0.320723	-1.553974	-2.070591
N	-0.293437	1.611849	-1.766857
H	-1.118681	1.96556	-2.229419
H	0.499582	1.673041	-2.39422
F	-2.827458	0.0	0.0
