17

C	0.0	0.0	0.0
C	-0.337518	-0.229039	-1.521315
F	1.37576	0.0	0.0
H	0.552187	0.224304	-1.972601
N	-0.573441	1.173105	0.483839
H	-1.604423	0.961874	0.401003
H	-0.316429	1.286415	1.458582
N	-0.293166	-1.170884	1.000877
O	-1.005904	-2.120724	0.710133
O	0.214466	-0.998891	2.112537
N	-1.483191	0.441946	-2.089386
H	-1.319001	1.441481	-2.023685
H	-2.276255	0.241435	-1.446482
N	-0.293758	-1.64772	-1.850248
H	-1.106695	-2.072751	-1.418987
H	-0.446149	-1.678921	-2.852856
F	-2.895323	0.0	0.0
