17

C	0.0	0.0	0.0
C	-0.49884	-0.022926	-1.445514
F	1.370127	0.0	0.0
H	-1.591398	-0.00036	-1.309474
N	-0.570361	0.999891	0.797683
H	-1.600274	0.734001	0.716133
H	-0.464479	1.85042	0.251167
N	-0.276371	-1.362792	0.701086
O	0.435143	-2.298349	0.332763
O	-1.093328	-1.418299	1.605596
N	-0.098837	-1.220967	-2.165826
H	-0.322633	-1.09894	-3.146381
H	0.898378	-1.376465	-2.071128
N	-0.049555	1.259396	-2.018906
H	0.898898	1.151306	-2.362448
H	-0.646032	1.490431	-2.803565
F	-2.853257	0.0	0.0
