17

C	0.0	0.0	0.0
C	-0.460509	0.131196	-1.445011
F	1.391405	0.0	0.0
H	-1.541245	-0.046688	-1.354197
N	-0.58664	0.884669	0.913646
H	-1.619218	0.635061	0.762986
H	-0.481701	1.801951	0.48832
N	-0.309801	-1.428627	0.495183
O	0.302017	-1.768326	1.507894
O	-1.100139	-2.131325	-0.117553
N	0.189595	-0.86777	-2.287439
H	1.078021	-0.515415	-2.620787
H	-0.397787	-1.0722	-3.084218
N	-0.244215	1.530979	-1.831666
H	-0.798931	1.732142	-2.654145
H	0.733127	1.662991	-2.071628
F	-2.855714	0.0	0.0
