17

C	0.0	0.0	0.0
C	-0.499653	-0.156759	-1.478549
F	1.356194	0.0	0.0
H	-1.12156	-1.052729	-1.510299
N	-0.523493	1.067446	0.74977
H	-0.484954	1.864395	0.117677
H	-1.535174	0.814477	0.788421
N	-0.331081	-1.305747	0.746385
O	0.089954	-2.327521	0.205241
O	-0.899196	-1.263685	1.827775
N	0.623704	-0.369283	-2.37942
H	1.123799	0.508241	-2.453086
H	0.243372	-0.57612	-3.297133
N	-1.282725	1.036019	-1.807556
H	-1.542247	0.941311	-2.786616
H	-2.136038	0.871132	-1.232151
F	-2.8448	0.0	0.0
