17

C	0.0	0.0	0.0
C	-0.203383	0.081371	-1.582596
F	1.367678	0.0	0.0
H	0.102636	1.141754	-1.72521
N	-0.592944	0.993669	0.783927
H	-0.439471	1.875924	0.306198
H	-1.619045	0.756078	0.692649
N	-0.382321	-1.360866	0.5827
O	-0.183239	-2.33316	-0.14306
O	-0.774748	-1.419364	1.739743
N	-1.50635	-0.230842	-2.069178
H	-2.241255	-0.063712	-1.349665
H	-1.663728	0.264536	-2.935984
N	0.737702	-0.699868	-2.390088
H	1.659783	-0.682496	-1.973345
H	0.388756	-1.649259	-2.343175
F	-2.920484	0.0	0.0
