19

C	-0.437321	0.033939	-1.464163
C	0.0	0.0	0.0
Br	-2.389878	0.035405	-1.65145
H	1.093166	0.0	0.0
C	0.137575	1.253555	-2.159854
H	1.206445	1.309771	-1.939575
H	-0.013368	1.171525	-3.237435
H	-0.369105	2.150807	-1.806264
N	0.096078	-1.216828	-2.188264
O	-0.627365	-2.19675	-2.304505
O	1.255064	-1.118037	-2.571493
N	-0.432676	-1.282183	0.645098
O	-1.386406	-1.248505	1.425821
O	0.204416	-2.290327	0.346258
C	-0.476165	1.183695	0.815604
H	-0.009613	2.093212	0.436219
H	-1.560919	1.282075	0.811131
H	-0.139545	1.049695	1.844318
Br	3.447621	0.0	0.0
