19

C	-0.389717	-0.101631	-1.48817
C	0.0	0.0	0.0
Br	-0.0353	1.626422	-2.3498
H	1.114842	0.0	0.0
C	0.364385	-1.146824	-2.287323
H	1.423656	-1.048562	-2.038881
H	0.207813	-0.988006	-3.352978
H	0.022868	-2.141808	-2.019032
N	-1.899432	-0.290182	-1.654487
O	-2.631629	0.31402	-0.874918
O	-2.285176	-1.008449	-2.571887
N	-0.441561	-1.242172	0.730633
O	-0.909942	-1.108635	1.859305
O	-0.284117	-2.332936	0.180995
C	-0.413571	1.219802	0.808068
H	-1.476951	1.240309	1.027948
H	-0.129146	2.121504	0.271973
H	0.149259	1.200816	1.741021
Br	3.433515	0.0	0.0
