19

C	-0.421358	-0.018208	-1.474556
C	0.0	0.0	0.0
Br	0.340993	1.544416	-2.35074
H	1.090823	0.0	0.0
C	0.078704	-1.259424	-2.179994
H	-0.143421	-1.207856	-3.245788
H	1.158108	-1.316277	-2.019744
H	-0.398818	-2.149115	-1.769604
N	-1.940888	0.111191	-1.613205
O	-2.548586	-0.870122	-2.03521
O	-2.456509	1.167847	-1.26731
N	-0.468974	-1.298824	0.591514
O	0.355786	-2.183243	0.797083
O	-1.680533	-1.394678	0.813917
C	-0.493808	1.13352	0.877645
H	-0.014613	1.027114	1.853932
H	-0.176996	2.08477	0.451727
H	-1.575167	1.128269	0.995863
Br	3.474978	0.0	0.0
