19

C	-0.525843	0.003025	-1.447177
C	0.0	0.0	0.0
Br	0.342689	-1.415336	-2.458348
H	1.088574	0.0	0.0
C	-2.02138	-0.097516	-1.645541
H	-2.375112	-1.052663	-1.264424
H	-2.530268	0.711896	-1.123287
H	-2.247925	-0.02157	-2.708644
N	-0.02568	1.324382	-2.049713
O	-0.885819	2.112731	-2.446768
O	1.178577	1.519061	-2.046728
N	-0.446989	-1.271299	0.65946
O	0.386006	-2.157268	0.82629
O	-1.634186	-1.342246	1.003028
C	-0.509969	1.179107	0.811635
H	-0.157425	2.111734	0.369029
H	-0.079738	1.114418	1.813052
H	-1.596761	1.189347	0.892083
Br	3.576219	0.0	0.0
