16

C	-0.508002	-0.010424	-1.438596
C	0.0	0.0	0.0
F	-0.361895	-1.347353	-1.902555
H	1.087296	0.0	0.0
H	-0.388426	0.885016	0.505507
N	-1.879415	0.382669	-1.531182
H	-2.208099	0.20204	-2.47317
H	-2.42678	-0.167656	-0.87784
C	0.387355	0.847519	-2.302747
H	0.107397	0.723822	-3.353322
H	1.428147	0.554218	-2.144886
H	0.271373	1.895812	-2.024214
N	-0.55558	-1.169272	0.720729
O	0.176255	-2.117711	0.978245
O	-1.762112	-1.12412	1.013183
H	2.941556	0.0	0.0
