15

C 0.131065 -0.774286 -0.118855
H 1.742658 0.376464 -0.37911
Cl -1.973207 -0.53557 0.109611
F 2.142111 -1.536143 -0.184281
C 0.711859 0.617456 -0.100886
H 0.090897 -1.288187 -1.062855
H 0.266304 -1.398019 0.742384
C 0.725003 1.210037 1.302897
H -0.289372 1.335464 1.695777
H 1.282185 0.545964 1.969392
H 1.219719 2.188535 1.310326
C 0.109679 1.568336 -1.130544
H 0.092602 1.110219 -2.12488
H -0.916606 1.847341 -0.877054
H 0.711485 2.482929 -1.194513
