13

C 1.214591 0.154172 -0.46655
H 0.474603 -0.580456 1.380141
F 0.25284 1.219106 -1.488297
F 2.349873 -0.946073 0.554781
C 0.167184 0.123134 0.609569
H 2.003109 0.875603 -0.384402
H 1.245301 -0.621852 -1.203976
N -1.121453 -0.556082 0.02819
O -2.197939 -0.081985 0.346588
O -0.995801 -1.56998 -0.621139
N -0.114878 1.417018 1.113119
H -0.959987 1.40171 1.668119
H -0.273857 1.993041 0.290904
