13

C 0.456687 -0.884718 -0.357646
H 2.30916 -0.105387 -0.190017
Br -1.692756 -0.164526 0.009456
F 2.224134 -1.937644 -0.662713
C 1.330592 0.229373 0.176342
H 0.351473 -0.992121 -1.420833
H 0.346994 -1.765492 0.241572
C 1.367726 0.276298 1.702872
H 0.376188 0.474149 2.115325
H 1.720144 -0.695405 2.055621
H 2.059852 1.045164 2.055615
C 1.067673 1.546793 -0.403836
N 0.961339 2.604261 -0.847175
