12

C 0.61303 -0.121232 -0.375541
H 1.35251 1.862776 -0.595217
Br -1.848205 -0.741049 -0.350928
Cl 2.870758 -0.136392 -0.841894
C 0.403038 1.340349 -0.71085
H 0.569005 -0.929289 -1.071026
H 0.132308 1.378501 -1.767562
N 0.820767 -0.510503 1.039122
O 0.863138 0.394404 1.847127
O 0.956664 -1.685668 1.274919
C -0.589644 2.102289 0.04676
N -1.290264 2.845516 0.57372
