12

C -0.385503 -0.000619 -0.639489
H 0.31057 -1.970696 -0.552097
Cl 0.658546 1.841471 -0.382285
F -1.583672 -1.473749 -1.057846
C 0.751865 -0.994045 -0.737829
H -0.905722 0.375501 -1.492483
H 1.095949 -0.978037 -1.774077
N -1.16252 0.037325 0.623537
O -0.723242 -0.599658 1.558717
O -2.163367 0.71369 0.637842
C 1.913847 -0.822414 0.132122
N 2.872319 -0.819871 0.767437
