16

C -0.145347 -0.04022 -0.628773
H 0.803289 -1.931664 -0.457274
Cl 0.257382 1.891954 0.333431
H -1.03294 -1.233194 -1.19465
C 1.051138 -0.901194 -0.185126
H -0.199595 0.431951 -1.598689
N -1.458511 -0.501176 -0.238032
O -1.522195 -1.222224 0.824397
O -2.459436 0.157007 -0.650908
N 1.3074 -0.920026 1.247313
H 0.412856 -1.171057 1.668031
H 1.467758 0.040711 1.537064
C 2.300331 -0.497732 -0.958817
H 2.153563 -0.602208 -2.039039
H 2.561136 0.542423 -0.749231
H 3.132531 -1.135145 -0.651123
