13

C -0.74077 0.525535 0.339898
H 0.364804 1.16516 -1.298124
Cl -0.36812 -1.181867 1.646233
F -1.108092 2.165625 -0.634779
C 0.415007 0.30727 -0.620121
H -0.596338 1.217417 1.144959
C -2.073155 0.154881 -0.059595
N -3.130311 -0.178904 -0.36621
C 0.378468 -0.927927 -1.391161
N 0.322431 -1.845236 -2.079233
N 1.754033 0.459197 0.08035
O 2.681306 -0.183922 -0.355089
O 1.813947 1.285746 0.957807
