14

C 0.520062 -0.554084 -0.496332
H -0.607818 0.995119 -1.466493
F 0.173094 -1.174167 0.98816
H 1.102855 0.008582 -2.185971
C -0.56811 0.537021 -0.481227
H 0.341765 -1.448622 -1.067003
C 1.897357 -0.173724 -0.328331
N 2.972926 0.092479 0.015961
C -0.285155 1.611516 0.572095
H -0.198208 1.14751 1.553517
H 0.658056 2.107981 0.334149
H -1.082464 2.358867 0.58734
C -1.883042 -0.071594 -0.24945
N -2.952741 -0.477728 -0.123033
