13

C -0.922937 0.498136 0.507794
H -0.009233 0.41607 -1.465358
F -0.900047 -0.86266 1.265283
H -0.940505 2.113908 -0.414879
C 0.28778 0.424263 -0.422628
H -0.829781 1.170873 1.345715
C -2.22597 0.470323 -0.12545
N -3.285181 0.310289 -0.558687
N 1.006694 -0.979056 -0.271327
O 1.855911 -1.111162 0.576563
O 0.647619 -1.828209 -1.057509
C 1.295726 1.446895 -0.167889
N 2.170503 2.174532 0.007668
