12

C 0.034555 -0.05546 0.243042
H 0.216391 1.486269 -1.246337
F 1.737764 -1.090979 0.649587
Cl -1.896105 0.954233 0.208601
C 0.853482 0.752073 -0.752332
H 0.150088 0.142542 1.290843
H 1.21643 0.041105 -1.506335
C -0.444169 -1.361269 -0.144807
N -0.869576 -2.369666 -0.502608
N 1.924129 1.426825 -0.027773
H 2.544199 1.86691 -0.698936
H 2.421717 0.647855 0.405522
