12

C -0.001478 -0.408798 0.017226
H 0.889086 0.772394 1.586261
Br -2.517575 -0.425164 -0.306041
Br 2.515641 -0.429726 -0.306721
C 0.000418 0.766117 0.95976
H -0.001997 -0.280694 -1.04674
H -0.889415 0.776472 1.584653
C -0.002065 -1.716483 0.60255
N -0.002857 -2.743467 1.123681
N 0.003958 2.08605 0.249683
O 0.008663 3.055515 0.984355
O 0.001471 2.120719 -0.955387
