14

C 0.384914 0.08039 -0.735851
H -0.261823 2.098032 -0.502783
Cl -0.479176 -1.829197 0.161024
H 1.637807 1.136755 -1.383111
C -0.589332 1.116155 -0.149877
H 0.190876 -0.254328 -1.748444
C 1.800105 0.32874 -0.434447
N 2.778166 0.202436 0.248847
N -0.559639 1.179398 1.312211
H 0.393554 1.396092 1.59538
H -0.720953 0.232868 1.649749
N -1.92479 0.895371 -0.677688
H -2.552861 1.467255 -0.122712
H -2.170889 -0.072466 -0.488018
