14

C -0.349383 0.195069 -0.29474
H -0.502028 -1.355782 1.115621
Cl 1.647605 1.424363 -0.901448
Cl -2.408257 -0.941972 -0.455436
C 0.313159 -0.756976 0.704912
H -0.320627 0.025704 -1.350914
C -0.970948 1.385485 0.213047
N -1.459225 2.315558 0.683905
C 1.027288 -0.083038 1.883998
H 1.891294 0.48569 1.547923
H 0.335352 0.592579 2.39072
H 1.343259 -0.85032 2.594528
C 1.193001 -1.705426 0.018161
N 1.874244 -2.502587 -0.45292
