12

C -0.639482 -0.020851 0.640642
H -0.040107 0.914973 -1.231774
F 0.059899 -1.111397 1.227758
F -1.805631 1.778509 -0.086152
C 0.330681 0.80013 -0.221925
H -1.030279 0.588178 1.443664
H 0.50777 1.767865 0.226508
C -1.750174 -0.593196 -0.125321
N -2.540909 -1.231543 -0.66743
N 1.667637 0.101145 -0.312465
O 2.545336 0.45435 0.4528
O 1.797284 -0.764191 -1.154546
