16

C 0.495487 -0.729426 -0.31257
H 2.283998 0.021512 0.196694
Br -1.756577 0.02884 -0.14144
F 2.378358 -1.400675 -1.019281
C 1.261939 0.379773 0.387596
H 0.429635 -0.67749 -1.379962
C 0.346796 -2.055458 0.379888
H 1.354508 -2.424217 0.567054
H -0.224278 -1.973197 1.306038
H -0.163502 -2.757078 -0.279567
C 1.006038 0.522961 1.888862
H -0.035 0.784226 2.086218
H 1.234654 -0.417329 2.39508
H 1.653781 1.297175 2.307403
C 1.150403 1.672276 -0.286044
N 1.1396 2.714618 -0.774487
