14

C 0.408533 0.873655 0.403332
H 2.25254 0.13147 0.018971
Br -1.784147 -0.081166 0.160612
F 2.172847 1.596356 1.093478
C 1.242842 -0.295121 -0.111848
H 0.233795 0.913122 1.458073
C 0.219407 2.072483 -0.480195
H 1.193792 2.54137 -0.611438
H -0.207815 1.796858 -1.445235
H -0.455309 2.777265 0.00501
C 1.041777 -0.617001 -1.525507
N 0.974603 -0.836159 -2.651875
C 1.179517 -1.495695 0.719914
N 1.213979 -2.437613 1.377263
