16

C -0.0328 0.692992 0.403376
H 0.83994 -0.987209 1.367993
Cl -2.013521 -0.304719 0.189611
H 1.423173 1.983825 1.659434
C 0.950538 -0.49312 0.391551
H -0.32595 1.084173 1.355396
C -0.054567 1.60859 -0.786708
H 0.917197 2.08899 -0.883144
H -0.252595 1.039929 -1.699538
H -0.82811 2.369721 -0.674862
N 2.29639 0.017415 0.146985
H 2.950192 -0.731008 0.356676
H 2.422396 0.798222 0.800076
N 0.734252 -1.511285 -0.631805
H 0.933693 -1.08108 -1.529073
H -0.243589 -1.779024 -0.63192
