16

C -0.040741 0.552809 -0.104529
H -0.474633 -1.018077 -1.469808
Cl 2.23376 0.271453 -0.299854
F -1.918993 1.47031 -0.622641
C -0.55422 -0.881644 -0.381158
H 0.048324 1.230863 -0.925081
C -0.097352 1.086173 1.288885
H -1.151728 1.261355 1.498967
H 0.311498 0.370004 2.005648
H 0.450716 2.024653 1.368869
N -1.915564 -0.965652 0.122735
H -2.345954 -1.785991 -0.287305
H -2.372885 -0.105042 -0.204337
N 0.174232 -1.978844 0.243273
H 0.007124 -1.912534 1.242367
H 1.167751 -1.845288 0.090716
