17

C 0.621624 -0.534505 -0.196625
H 2.24334 0.594203 -0.185308
Br -1.720125 -0.165755 -0.109916
F 2.694885 -1.175665 -0.804487
C 1.193324 0.843261 0.015776
H 0.580743 -0.850025 -1.221809
C 0.751185 -1.578719 0.871808
H 1.825571 -1.718215 0.996487
H 0.266791 -1.279236 1.80381
H 0.314366 -2.519242 0.534814
C 1.032504 1.382874 1.438198
H -0.024907 1.519159 1.687206
H 1.481223 0.716197 2.180952
H 1.535227 2.353221 1.522591
N 0.739638 1.759673 -1.027265
H 1.21422 2.648005 -0.910669
H -0.255462 1.923172 -0.904719
