14

C 1.222634 0.216182 -0.548907
H 0.045633 1.793465 0.36948
F 0.580503 -1.358561 -0.451304
H 1.832303 1.953071 -1.01339
C -0.050443 1.015353 -0.380941
H 1.5782 0.055 -1.546695
H -0.399834 1.418128 -1.323665
C 2.152245 0.049977 0.633975
H 2.87704 -0.737548 0.414307
H 2.676755 0.968939 0.880951
H 1.560143 -0.282542 1.490274
N -1.220753 0.164115 0.142675
O -2.0847 -0.169943 -0.643295
O -1.264814 -0.052475 1.339168
