15

C 1.035545 0.420692 0.036784
H -0.420193 0.721866 1.563052
F 0.706028 -0.533483 -1.358808
H 1.501349 1.740679 1.318235
C -0.419514 0.538322 0.490226
H 1.432128 1.207364 -0.579194
N 1.864503 -0.561437 0.677038
H 2.591733 -0.07794 1.179717
H 2.24735 -1.133347 -0.065681
C -1.177252 -0.708303 0.293118
N -1.867103 -1.629773 0.248906
C -1.096731 1.701515 -0.229648
H -0.540428 2.609962 0.020163
H -1.060885 1.535143 -1.30825
H -2.139401 1.822727 0.076734
