11

C -0.001344 -0.431934 -0.123637
H 0.886407 -1.291547 1.611992
Cl -2.349288 -0.444566 -0.44814
Cl 2.35248 -0.441349 -0.447416
C 0.001198 -1.424492 0.994431
H 0.00082 -0.623207 -1.175054
H 0.010233 -2.424207 0.560369
H -0.889736 -1.304 1.606273
N -0.001988 1.013929 0.226714
O -0.002769 1.286551 1.410079
O -0.00313 1.806521 -0.683939
