15

C -0.07829 0.01317 -0.039946
H -0.95842 1.337084 1.328668
Br 2.486262 -0.227052 -0.579575
Br -2.5413 -0.123277 -0.444348
C -0.115001 1.383253 0.631775
H -0.007595 -0.154516 -1.093306
N -0.08201 -1.213681 0.792574
O -0.179 -1.068078 1.992698
O -0.017319 -2.273306 0.212933
N -0.321897 2.356508 -0.446889
H -0.370052 3.277657 -0.0264
H -1.225084 2.174748 -0.876387
N 1.040209 1.672161 1.443185
H 0.895581 2.55067 1.925756
H 1.868091 1.723474 0.860839
