13

C -0.50898 0.111099 -0.282477
H -1.512585 1.86412 0.290397
Br 2.008568 -0.26096 -0.396547
Cl -2.799957 0.011862 -0.970616
C -0.511185 1.606607 -0.050855
H -0.397602 -0.379306 -1.223946
H -0.388582 2.034302 -1.057417
N -0.75453 -0.826003 0.847068
O -1.055791 -0.341182 1.914402
O -0.654878 -2.00815 0.606616
N 0.430233 2.09605 0.94243
H 0.296452 3.094352 1.041462
H 1.378135 1.916571 0.634477
