13

C -0.085391 0.103196 -0.366536
H -0.741266 1.871375 0.565729
Cl 2.178973 -0.489309 -0.841225
Cl -2.433131 0.36119 -0.674353
C 0.151974 1.54318 0.037778
H -0.174118 -0.262748 -1.365577
H 0.185875 2.085829 -0.91933
N -0.282377 -0.949139 0.669019
O -0.353027 -0.588427 1.821991
O -0.3769 -2.08933 0.276106
N 1.28596 1.772946 0.916215
H 1.325182 2.761743 1.128719
H 2.139847 1.498992 0.446426
