16

C -0.488273 -0.006531 -0.18065
H -1.548774 1.363428 0.979947
Br 2.049467 -0.229894 -0.423226
Cl -2.801752 -0.029099 -0.826487
C -0.549637 1.32853 0.544313
H -0.376096 -0.138709 -1.235209
N -0.661994 -1.286528 0.558208
O -0.960983 -1.218556 1.728655
O -0.515214 -2.305317 -0.078701
C -0.422702 2.442246 -0.500957
H 0.565899 2.408978 -0.96653
H -1.190126 2.351411 -1.273145
H -0.541924 3.41352 -0.010373
N 0.378589 1.431853 1.662982
H 0.214742 2.31793 2.125668
H 1.331807 1.412635 1.318654
