12

C -0.002366 0.181149 0.326166
H -0.917066 0.263923 2.265095
Cl 2.378165 0.11494 0.146091
Cl -2.382785 0.114468 0.187022
C 0.05961 0.077922 1.827449
H 0.785129 0.796407 2.202322
H 0.391522 -0.926131 2.08243
N -0.011741 -1.064749 -0.532169
O -0.003104 -2.118534 0.057055
O -0.027974 -0.905488 -1.725055
C -0.01322 1.44049 -0.363988
N -0.01634 2.487702 -0.840193
