13

C 0.118299 -0.53104 0.077896
H -0.781856 -2.05063 -1.095566
F 2.161499 -0.585487 0.054497
Cl -2.105788 0.02845 0.024134
C 0.115283 -1.434828 -1.113562
H 1.015625 -2.041711 -1.055891
H 0.140686 -0.839452 -2.022758
N 0.465295 0.944116 -0.114357
O 0.57271 1.362904 -1.240875
O 0.585329 1.602293 0.896026
N 0.140342 -1.034674 1.366417
H -0.054941 -0.275939 2.009511
H 1.12013 -1.298997 1.472323
