16

C -0.052826 -0.027705 0.534701
H 0.070644 1.98318 1.104267
F -1.940274 -0.81638 0.586298
Cl 2.051238 0.641627 -0.015573
C -0.688836 1.337092 0.661859
H -1.476321 1.181074 1.399867
N -0.074099 -0.887558 -0.733184
O -0.430436 -0.394273 -1.774188
O 0.313537 -2.028623 -0.600389
N 0.255583 -0.691105 1.712713
H 0.846017 -1.483939 1.489698
H -0.656809 -1.046991 1.998821
C -1.289891 1.986919 -0.572511
H -0.541163 2.153961 -1.347234
H -2.078219 1.354402 -0.976309
H -1.718607 2.954042 -0.28543
