14

C 0.417712 0.473103 0.232722
H 0.338943 2.208288 -0.949933
Br -1.023771 -1.432825 0.026733
F 1.857093 1.845878 0.294637
C -0.302125 1.343445 -0.785724
H -0.411743 0.8016 -1.722776
N 1.590977 -0.329625 -0.319522
O 1.759776 -0.322137 -1.517645
O 2.263225 -0.925773 0.487441
N 0.266674 0.626008 1.608019
H 1.002884 1.273238 1.873545
H 0.378768 -0.262074 2.075214
C -1.609487 1.801362 -0.333165
N -2.630695 2.24515 -0.046325
