14

C 0.602428 0.199095 -0.27234
H 0.107235 -1.360988 1.08799
Cl -0.901737 1.938808 -0.8592
Cl 2.207261 -1.587728 -0.267043
C -0.347608 -0.439763 0.726701
H 0.547644 -0.051162 -1.312499
C 1.590947 1.124752 0.199652
N 2.370831 1.877188 0.585876
N -1.578657 -0.998719 -0.058198
O -2.62036 -1.043648 0.562822
O -1.403544 -1.442381 -1.167081
N -0.691377 0.389311 1.809389
H -1.312455 -0.09055 2.443851
H -1.125292 1.243604 1.477315
