15

C -0.317107 0.13518 -0.3739
H 0.511788 1.626092 0.765354
Cl 0.061932 -1.935351 -0.584206
F -0.772011 2.14677 -0.7696
C 0.866196 0.648488 0.442766
H -0.330209 0.310511 -1.43044
C -1.613411 0.112344 0.26433
N -2.633799 0.030383 0.790524
C 2.064615 0.861869 -0.479505
H 2.396077 -0.081085 -0.926823
H 1.777846 1.562751 -1.266344
H 2.902933 1.290892 0.081049
N 1.112589 -0.157736 1.63323
H 1.837245 0.292295 2.1796
H 1.446284 -1.077243 1.367073
