13

C -0.122187 -0.265313 -0.01537
H -0.99948 1.114224 1.316064
Br 2.370434 -0.459487 -0.569727
Br -2.645768 -0.104444 -0.372049
C -0.003242 0.952241 0.902293
H -0.15135 -0.176771 -1.081226
C -0.198341 -1.564628 0.583864
N -0.257552 -2.603591 1.07594
C 0.309276 2.166369 0.111851
N 0.540447 3.171851 -0.39651
N 0.885229 0.716014 2.020144
H 0.865259 1.509381 2.647192
H 1.83235 0.568824 1.687279
