12

C 0.560021 0.116492 -0.203798
H 1.753254 -0.319233 1.484103
Br -1.723928 -0.245188 -0.101469
F 2.518489 0.532169 -0.716286
C 1.131692 -0.891972 0.783311
H 0.584054 -0.118256 -1.250246
H 0.327132 -1.369219 1.343576
C 0.552482 1.51252 0.159534
N 0.496666 2.610733 0.502196
N 1.876643 -1.893982 0.032522
H 2.345974 -2.510612 0.686723
H 2.582338 -1.33013 -0.443459
