13

C -0.748808 -0.689489 0.137111
H 0.39876 -0.277302 -1.610503
F -0.168633 -0.017196 1.669739
F -1.333937 -1.37719 -1.381001
C 0.371242 0.052748 -0.5719
H -0.548279 -1.679621 0.499393
C -2.04812 -0.088613 0.35311
N -3.086535 0.373243 0.52804
N 1.71473 -0.372826 0.000998
O 2.556871 0.476468 0.172985
O 1.875813 -1.561955 0.150535
C 0.24915 1.504926 -0.524854
N 0.124717 2.644278 -0.591395
