15

C 0.62072 -0.036375 -0.409314
H -0.327208 -1.203766 1.11704
F -0.595124 1.400896 -1.143687
Cl 2.004357 -1.513557 0.161173
C -0.476122 -0.238166 0.630623
H 0.442336 -0.439442 -1.388068
C 1.489365 1.114828 -0.318644
N 2.251182 1.968514 -0.187794
N -1.794119 -0.453597 -0.096317
O -2.793342 0.042629 0.375281
O -1.784261 -1.229186 -1.028344
C -0.574844 0.868192 1.654543
H 0.378169 0.943054 2.184059
H -0.779591 1.802309 1.135662
H -1.365004 0.657416 2.374581
