16

C 0.298607 0.304373 0.438938
H -0.769464 0.987619 -1.224645
F -0.009046 -1.252132 1.2983
F 0.773379 1.960196 -0.140911
C -0.925118 0.215733 -0.471329
H 0.244746 0.759371 1.408125
C 1.580549 -0.190953 -0.021978
N 2.582801 -0.600411 -0.415043
C -2.166921 0.562372 0.343108
H -2.275565 -0.159031 1.15626
H -2.07423 1.566637 0.767625
H -3.069216 0.535666 -0.279091
C -1.070977 -1.133656 -1.170637
H -0.154837 -1.40125 -1.705152
H -1.268736 -1.916796 -0.441237
H -1.888148 -1.089126 -1.901698
