15

C -0.182126 0.119851 0.354541
H 0.153296 -1.175787 -1.30216
F 1.413056 1.0688 1.20492
Cl -2.068978 -0.946467 0.019428
C 0.763233 -0.69248 -0.537102
H -0.255925 -0.090247 1.401721
C -0.611075 1.433848 -0.062725
N -0.995643 2.464623 -0.399757
C 1.432511 -1.761295 0.329192
H 1.982365 -1.254743 1.124326
H 0.693036 -2.440246 0.766362
H 2.126924 -2.357914 -0.273163
N 1.685953 0.214059 -1.210637
H 2.410645 -0.332796 -1.661496
H 2.097357 0.772153 -0.460825
