12

C -0.59724 -0.03506 -0.188803
H -1.597734 1.815507 -0.180237
Br 1.953484 -0.313083 -0.36593
Cl -2.986937 -0.302173 -0.728806
C -0.561675 1.47856 -0.165183
H -0.547227 -0.583102 -1.107457
H -0.088107 1.792529 -1.104324
C -0.711825 -0.77785 1.033824
N -0.801395 -1.369232 2.017309
N 0.064061 1.987419 1.042325
H -0.026344 2.994941 1.065166
H 1.051205 1.753774 1.027643
