15

C 0.291128 0.058011 -0.037576
H -0.941726 -0.9862 -1.392638
F 0.362087 -0.542177 1.673475
F 0.42665 0.780719 -1.658126
C -1.117153 -0.523809 -0.414388
C 1.445255 -0.781322 -0.309351
N 2.310447 -1.496663 -0.560548
C 0.469656 1.382507 0.536276
N 0.608932 2.440963 0.964115
N -2.034472 0.59722 -0.469424
H -2.933227 0.240882 -0.769183
H -1.681619 1.2394 -1.169898
N -1.668236 -1.526934 0.459944
H -1.497475 -1.195489 1.404799
H -1.094591 -2.359886 0.380402
