15

C -0.703059 -0.517268 0.194577
H 0.220986 -2.2368 -0.575058
Br 0.126682 1.725503 0.082807
F -1.634448 -2.339289 0.023757
C 0.374925 -1.162364 -0.663403
H 0.289926 -0.843169 -1.696347
C -1.920142 -0.168175 -0.508508
N -2.869932 0.179548 -1.060269
C -0.736789 -0.649118 1.701848
H -0.859179 -1.706917 1.920316
H 0.176455 -0.266513 2.147201
H -1.591629 -0.096345 2.090114
N 1.795602 -0.916272 -0.264384
O 2.581601 -0.680305 -1.158381
O 2.102187 -1.076026 0.899282
