18

C 0.524407 -0.308814 0.183921
H 1.65834 0.458635 -1.407036
Br -1.885416 0.108069 0.133089
F 2.522518 -1.108998 0.13175
C 1.188522 0.906085 -0.523883
C 0.366166 -1.505362 -0.614904
N 0.178433 -2.432412 -1.27341
C 0.560209 -0.43769 1.691453
H 1.573603 -0.725391 1.957396
H 0.307729 0.517359 2.147926
H -0.143442 -1.199625 2.021803
N 2.186365 1.444954 0.39809
H 2.678744 2.194684 -0.07476
H 2.831703 0.66356 0.524015
C 0.290599 2.043675 -0.993215
H -0.458371 1.705005 -1.707259
H -0.218938 2.516503 -0.153165
H 0.924512 2.792684 -1.485778
