14

C 0.563973 0.246558 -0.041594
H -0.749339 1.838508 -0.52927
F 0.996959 0.172569 1.712397
F 0.051976 0.099638 -1.786816
C -0.690832 1.064267 0.236475
H -0.591647 1.515184 1.222818
C 0.569006 -1.207212 -0.018834
N 0.612228 -2.357424 -0.003858
C 1.830056 1.007221 -0.374419
H 1.73163 1.461998 -1.357691
H 2.00395 1.757361 0.396622
H 2.678194 0.323104 -0.374928
C -1.942781 0.318572 0.19161
N -2.967904 -0.202926 0.197114
