16

C 0.55994 0.073188 0.208925
H -0.313676 1.097717 -1.420464
Cl -0.388381 -2.026436 0.423024
F 1.603772 1.715857 -0.1883
C -0.628057 0.871154 -0.394752
C 1.524824 -0.486302 -0.713916
N 2.283645 -0.943744 -1.449309
C 0.870336 0.163879 1.68584
H 1.364059 1.114527 1.866199
H -0.054912 0.107608 2.25526
H 1.521744 -0.6581 1.976473
N -0.84448 2.071058 0.413486
H -1.587472 2.617978 -0.00462
H 0.037653 2.571176 0.327291
C -1.935608 0.200701 -0.512915
N -3.031663 -0.095875 -0.697885
