14

C -0.689868 -0.219298 0.220638
H 0.404981 -1.951436 -0.267645
Cl 0.160608 1.886651 0.305468
F -1.639825 -1.924699 -0.036196
C 0.430468 -0.904604 -0.551579
H 0.279029 -0.788509 -1.619284
C -1.821968 0.285193 -0.5497
N -2.727507 0.701359 -1.126791
N -0.768916 -0.386922 1.62325
H -1.363559 -1.198532 1.749893
H -1.166757 0.435852 2.052661
N 1.834771 -0.449553 -0.274243
O 2.477504 -0.043371 -1.22325
O 2.271768 -0.615391 0.84144
