13

C 0.371659 0.659687 -0.096839
H 1.553802 -0.769268 -0.982694
Cl -1.841072 0.944662 -0.203029
F 2.438749 0.844126 -0.382545
C 0.475698 -0.658818 -0.831062
H 0.51477 1.538559 -0.688817
H -0.022684 -0.594728 -1.798945
C 0.560803 0.710236 1.389105
H -0.130541 0.038737 1.902124
H 1.594048 0.422526 1.577166
H 0.399884 1.72483 1.754205
C -0.041642 -1.818421 -0.112992
N -0.394128 -2.767591 0.434584
