16

C -0.077263 0.701974 0.367471
H 0.244369 -0.591622 -1.339352
F 1.758482 1.391999 1.150617
Br -2.133316 -0.419185 -0.080355
C 0.82174 0.03237 -0.656416
H -0.075293 0.291567 1.356861
C -0.549311 2.107038 0.130278
H 0.292648 2.756861 0.361443
H -0.859653 2.252528 -0.90418
H -1.384522 2.337008 0.791609
N 1.690537 -1.038274 0.08058
O 2.770902 -1.282778 -0.423798
O 1.221836 -1.636645 1.019039
N 1.612913 0.963487 -1.36988
H 2.265037 0.468461 -1.963048
H 2.120066 1.459273 -0.63129
