16

C 0.042586 -0.72999 -0.047636
H -0.236529 0.959583 1.194984
Cl 2.284397 -1.462764 -0.84671
Br -2.439177 0.119181 -0.116909
C 0.604048 0.408936 0.769994
H -0.087156 -0.587165 -1.101314
C -0.305393 -2.00625 0.654174
H 0.602317 -2.484535 1.019908
H -0.949384 -1.796929 1.508002
H -0.823454 -2.677017 -0.028756
N 1.229836 1.486684 -0.169142
O 2.090811 2.182082 0.336827
O 0.77554 1.635455 -1.275069
N 1.479351 -0.001537 1.803722
H 1.822134 0.806729 2.303748
H 2.265934 -0.497509 1.393978
