12

C 0.641845 -0.002271 0.141952
H 1.645322 -1.349936 1.436411
Br -1.983106 0.001612 -0.232303
Cl 3.077078 0.003888 -0.541486
C 0.698308 -1.293658 0.895585
H 0.5788 0.00268 -0.927477
H 0.624491 -2.146459 0.222665
H -0.12317 -1.334533 1.613188
C 0.697812 1.282002 0.908157
H -0.125279 1.316278 1.623982
H 1.644638 1.331917 1.449888
H 0.6258 2.141085 0.243037
