15

C -0.463848 0.705014 0.391463
H -2.380668 0.33787 1.151675
Br 1.213996 -0.286207 -0.050457
H 0.150661 2.24306 2.720645
C -1.566788 -0.277902 0.744981
H -0.221661 1.31118 1.309429
H -1.219634 -0.89127 1.58242
C -0.784062 1.648651 -0.748155
H -0.931851 1.148284 -1.710997
H -1.701597 2.192426 -0.491634
H 0.011664 2.389861 -0.853691
C -2.099129 -1.163711 -0.377879
H -2.544317 -0.57234 -1.18463
H -1.297859 -1.767832 -0.812655
H -2.871612 -1.846316 -0.00702
