13

C 0.471174 -0.69893 -0.127085
H 0.615302 0.419904 1.718356
F 2.440881 -1.356144 -0.646451
Br -1.672477 0.221448 -0.105581
C 1.191916 0.247251 0.806235
H 0.581871 -0.553688 -1.182374
H 2.131908 -0.266798 1.020845
C 0.172813 -2.07193 0.403895
H 1.137869 -2.571795 0.475808
H -0.324763 -2.024857 1.376166
H -0.470413 -2.618633 -0.286065
C 1.525182 1.538542 0.217772
N 1.81864 2.568696 -0.202036
