15

C -0.26327 1.152366 0.036085
H -2.250887 0.845455 -0.555633
Br 1.48145 -0.344199 0.252641
H -1.659452 2.702969 0.615078
C -1.534335 0.301171 0.072941
H 0.013142 1.621619 0.956188
C 0.099057 1.789992 -1.283805
H 1.063788 2.292343 -1.207023
H 0.180001 1.025555 -2.061891
H -0.660143 2.517302 -1.566162
N -1.997099 0.157208 1.448206
H -2.895623 -0.315666 1.443261
H -2.164213 1.131474 1.721473
C -1.433025 -1.024155 -0.567461
N -1.529748 -2.027256 -1.124531
