16

C 0.133343 0.157427 0.202158
H 0.537706 1.827673 -1.062748
F 1.619722 -1.26183 0.287865
Cl -1.767103 1.309213 -0.105326
C 1.010711 0.881087 -0.806321
H 1.037063 0.253665 -1.700792
C 0.246696 0.411242 1.673778
H 1.147165 -0.085337 2.022967
H 0.320784 1.485266 1.838453
H -0.623817 0.013291 2.188538
N -0.553153 -1.115506 -0.236831
O -0.56742 -1.370928 -1.420079
O -1.090565 -1.777261 0.621912
N 2.32115 1.156734 -0.218416
H 2.904236 1.572877 -0.935866
H 2.683507 0.230782 0.003583
