15

C -0.026243 0.648808 -0.348212
H 0.367489 -1.28641 -1.246761
F 1.769422 1.731048 -0.390927
Br -1.917131 -0.66232 0.008393
C 0.913434 -0.412474 -0.889635
H 1.498536 0.036748 -1.681701
C -0.606843 1.567452 -1.408577
H 0.184321 2.271131 -1.658163
H -0.908447 0.989696 -2.284413
H -1.479642 2.090035 -1.02108
C 0.04395 1.194917 0.990007
N -0.066207 1.676829 2.0301
N 1.917288 -0.963908 0.06624
O 2.928415 -1.410136 -0.443565
O 1.647732 -1.025124 1.24117
