16

C 0.698315 -0.214734 -0.21757
H -0.858161 -0.539477 -1.670889
F 0.467888 -0.47511 1.425962
H 0.953153 0.499129 -1.932407
C -0.785399 -0.45018 -0.591004
C 1.67443 -1.360527 -0.436226
H 1.141673 -2.301048 -0.292742
H 2.11741 -1.334612 -1.426477
H 2.452237 -1.283193 0.325222
C 1.228938 1.119705 -0.210021
N 1.689763 2.145896 0.096417
C -1.62574 0.70856 -0.203857
N -2.392618 1.519494 0.077262
N -1.267288 -1.691299 0.008348
H -2.260264 -1.785349 -0.165744
H -1.109308 -1.61504 1.007258
