15

C -0.481233 0.029856 0.132685
H 0.304849 -1.339169 -1.261895
Cl -3.010464 0.456315 0.137545
Br 2.275058 -0.060336 0.009771
C -0.687918 -1.036431 -0.930976
H -1.198905 -0.563473 -1.777307
C -0.403815 -0.325771 1.592618
H -1.410565 -0.476249 1.977708
H 0.15027 -1.255843 1.693688
H 0.092395 0.465215 2.150769
C -0.335616 1.394366 -0.295455
N -0.244534 2.488227 -0.646497
N -1.366327 -2.194234 -0.37908
H -1.318705 -2.955301 -1.043511
H -2.340969 -1.950839 -0.23389
