15

C -0.536905 0.086868 0.162712
H -0.179232 -1.594573 -1.12868
F -2.576026 0.727262 0.178174
Br 1.842056 -0.239936 -0.042746
C -1.009742 -0.936449 -0.878199
H -1.281163 -0.369306 -1.777582
C -0.628336 -0.241201 1.633887
H -1.669665 -0.097298 1.912068
H -0.335529 -1.276572 1.798191
H 0.012777 0.420737 2.214764
C -0.456703 1.478927 -0.227772
N -0.305381 2.578316 -0.539063
N -2.094975 -1.740777 -0.330919
H -2.422419 -2.370428 -1.054414
H -2.819884 -1.051792 -0.125695
