18

C -0.682254 -0.627604 0.158105
H -1.837963 0.88203 0.984424
Br 1.895242 -0.282793 -0.149652
F -2.810645 -0.926042 0.334831
C -1.178392 0.831003 0.109645
C -0.489681 -1.228964 1.519038
H 0.203943 -2.066751 1.481609
H -0.104289 -0.491865 2.225708
H -1.480763 -1.561318 1.831414
C -0.712874 -1.501083 -1.065717
H -1.707271 -1.943028 -1.10517
H -0.537977 -0.908896 -1.961248
H 0.046046 -2.277296 -0.99058
N -1.919122 1.06567 -1.126401
H -2.27264 2.015591 -1.119837
H -2.706862 0.425558 -1.013878
C -0.206157 1.91764 0.308552
N 0.344304 2.907493 0.514139
