19

C -1.00777 0.379567 0.328334
H 0.629061 1.188098 1.417196
Cl -0.721517 -1.48593 -0.894474
H -1.12343 2.345862 1.317361
C 0.443458 0.901684 0.383271
C -1.532811 -0.322664 1.56505
H -2.417534 -0.905994 1.303405
H -0.778634 -1.005119 1.957696
H -1.793605 0.414219 2.320091
C -2.010032 0.94798 -0.668621
H -2.51892 1.801535 -0.233595
H -1.49233 1.255818 -1.576773
H -2.735561 0.175423 -0.929127
N 0.680872 1.925431 -0.594724
H 1.657964 2.190371 -0.582332
H 0.116668 2.704372 -0.258279
N 1.545685 -0.179915 0.217233
O 2.338797 -0.089621 -0.693807
O 1.633596 -0.980602 1.126888
