16

C 0.616251 -0.61325 0.03916
H 2.047226 0.169816 -1.221735
Br -1.832646 0.054288 -0.008661
F 2.773345 -1.093274 -0.012565
C 1.055338 0.500473 -0.897658
H 0.369191 0.578931 -1.741116
C 0.384784 -1.962154 -0.584094
H -0.328377 -2.540529 0.002693
H 0.00089 -1.867679 -1.601136
H 1.364401 -2.438872 -0.592615
C 0.750801 -0.503034 1.531575
H 1.761523 -0.843611 1.75265
H 0.620408 0.525031 1.8692
H 0.010415 -1.130674 2.027671
C 1.189933 1.815477 -0.287569
N 1.336312 2.865984 0.158877
