16

C 0.179721 0.576132 0.036668
H -0.155325 -0.613093 -1.728768
F -1.463095 2.005521 -0.009694
Cl 1.877771 -1.067633 -0.021163
C -0.733027 -0.199094 -0.901927
H -1.442667 0.553464 -1.253742
C 0.022526 0.537855 1.531183
H -0.691858 1.322646 1.771972
H -0.355617 -0.428079 1.866253
H 0.982502 0.7207 2.014778
C 1.032057 1.652381 -0.579535
H 1.983928 1.734095 -0.055359
H 1.234524 1.438521 -1.630896
H 0.452796 2.569858 -0.495062
C -1.486808 -1.28175 -0.285116
N -2.121336 -2.130171 0.164315
