20

C -0.645635 0.067387 0.25232
H 0.916277 -0.108589 1.673766
F -0.364989 -0.218914 -1.501567
H -1.076434 0.49735 2.287019
C 0.853339 -0.065351 0.59057
C -1.516 -1.157102 0.469081
H -1.073006 -1.811244 1.216583
H -2.503967 -0.863985 0.821045
H -1.60001 -1.701162 -0.476731
C -1.283955 1.429656 0.019717
H -2.351259 1.370527 0.236818
H -0.873827 2.188901 0.678404
H -1.143372 1.719693 -1.026179
C 1.660123 1.137858 0.092374
H 1.51596 1.254992 -0.983948
H 1.365644 2.063483 0.595581
H 2.727658 0.980333 0.291797
N 1.354316 -1.343074 0.060497
H 2.363472 -1.361372 0.161829
H 1.130329 -1.331879 -0.929726
