14

C 0.05322 -0.085342 0.272266
H 2.136884 -0.404205 0.763887
F -0.342287 0.64214 -1.305118
H 0.332417 -0.830512 2.081946
C 1.521885 0.282317 0.186139
H 1.64841 1.289693 0.585583
H 1.823422 0.278279 -0.866385
C -0.334224 -1.489349 -0.179522
H -0.21261 -1.556064 -1.265941
H 0.2688 -2.244547 0.319229
H -1.383035 -1.678532 0.065338
N -0.877108 0.82415 0.916304
H -1.227645 0.356825 1.737403
H -1.61159 0.995006 0.237572
