13

C -0.414881 -0.933216 -0.210906
H -2.244937 -0.164994 0.307734
Br 1.790863 0.061173 -0.252935
F -2.177542 -1.817284 -0.642324
C -1.249584 0.284698 0.187486
H -0.255713 -1.113824 -1.256898
N -0.195753 -1.877941 0.808747
H 0.645297 -2.401948 0.61067
H -1.015051 -2.477927 0.735972
C -1.365513 1.277837 -0.88071
N -1.517992 2.048517 -1.719031
C -0.869257 0.911389 1.456233
N -0.688612 1.419272 2.470788
