16

C -0.926 0.262487 -0.730008
H 0.645608 1.620295 -0.9395
Cl -1.138075 -1.414347 0.598003
H -0.838892 1.533635 -2.440411
C 0.364112 0.878803 -0.191236
H -0.827123 -0.331505 -1.621968
N -2.150228 0.94156 -0.388019
H -2.864153 0.240667 -0.227426
H -2.376419 1.485531 -1.210409
N 1.503048 -0.113524 -0.268954
O 2.355257 -0.077683 0.600806
O 1.561366 -0.822049 -1.251275
C 0.255163 1.50821 1.1791
H -0.587185 2.199473 1.156998
H 0.062738 0.754863 1.94307
H 1.170317 2.04554 1.429029
