15

C 0.589724 -0.75658 -0.113214
H 2.293638 0.369113 -0.08809
Br -1.798067 -0.243815 0.15622
F 2.577052 -1.576977 0.170377
C 1.257251 0.563534 0.209701
H 0.409849 -1.437844 0.696477
N 0.643937 -1.177017 -1.42974
H 0.189663 -2.076417 -1.518098
H 1.64708 -1.315208 -1.567685
C 1.258701 0.843986 1.710665
H 0.238635 0.914477 2.093367
H 1.782181 0.013715 2.187202
H 1.788734 1.773121 1.933139
C 0.775142 1.703078 -0.5735
N 0.513803 2.657194 -1.161592
