15

C -0.42808 -0.40603 -0.322412
H -0.074492 0.892891 1.31524
F 1.253774 -1.408035 -1.181081
Cl -2.305643 0.766424 0.017833
C 0.537077 0.301238 0.629566
H -0.460769 -0.083241 -1.347063
N -0.874174 -1.679526 0.070362
H -0.068558 -2.237295 -0.239101
H -1.668918 -1.928515 -0.505798
C 1.368208 1.257768 -0.105432
N 2.025911 2.05347 -0.6131
C 1.408495 -0.651171 1.457267
H 0.759256 -1.316752 2.028115
H 2.017895 -1.232542 0.769054
H 2.031196 -0.079884 2.151338
