14

C -0.625024 -0.49865 -0.312942
H -1.206851 1.227852 0.48906
Cl 1.546738 -1.436263 -0.430085
F -2.53761 0.523643 -0.770199
C -0.22789 0.726344 0.475669
H -0.681018 -0.434258 -1.381036
N -1.356523 -1.444019 0.315781
H -2.267866 -1.42348 -0.130358
H -1.415778 -1.253429 1.308277
C 0.705051 1.624412 -0.225731
N 1.400072 2.421569 -0.679935
N 0.18768 0.365524 1.820388
H 0.308433 1.197808 2.381944
H 1.075597 -0.124954 1.759738
