12

C -0.280673 -0.544198 -0.135894
H 0.142122 0.637021 1.600687
F 1.266976 -1.918464 -0.523534
Cl -1.899792 1.027634 -0.182358
C 0.689365 0.102228 0.822548
H -0.166907 -0.392337 -1.193707
H 1.267023 -0.714125 1.256144
N -1.007019 -1.617617 0.406267
H -0.29752 -2.354826 0.329897
H -1.770964 -1.840573 -0.219646
C 1.620943 1.020209 0.178637
N 2.370179 1.759305 -0.2853
