19

C -0.563317 0.027448 0.453989
H -1.759346 1.66039 0.458713
Br 1.848152 -0.271652 -0.060741
F -2.635209 -0.177761 0.538844
C -0.782452 1.469177 0.009581
N -0.502347 -0.213565 1.811769
H -0.264981 -1.189177 1.952295
H -1.475433 -0.088394 2.094892
N -0.826361 -1.207148 -0.417899
O -1.001669 -1.067085 -1.601913
O -0.810043 -2.271564 0.162006
C -0.915504 1.720949 -1.487027
H -0.015284 1.412556 -2.022733
H -1.767722 1.186991 -1.900189
H -1.060499 2.796512 -1.64125
C 0.223682 2.436386 0.641046
H 0.430942 2.171601 1.678608
H 1.168695 2.442491 0.097193
H -0.20461 3.4451 0.615421
