15

C -0.376725 -0.50074 -0.031507
H 0.766907 -0.378891 1.725743
Cl 0.005787 0.644477 -1.894386
F -0.886704 -1.360362 1.594943
C 0.936397 -0.09104 0.685254
N -0.506345 -1.731531 -0.670042
H -0.869382 -1.634168 -1.604229
H -1.074633 -2.320303 -0.07842
N -1.605489 0.343001 0.293267
O -1.441599 1.314216 0.993092
O -2.651276 -0.035755 -0.172903
C 1.325258 1.323446 0.684801
N 1.736156 2.390065 0.798521
C 2.054672 -0.898041 0.18747
N 2.9706 -1.517098 -0.123266
