15

C -0.518149 0.470973 -0.23076
H 0.505642 -1.027235 -1.385982
F -0.03395 0.360453 1.261595
H -1.203722 0.330723 -1.924703
C 0.693534 -0.03779 -0.98885
H 0.977622 0.683796 -1.743884
N -0.839583 1.852056 -0.226049
H -1.15526 2.087773 0.706048
H -1.573182 2.021095 -0.893951
N -1.648584 -0.520698 -0.069972
O -2.721592 -0.066668 0.297865
O -1.407005 -1.710603 -0.179348
N 1.936615 -0.181071 -0.107424
O 2.608133 0.814798 0.076238
O 2.21584 -1.286445 0.308981
