17

C 0.673616 -0.02842 -0.365118
H 1.288531 1.87115 0.250438
Br -1.547091 -0.916775 -0.236056
F 2.5783 0.49442 -0.361332
C 0.356639 1.462846 -0.137795
N 0.911155 -0.570123 -1.63488
H 0.513342 -1.493774 -1.707336
H 1.920577 -0.588378 -1.727038
N 1.123258 -0.806375 0.867295
O 1.050107 -0.241307 1.933314
O 1.522538 -1.932369 0.685608
C -0.668081 1.799689 0.854104
N -1.414774 2.249609 1.605204
C 0.037934 2.137369 -1.472922
H 0.886775 2.006062 -2.142
H -0.84411 1.687718 -1.930684
H -0.14091 3.203285 -1.313759
