13

C 0.36411 -0.137905 0.156234
H -0.714084 -1.452332 -1.129027
F -0.232924 1.549159 0.383706
F 1.136492 -1.718611 -0.158366
C -0.734742 -0.394501 -0.87311
H -0.530965 0.189819 -1.771643
N 0.133896 -0.463463 1.525251
H 0.140094 0.399972 2.048122
H 0.863032 -1.09758 1.816293
C 1.62091 0.470065 -0.296679
N 2.62009 0.939712 -0.625197
C -2.074099 -0.054562 -0.399631
N -3.175022 0.121837 -0.116152
