16

C 0.586391 -0.256761 0.064888
H -0.685526 -0.533284 -1.61314
F -0.130684 0.258016 1.651486
F 1.376664 -0.661131 -1.485713
C -0.824799 -0.431264 -0.537398
N 1.236705 -1.357195 0.706414
H 1.366437 -1.105647 1.675202
H 2.111238 -1.512126 0.227391
C 1.235336 1.055619 -0.00108
N 1.793306 2.061949 -0.037681
C -1.68548 0.738898 -0.34095
N -2.436301 1.610063 -0.297106
C -1.507046 -1.684863 0.011258
H -0.884061 -2.552061 -0.203624
H -1.614075 -1.587109 1.090187
H -2.49021 -1.815226 -0.449685
