15

C 1.291551 0.693958 0.098031
H 3.065442 1.182125 0.845773
Br -2.544935 -0.287603 -0.030464
H 2.209015 1.765436 2.143799
C 2.781253 0.629253 -0.108137
H 3.062607 1.202101 -0.996141
N 0.601493 -0.361586 0.340221
H 1.059909 -1.251455 0.485654
H -0.453012 -0.341158 0.359826
C 0.606281 1.972456 -0.225341
H 1.203179 2.800838 0.14842
H 0.509241 2.027723 -1.31933
H -0.392958 2.002199 0.205899
C 3.341605 -0.700487 -0.14471
N 3.782103 -1.765955 -0.129752
