16

C -0.3358 0.063884 -0.04047
H 0.705003 -1.216518 -1.348596
F 0.143573 1.900152 0.026081
F -0.938725 -1.740821 0.030975
C 0.91824 -0.292069 -0.812144
H 1.067505 0.505755 -1.540234
N -1.490524 0.401911 -0.830953
H -1.728947 1.350742 -0.575185
H -2.208974 -0.256999 -0.5631
N -0.337017 0.060336 1.398761
H -1.039335 -0.610687 1.675305
H -0.560233 1.003427 1.683191
C 2.145693 -0.442052 0.069083
H 2.323381 0.493739 0.60219
H 1.98891 -1.230022 0.808734
H 3.033052 -0.687727 -0.529274
