15

C	0.042271	0.089207	0.024868
C	-0.419062	0.309225	-1.407518
F	1.463744	-0.139698	-0.015211
H	0.175595	1.126744	-1.828148
H	-1.47158	0.60821	-1.364693
C	-0.044312	1.36643	0.794597
N	-0.14448	2.353819	1.424766
N	-0.620943	-0.984423	0.61187
H	-0.615698	-0.936936	1.623266
H	-1.645618	-1.096761	0.245822
C	-0.292345	-0.958895	-2.243539
H	-0.458093	-0.728299	-3.301162
H	-1.045756	-1.678107	-1.922619
H	0.701066	-1.397887	-2.13229
H	-2.998546	-1.171786	-0.265351
