15

C	-0.020308	0.068535	0.010258
C	-0.523333	0.180762	-1.417133
F	1.397658	-0.149816	-0.044401
H	-0.331163	-0.799587	-1.861946
H	-1.612654	0.285556	-1.359356
C	-0.107939	1.387334	0.709059
N	-0.197994	2.411028	1.279983
N	-0.657282	-0.985919	0.669688
H	-1.720407	-1.016919	0.414008
H	-0.573938	-0.894086	1.676387
C	0.141311	1.289144	-2.222403
H	1.226805	1.169878	-2.226847
H	-0.090433	2.275197	-1.810888
H	-0.209562	1.270693	-3.258152
H	-3.136741	-0.933718	0.05677
