15

C	0.055727	0.082917	0.02499
C	-0.401165	0.213255	-1.419763
F	1.475719	-0.161035	0.003312
H	0.200528	0.997658	-1.890391
H	-1.451907	0.52048	-1.397735
C	-0.019256	1.408205	0.709449
N	-0.109166	2.435097	1.274576
N	-0.617834	-0.943981	0.679802
H	-0.615833	-0.827859	1.685691
H	-1.642715	-1.072847	0.318704
C	-0.28229	-1.107057	-2.171892
H	-1.040632	-1.798779	-1.805607
H	-0.4466	-0.944423	-3.242251
H	0.708283	-1.544162	-2.031992
H	-2.991696	-1.171867	-0.196844
