15
Coordinates from ORCA-job run
  C   -0.45892534724928      0.16045839504843     -0.18254331923269
  C   0.98140482965111      0.47749117967246      0.18377831400189
  F   -1.22649769502768      0.54062636657840      0.96584264953457
  H   1.61931904048153      0.14491243249705     -0.63808474035971
  H   1.07062740831114      1.57418915028939      0.25209126673451
  C   -0.72222313609907     -1.31053529053475     -0.39914836583415
  H   -1.79303458151740     -1.47605172175759     -0.54189964159687
  H   -0.18709297767224     -1.65768978338381     -1.28399385281599
  H   -0.38594130174722     -1.87182433309040      0.47003844430423
  N   -0.84460270811485      0.92561202085019     -1.31409745605653
  H   -0.76888496130479      1.91604204760605     -1.11709651132406
  H   -1.80063075855874      0.72016787449257     -1.57583930130924
  N   1.35837431497165     -0.22463908577079      1.40360592170541
  H   2.33761128196978     -0.06786418662665      1.60348098561460
  H   0.81949659190607      0.15010493412946      2.17386560663403
