15
Coordinates from ORCA-job run
  C   -0.57190974410320      0.13038941838862     -0.03317513343471
  C   0.86094930195215      0.58605446054949      0.21363310278003
  F   -1.20226731277519      0.25265732562433      1.22494747588386
  H   1.41277718554961      0.50294137352969     -0.72750470459682
  H   0.81210644721436      1.65575882117943      0.47866680700859
  C   -0.68390736252278     -1.31949897518396     -0.44450008882582
  H   -1.73878840318449     -1.57960838996194     -0.54553748563109
  H   -0.21833164956936     -1.94902528493960      0.31047419026720
  H   -0.17545767002028     -1.49058916077756     -1.39684283562840
  N   -1.28755598267287      0.96998642008850     -0.94466271049912
  H   -0.96933380735056      1.92957699219431     -0.91084910722519
  H   -1.24250674256102      0.62552378017749     -1.89195067129322
  N   1.50599936151675     -0.24622256431679      1.22102370671290
  H   2.46979509088609      0.03786659419657      1.34213361076448
  H   1.02943128764079     -0.10581081074858      2.10314384371731
