15
Coordinates from ORCA-job run
  C   -0.54342994757876      0.21779018116179     -0.05425427417663
  C   0.94968293893539      0.45909167134378      0.13089828037642
  F   -1.12015931186491      0.62295342604610      1.16975264270602
  H   1.46201370793746      0.15171166995387     -0.78570627384426
  H   1.08327247811822      1.54889880048530      0.23821004409666
  C   -0.90166158188544     -1.23712262920255     -0.25155205221047
  H   -0.53023233562941     -1.82037569271569      0.58803900745169
  H   -1.98682446473712     -1.33025195850994     -0.31729361350138
  H   -0.44836251780327     -1.62504270305925     -1.16745925024344
  N   -1.12808848551957      1.02482514933896     -1.08126088023659
  H   -1.15602322033049      0.54564209971672     -1.96878366456048
  H   -0.65652002187964      1.91386719730877     -1.18386265784542
  N   1.46782316453224     -0.31520516820741      1.25113569214316
  H   2.46816664325114     -0.18511257028823      1.33199385633447
  H   1.04134295445415      0.02933052662778      2.10214314351027
