16

C	-0.610446	-0.001725	-1.626684
C	0.101626	-0.030293	-0.275949
Cl	-0.409473	1.511176	-2.509162
H	1.173541	0.009109	-0.503752
H	-0.266895	-0.811771	-2.266845
N	-2.080538	-0.278456	-1.444749
O	-2.772395	0.572609	-0.897902
O	-2.468086	-1.390626	-1.806762
C	-0.17514	-1.366444	0.417074
H	0.500827	-1.420264	1.271179
H	-1.211086	-1.415431	0.770509
H	0.004561	-2.227073	-0.236313
N	-0.18129	1.140166	0.525138
H	0.592489	1.202568	1.187861
H	-1.036357	0.999363	1.05089
Cl	2.640243	0.224571	2.009259
