16

C	-0.633417	-0.008385	-1.609179
C	0.108217	-0.056983	-0.278661
Cl	-0.051841	1.301653	-2.654752
H	1.179124	-0.080281	-0.538096
H	-0.521441	-0.940234	-2.159891
N	-2.118814	0.143038	-1.390612
O	-2.618134	1.257129	-1.354505
O	-2.713105	-0.922008	-1.220783
C	-0.20312	-1.334476	0.488371
H	-0.025858	-2.224757	-0.122805
H	-1.237918	-1.334836	0.833813
H	0.470701	-1.356938	1.346382
N	-0.24561	1.090507	0.540174
H	0.021936	1.937716	0.047522
H	0.394437	1.038713	1.336877
Cl	2.538149	0.349734	2.167584
