16

C	-0.590009	0.041285	-1.576466
C	0.194882	0.030858	-0.265928
Cl	-2.341959	0.104341	-1.339713
H	1.259466	0.015696	-0.556997
H	-0.301236	0.908744	-2.164195
N	-0.220563	-1.162565	-2.407272
O	0.836448	-1.038348	-3.023838
O	-0.916005	-2.170806	-2.376001
C	-0.079602	-1.186669	0.606968
H	-1.124411	-1.206241	0.930726
H	0.57138	-1.098679	1.478068
H	0.140292	-2.129485	0.098114
N	-0.035824	1.317467	0.371502
H	0.770433	1.461338	0.986633
H	-0.852958	1.242535	0.968928
Cl	2.692793	0.789538	2.072563
