16

C	-0.217149	0.020754	-1.526419
C	0.0	0.0	0.0
Br	-0.196166	-2.005865	-2.105731
H	1.096062	0.0	0.0
N	-1.532272	0.427484	-1.95717
H	-1.540461	1.441866	-1.938635
H	-1.715977	0.095955	-2.896361
N	0.871947	0.699961	-2.058099
H	0.950148	0.631838	-3.061842
H	1.743239	0.485003	-1.539688
C	-0.627834	-1.065371	0.746234
N	-1.106022	-1.924216	1.390457
N	-0.381784	1.302902	0.641327
O	-0.635281	2.277534	-0.064879
O	-0.356021	1.323915	1.869122
F	2.551853	0.0	0.0
