16

C	-0.010882	-0.032529	-1.536832
C	0.0	0.0	0.0
Br	-1.812802	-0.157507	-2.348668
H	1.094251	0.0	0.0
N	0.574552	1.214874	-1.970787
H	0.714583	1.173981	-2.975139
H	1.48912	1.239098	-1.506836
N	0.698354	-1.255517	-1.846716
H	0.829325	-1.317665	-2.850414
H	1.613141	-1.131617	-1.390341
C	-0.604656	-1.157138	0.616414
N	-1.065782	-2.088605	1.16447
N	-0.563414	1.253522	0.559057
O	0.194056	2.214109	0.663094
O	-1.754311	1.251124	0.87984
F	2.575693	0.0	0.0
