16

C	-0.201958	-0.067054	-1.546016
C	0.0	0.0	0.0
Br	-0.030179	1.918863	-2.204485
H	1.091565	0.0	0.0
N	0.840468	-0.869884	-1.978008
H	1.725146	-0.635342	-1.486352
H	0.901535	-0.922372	-2.984482
N	-1.456807	-0.477898	-2.100633
H	-2.193854	0.107415	-1.724528
H	-1.614692	-1.43697	-1.80383
C	-0.543767	-1.211183	0.583603
N	-0.995144	-2.195641	1.04199
N	-0.66796	1.15996	0.639985
O	-1.895639	1.220964	0.518206
O	0.021769	1.970381	1.246232
F	2.570693	0.0	0.0
