16

C	-0.17598	0.046334	-1.554326
C	0.0	0.0	0.0
Br	0.144769	-1.902099	-2.118014
H	1.089457	0.0	0.0
N	-1.441688	0.478797	-1.960665
H	-1.439702	1.052613	-2.78661
H	-2.099958	0.731611	-1.243376
N	0.886086	0.768953	-2.187769
H	1.752325	0.463337	-1.713179
H	0.767667	1.738733	-1.903457
C	-0.672616	-1.062774	0.707286
N	-1.197868	-1.91862	1.319282
N	-0.470287	1.315893	0.519268
O	0.187495	2.307887	0.206459
O	-1.513343	1.362458	1.181096
F	2.530493	0.0	0.0
