16

C	-0.551772	0.033322	-1.432846
C	0.0	0.0	0.0
Br	0.447087	1.284897	-2.573233
H	1.088905	0.0	0.0
N	-0.309453	-1.267986	-2.025228
H	-0.89226	-1.961457	-1.568962
H	-0.524545	-1.239561	-3.014102
N	-1.920162	0.524359	-1.406366
H	-2.468747	-0.085839	-0.805908
H	-2.308385	0.502202	-2.342923
C	-0.510091	-1.189698	0.656694
N	-0.904421	-2.204581	1.104403
N	-0.449505	1.198596	0.759072
O	-0.000973	2.277247	0.392181
O	-1.216796	1.045113	1.714903
F	2.454131	0.0	0.0
