17

C	-0.498767	0.003632	-1.440396
C	0.0	0.0	0.0
F	-0.004533	1.107854	-2.062499
H	1.09576	0.0	0.0
N	0.064559	-1.19209	-2.197089
O	-0.053425	-2.283278	-1.647922
O	0.521729	-0.998387	-3.317202
C	-1.99861	-0.021835	-1.613585
H	-2.249229	0.069758	-2.673345
H	-2.400214	0.834998	-1.070786
H	-2.415396	-0.945372	-1.21029
C	-0.546742	-1.089942	0.786869
N	-1.026094	-1.881263	1.515704
N	-0.373354	1.301975	0.598049
H	-0.950475	1.164216	1.417394
H	0.505212	1.707205	0.90145
F	2.531446	0.0	0.0
