17

C	-0.357812	-0.108802	-1.474605
C	0.0	0.0	0.0
F	-1.6689	-0.481105	-1.677004
H	1.092829	0.0	0.0
N	-0.228251	1.285747	-2.057523
O	-1.250028	1.885537	-2.368218
O	0.916413	1.705458	-2.165875
C	0.590995	-1.038406	-2.185215
H	1.598615	-0.779676	-1.852546
H	0.361381	-2.058521	-1.868397
H	0.47812	-0.962551	-3.267475
C	-0.454516	-1.204828	0.685496
N	-0.835407	-2.148695	1.275558
N	-0.469078	1.236792	0.609345
H	0.261119	1.563128	1.226774
H	-1.320858	1.10896	1.137022
F	2.575718	0.0	0.0
