17

C	-0.331713	-0.097701	-1.485897
C	0.0	0.0	0.0
F	-1.618156	-0.541174	-1.718191
H	1.093271	0.0	0.0
N	-0.28515	1.318427	-2.033983
O	-1.349272	1.865819	-2.296406
O	0.828782	1.80998	-2.160038
C	0.680586	-0.954484	-2.202976
H	0.583494	-0.859283	-3.286997
H	1.669144	-0.656034	-1.839268
H	0.501228	-1.993687	-1.916746
C	-0.451819	-1.22269	0.660822
N	-0.82623	-2.175932	1.240132
N	-0.489671	1.220448	0.61937
H	0.181978	1.503115	1.320615
H	-1.395421	1.095783	1.051193
F	2.582741	0.0	0.0
