17

C	-0.495453	0.033351	-1.442341
C	0.0	0.0	0.0
F	0.17637	1.022879	-2.097297
H	1.093487	0.0	0.0
N	-0.104665	-1.275043	-2.119455
O	0.928784	-1.303187	-2.772752
O	-0.867851	-2.225286	-1.937898
C	-1.974632	0.264706	-1.624856
H	-2.217884	0.3026	-2.689689
H	-2.552231	-0.526329	-1.14999
H	-2.201184	1.227051	-1.164737
C	-0.543885	-1.122981	0.739997
N	-1.018452	-1.980032	1.393038
N	-0.340333	1.29179	0.628858
H	-0.959433	1.159765	1.419381
H	0.544312	1.657621	0.968176
F	2.523728	0.0	0.0
