17

C	-0.297626	0.178309	-1.468271
C	0.0	0.0	0.0
F	-0.168372	-1.027722	-2.125874
H	1.105792	0.0	0.0
N	-1.771341	0.544305	-1.713283
O	-2.057347	1.034752	-2.803963
O	-2.586454	0.274184	-0.831319
C	0.614928	1.198101	-2.087748
H	1.62017	0.93391	-1.739856
H	0.525963	1.174343	-3.173719
H	0.359556	2.188064	-1.71165
C	-0.52603	-1.235494	0.563463
N	-0.9306	-2.200193	1.100924
N	-0.387053	1.211357	0.718341
H	0.310741	1.382172	1.43038
H	-1.29567	1.105865	1.1489
F	2.584947	0.0	0.0
