17

C	-0.299116	0.093897	-1.484706
C	0.0	0.0	0.0
F	-0.299487	-1.164187	-2.049366
H	1.098828	0.0	0.0
N	-1.736195	0.581839	-1.697379
O	-2.606355	-0.022608	-1.073485
O	-1.945127	1.511486	-2.472933
C	0.700077	0.97003	-2.181014
H	1.680189	0.63214	-1.827222
H	0.558544	2.002524	-1.865864
H	0.58768	0.893966	-3.263059
C	-0.520853	-1.201869	0.638668
N	-0.940518	-2.112055	1.254467
N	-0.410625	1.249141	0.638391
H	-1.290185	1.141941	1.126841
H	0.309163	1.506447	1.300807
F	2.594825	0.0	0.0
