17

C	-0.499694	0.055137	-1.439976
C	0.0	0.0	0.0
F	0.102732	1.10848	-2.056957
H	1.093495	0.0	0.0
N	-0.046611	-1.19232	-2.185159
O	0.779878	-1.074673	-3.080051
O	-0.587756	-2.24189	-1.836607
C	-1.993519	0.189497	-1.612122
H	-2.291828	1.100355	-1.091989
H	-2.50848	-0.671991	-1.188183
H	-2.23901	0.280994	-2.673405
C	-0.534906	-1.124697	0.744296
N	-0.969206	-1.956942	1.454765
N	-0.360423	1.280892	0.642275
H	0.520103	1.665113	0.967723
H	-0.958032	1.129195	1.44506
F	2.526614	0.0	0.0
