17

C	-0.325884	-0.147516	-1.482725
C	0.0	0.0	0.0
F	-1.604168	-0.611069	-1.7083
H	1.10483	0.0	0.0
N	-0.284528	1.251583	-2.077098
O	-1.343804	1.762632	-2.423821
O	0.82395	1.764795	-2.158836
C	0.697857	-1.012677	-2.17212
H	0.53458	-2.043813	-1.851528
H	0.598447	-0.954714	-3.258546
H	1.680893	-0.688256	-1.818276
C	-0.438089	-1.206121	0.696131
N	-0.787966	-2.153319	1.299471
N	-0.500561	1.235014	0.580733
H	-1.387467	1.10956	1.049919
H	0.186702	1.566861	1.244389
F	2.583225	0.0	0.0
