17

C	-0.478813	-0.048881	-1.447939
C	0.0	0.0	0.0
F	0.025631	1.02928	-2.103897
H	1.100501	0.0	0.0
N	0.092206	-1.273841	-2.149449
O	0.628236	-1.116951	-3.239663
O	-0.099566	-2.350308	-1.591114
C	-1.9761	-0.077694	-1.644077
H	-2.383319	0.811505	-1.160649
H	-2.403824	-0.974672	-1.195164
H	-2.210223	-0.046756	-2.711395
C	-0.537756	-1.076717	0.812376
N	-1.005515	-1.855304	1.561325
N	-0.384878	1.310361	0.552769
H	0.462287	1.699894	0.948409
H	-1.066739	1.209541	1.29176
F	2.528531	0.0	0.0
