18

C	-0.374971	-0.010426	-1.482621
C	0.0	0.0	0.0
F	-0.092311	-1.247583	-1.99125
H	1.096213	0.0	0.0
N	-1.891412	0.137292	-1.618088
O	-2.33133	1.27838	-1.743879
O	-2.567154	-0.886283	-1.545923
C	0.3372	1.039407	-2.289411
H	0.046242	0.96014	-3.338997
H	1.408061	0.855473	-2.173852
H	0.101287	2.036378	-1.922899
C	-0.484878	-1.22064	0.781769
H	-0.051499	-1.182811	1.782556
H	-1.572883	-1.259436	0.860857
H	-0.12723	-2.124415	0.290021
C	-0.446755	1.241375	0.62403
N	-0.824727	2.223322	1.146918
Br	3.437465	0.0	0.0
