18

C	-0.5064	0.077	-1.443366
C	0.0	0.0	0.0
F	0.143703	1.090064	-2.080616
H	1.095786	0.0	0.0
N	-0.123777	-1.208202	-2.172904
O	-0.8475	-2.17961	-1.949726
O	0.839764	-1.182259	-2.922572
C	-1.993917	0.284749	-1.618185
H	-2.56506	-0.493656	-1.117202
H	-2.255289	1.259578	-1.204961
H	-2.235972	0.275672	-2.683061
C	-0.436757	-1.237141	0.792583
H	0.017084	-2.131044	0.367609
H	-1.521383	-1.36282	0.820285
H	-0.06567	-1.130022	1.813094
C	-0.45588	1.211907	0.679283
N	-0.868413	2.156911	1.242803
Br	3.446368	0.0	0.0
