18

C	-0.500197	0.035455	-1.448171
C	0.0	0.0	0.0
F	0.10438	1.072338	-2.089706
H	1.095882	0.0	0.0
N	-0.056316	-1.233292	-2.173406
O	-0.682599	-2.252576	-1.880406
O	0.84451	-1.150698	-2.992598
C	-1.994681	0.168559	-1.635053
H	-2.316038	1.117688	-1.204925
H	-2.526896	-0.652886	-1.160858
H	-2.218062	0.170764	-2.703616
C	-0.444403	-1.204012	0.836728
H	-0.003263	-2.118076	0.443286
H	-0.068831	-1.060447	1.850515
H	-1.530535	-1.313681	0.875552
C	-0.453753	1.238068	0.631737
N	-0.868518	2.202683	1.159251
Br	3.442091	0.0	0.0
