18

C	-0.469439	-0.118452	-1.448078
C	0.0	0.0	0.0
F	-1.823511	-0.352957	-1.491708
H	1.093817	0.0	0.0
N	-0.250747	1.220123	-2.143616
O	-1.239004	1.879774	-2.448944
O	0.919539	1.523063	-2.337413
C	0.264061	-1.175373	-2.237467
H	-0.004407	-1.09496	-3.293597
H	1.34048	-1.05035	-2.106277
H	-0.041751	-2.159883	-1.880111
C	-0.4276	-1.224475	0.819908
H	0.061473	-2.118092	0.429514
H	-0.088959	-1.093	1.84844
H	-1.510305	-1.360626	0.811378
C	-0.519845	1.217473	0.615902
N	-0.965154	2.166888	1.145677
Br	3.461743	0.0	0.0
