18

C	-0.39692	0.091556	-1.465654
C	0.0	0.0	0.0
Cl	0.099425	-1.715143	-2.247474
H	1.098628	0.0	0.0
N	-1.782767	0.217765	-1.647191
H	-2.221371	-0.486407	-1.062611
H	-2.050778	0.069951	-2.611908
N	0.382289	1.041984	-2.124675
H	0.242272	1.036152	-3.126155
H	1.365506	0.888387	-1.907832
N	-0.63055	-1.166173	0.618808
H	-0.126733	-1.991297	0.311769
H	-0.487148	-1.09225	1.620019
C	-0.456914	1.258158	0.731427
H	-0.013791	1.265587	1.732301
H	-0.115892	2.148013	0.203698
H	-1.545791	1.285484	0.81731
Br	3.628912	0.0	0.0
