18

C	-0.207293	-0.025353	-1.513424
C	0.0	0.0	0.0
Cl	-1.98009	-0.066992	-1.93519
H	1.110344	0.0	0.0
N	0.335762	1.130373	-2.204283
H	1.316166	1.191331	-1.929041
H	-0.130825	1.973329	-1.888372
N	0.390687	-1.238613	-2.010682
H	1.353298	-1.252495	-1.671553
H	0.415624	-1.169787	-3.021683
N	-0.56465	-1.194587	0.634678
H	-0.473771	-1.955716	-0.030021
H	0.036445	-1.427015	1.420222
C	-0.521032	1.241129	0.693894
H	-0.025698	2.148576	0.341973
H	-1.601716	1.32505	0.559738
H	-0.317242	1.158132	1.763781
Br	3.595759	0.0	0.0
