18

C	-0.412176	0.036351	-1.47645
C	0.0	0.0	0.0
Cl	-0.022249	-1.66573	-2.178591
H	1.101915	0.0	0.0
N	-1.814924	0.215687	-1.754858
H	-2.321281	-0.424128	-1.149913
H	-2.043913	1.165252	-1.481294
N	0.333231	1.038909	-2.133144
H	0.187326	0.981462	-3.133105
H	1.322817	0.934871	-1.916858
N	-0.618451	-1.142736	0.674838
H	-0.117018	-1.979706	0.397975
H	-0.450154	-1.029802	1.668941
C	-0.451664	1.275202	0.701333
H	0.017959	1.323631	1.687562
H	-0.141011	2.156412	0.140924
H	-1.537849	1.28299	0.835867
Br	3.638323	0.0	0.0
