18

C	-0.324179	0.039395	-1.493844
C	0.0	0.0	0.0
Cl	-2.232866	0.483289	-1.622498
H	1.097523	0.0	0.0
N	0.317622	1.071821	-2.2583
H	0.066799	1.979953	-1.89039
H	1.319056	0.932333	-2.119993
N	-0.059939	-1.185622	-2.074209
H	-0.393723	-1.945672	-1.49837
H	-0.328107	-1.224756	-3.04516
N	-0.466546	-1.260102	0.578157
H	-1.347987	-1.115111	1.056683
H	0.218826	-1.581674	1.250314
C	-0.431248	1.227864	0.789203
H	0.051672	1.193479	1.769398
H	-0.113915	2.155282	0.306799
H	-1.515594	1.261785	0.920969
Br	3.578083	0.0	0.0
