18

C	-0.42341	0.196057	-1.446174
C	0.0	0.0	0.0
Cl	0.090308	-1.543883	-2.372137
H	1.098017	0.0	0.0
N	-1.814907	0.30741	-1.591342
H	-2.102248	0.211686	-2.557154
H	-2.225171	-0.4406	-1.040059
N	0.325622	1.204597	-2.049432
H	0.157391	1.273606	-3.044786
H	1.315678	1.054013	-1.869848
N	-0.619426	-1.212273	0.538753
H	-0.119223	-2.009393	0.159225
H	-0.457071	-1.215358	1.540377
C	-0.452978	1.196199	0.831171
H	0.006318	1.130084	1.822458
H	-1.540489	1.210576	0.93593
H	-0.124481	2.125626	0.367902
Br	3.62845	0.0	0.0
