12
Coordinates from ORCA-job run
  C   -0.34608747790246      0.19017658181083      0.41346679593565
  C   0.99361078292724     -0.37393750970068     -0.06409515319691
  F   -0.79114735562777     -0.57690691221935      1.47006342671643
  H   1.41994765812724      0.27761695136731     -0.83307242601001
  H   1.68358138432919     -0.38073819666736      0.78340805985362
  N   -1.32580513846773      0.11880620668510     -0.61641797140843
  H   -0.99394896275781      0.50084728605423     -1.49175048783092
  H   -2.18599776228902      0.57764127722795     -0.34435677815070
  C   -0.12047960826579      1.55774516398392      0.95574489170781
  N   0.05683994624719      2.65974626476965      1.32224051826888
  C   0.84609860569819     -1.73063832124575     -0.58529883617680
  N   0.76438792798153     -2.82035879206585     -1.01093203970861
