12
Coordinates from ORCA-job run
  C   -0.45927028670859      0.20709246525999      0.37308967748327
  C   0.47368761739981     -0.99184738657142      0.18300549216081
  F   -1.34433867918131     -0.18499499252900      1.39631518151506
  H   -0.13910062901144     -1.84560725159292     -0.12364065481594
  H   0.92468152754658     -1.24097346746398      1.14605117692973
  N   -1.11122909018989      0.54355452544960     -0.82666948416201
  H   -1.63050623239242     -0.23782075571815     -1.20560324802491
  H   -1.70938013179186      1.35308998885126     -0.72876696076737
  C   0.27386366266285      1.38038686059391      0.88658297637731
  N   0.85690464473143      2.30495218778745      1.31409245751887
  C   1.51075451930795     -0.73672746141357     -0.81046449314699
  N   2.35493307762689     -0.54910471265317     -1.60299212106783
