16

C	-0.366017	-0.004965	-1.477675
C	0.0	0.0	0.0
Cl	-2.183264	0.023475	-1.756783
H	1.096856	0.0	0.0
C	0.171268	1.186537	-2.139704
N	0.593588	2.14152	-2.676967
C	0.133573	-1.204324	-2.156569
N	0.520796	-2.165323	-2.710343
C	-0.497074	-1.23054	0.732121
H	-0.155416	-2.150456	0.250387
H	-0.069314	-1.213187	1.737929
H	-1.591465	-1.260195	0.813346
N	-0.429098	1.2681	0.569247
H	-1.225375	1.153608	1.1841
H	0.350885	1.639415	1.097229
F	2.573402	0.0	0.0
