16

C	-0.38307	0.012074	-1.470901
C	0.0	0.0	0.0
Cl	-2.205879	0.04231	-1.724243
H	1.09675	0.0	0.0
C	0.140277	1.212321	-2.12834
N	0.530697	2.182637	-2.661532
C	0.104936	-1.178797	-2.172713
N	0.484554	-2.129444	-2.74891
C	-0.488099	-1.239075	0.724598
H	-1.580604	-1.26476	0.82841
H	-0.161504	-2.154122	0.223639
H	-0.038756	-1.23773	1.720903
N	-0.422658	1.260889	0.588614
H	-1.22442	1.14395	1.196984
H	0.357548	1.617426	1.127154
F	2.568632	0.0	0.0
