16

C	-0.388168	-0.002882	-1.469259
C	0.0	0.0	0.0
Cl	-2.21382	0.01592	-1.716652
H	1.10188	0.0	0.0
C	0.127108	1.194227	-2.139386
N	0.509311	2.141963	-2.717883
C	0.102856	-1.199437	-2.159619
N	0.471331	-2.170429	-2.710166
C	-0.486461	-1.229901	0.740962
H	-0.028056	-1.220338	1.73292
H	-0.168327	-2.151292	0.246425
H	-1.578197	-1.249867	0.854959
N	-0.420082	1.26883	0.575016
H	-1.21696	1.157482	1.189188
H	0.362568	1.631993	1.105619
F	2.568865	0.0	0.0
