16

C	-0.319146	0.048852	-1.522185
C	0.0	0.0	0.0
Cl	0.31244	-1.397608	-2.388079
H	1.095784	0.0	0.0
C	-1.766033	0.11117	-1.762573
N	-2.937367	0.16698	-1.855749
C	0.303282	1.236861	-2.11541
N	0.764895	2.197812	-2.608202
C	-0.624945	-1.200458	0.675151
H	-0.276634	-1.201472	1.70935
H	-1.722434	-1.152029	0.683147
H	-0.313811	-2.136515	0.208952
N	-0.420733	1.2332	0.641505
H	-1.33739	1.560784	0.355552
H	0.275684	1.948996	0.47502
F	2.591507	0.0	0.0
