17

C	-0.486506	-0.015914	-1.461832
C	0.0	0.0	0.0
Br	0.295217	-1.5205	-2.351086
H	1.093186	0.0	0.0
N	-2.013108	-0.12559	-1.550826
O	-2.624094	0.218563	-0.542081
O	-2.50454	-0.496611	-2.604911
N	-0.151757	1.247309	-2.282519
O	-1.096823	1.980339	-2.54284
O	1.014499	1.396288	-2.583084
N	-0.394557	-1.110836	0.767663
H	0.318077	-1.824158	0.792065
H	-1.327987	-1.459334	0.627934
N	-0.419691	1.304968	0.667169
O	-0.948294	1.265622	1.765843
O	-0.140324	2.325264	0.041705
Cl	3.196342	0.0	0.0
