17

C	-0.645929	0.025004	-1.378791
C	0.0	0.0	0.0
Br	-2.542227	0.336889	-1.281847
H	1.091217	0.0	0.0
N	-0.020219	0.977739	-2.397378
O	-0.55771	0.973264	-3.500789
O	0.974571	1.592046	-2.055192
N	-0.381749	-1.360962	-2.007345
O	0.78755	-1.515444	-2.325498
O	-1.298909	-2.15377	-2.119464
N	-0.386241	-1.193437	0.669416
H	-1.275093	-1.103077	1.145085
H	0.33596	-1.447523	1.332187
N	-0.379917	1.261944	0.769368
O	-0.509571	2.308694	0.142299
O	-0.494401	1.142245	1.987495
Cl	3.172281	0.0	0.0
