18

C	0.0	0.0	0.0
C	-0.407663	0.013378	-1.489558
Cl	1.795975	0.0	0.0
H	0.10292	-0.826846	-1.954047
C	-0.509824	1.176772	0.807435
H	-0.20651	1.048224	1.850432
H	-1.60203	1.110443	0.717038
H	-0.126173	2.125707	0.436191
C	-0.508946	-1.310321	0.578541
H	-0.139579	-1.428983	1.600254
H	-1.602475	-1.206764	0.561868
H	-0.173803	-2.164602	-0.018149
N	0.169403	1.206592	-2.213832
O	-0.291046	2.31613	-1.956017
O	1.055246	0.974924	-3.033816
C	-1.823963	-0.056109	-1.924445
N	-2.568316	-0.154248	-2.838292
F	-2.902504	0.0	0.0
