18

C	0.0	0.0	0.0
C	-0.47723	0.015491	-1.480472
Cl	1.797176	0.0	0.0
H	0.344522	-0.368797	-2.091541
C	-0.494122	1.192211	0.797341
H	-0.150666	1.093843	1.830394
H	-0.110405	2.130276	0.391825
H	-1.589603	1.119065	0.734906
C	-0.45176	-1.306873	0.636448
H	-0.037839	-1.375831	1.645551
H	-0.106732	-2.169564	0.059095
H	-1.546691	-1.242179	0.651807
N	-0.64329	1.429751	-1.979791
O	0.406386	2.058797	-2.121918
O	-1.767561	1.86106	-2.203927
C	-1.663892	-0.783572	-1.81511
N	-2.282851	-1.581684	-2.422053
F	-2.808626	0.0	0.0
