17

C	0.0	0.0	0.0
C	-0.408184	-0.040215	-1.512111
Br	1.946298	0.0	0.0
H	0.471759	-0.412356	-2.039351
N	-0.552997	1.041299	0.72554
H	-0.326836	0.933931	1.70743
H	-1.581662	0.935571	0.611656
N	-0.261561	-1.413353	0.648558
O	-0.106108	-2.397921	-0.059866
O	-0.527841	-1.411623	1.842612
C	-0.708903	1.367333	-2.028279
H	-1.609934	1.754444	-1.557924
H	0.134037	2.02956	-1.812455
H	-0.86621	1.319478	-3.109107
C	-1.448328	-0.985894	-1.944465
N	-2.066169	-1.732788	-2.609694
Cl	-3.403185	0.0	0.0
