15
Coordinates from ORCA-job run
  C   -0.54979698378563      0.32763633512136     -0.21362188023606
  C   0.47583286579122     -0.26117953788723      0.73816951463773
  Br  -2.28879774914558     -0.54809772567431     -0.04456801582277
  H   1.35380740168738      0.39824382917619      0.69298464200217
  H   0.08204641630465     -0.18736810818525      1.75160879009725
  N   -0.14073623471286      0.27325789130935     -1.55586422506835
  H   -0.79195222403888      0.74793506828785     -2.16777273301039
  H   0.77968216796272      0.68422145608367     -1.66326391155938
  N   -0.83551489230927      1.79385221900556      0.26525447051210
  O   -1.00409811931733      1.97406323236002      1.46332430764962
  O   -0.85582961147412      2.65585034657432     -0.60758660652886
  C   0.86877247134765     -1.69202438454439      0.39494386685172
  H   1.27633443526783     -1.76326247342380     -0.61326128994424
  H   1.62257155345945     -2.04607124074387      1.10143460134024
  H   0.00667850296278     -2.35705690745948      0.45821846907921
