15
Coordinates from ORCA-job run
  C   -0.54764839871915      0.32926892525553     -0.17067864161704
  C   0.55037207958660     -0.25417395805350      0.69811004991057
  Br  -2.21126584874722     -0.66069070018533      0.04994248501093
  H   1.44019020891448      0.36310294765393      0.53564411405113
  H   0.27576260746919     -0.11811435769179      1.74560985043610
  N   -0.19816634714780      0.33967213649212     -1.54108276473073
  H   -0.91263811170301      0.76475809139806     -2.11819606592361
  H   0.70192814509499      0.78143379310945     -1.68562810436893
  N   -0.86339542055261      1.78622730369543      0.29517552690831
  O   -1.85335113895372      2.32785123267458     -0.17875651727993
  O   -0.05257168350553      2.30691891908421      1.05789778224797
  C   0.85492409216896     -1.71579413326548      0.38404978027500
  H   1.80673902915408     -1.99730283941439      0.83945091040199
  H   0.92530348850250     -1.87657309381542     -0.69198623838649
  H   0.08381729843822     -2.37658426693742      0.77944783306473
