19

C	-0.294315	0.084181	-1.509006
C	0.0	0.0	0.0
Br	-2.091697	0.784635	-1.914728
H	1.09177	0.0	0.0
C	0.769909	0.849656	-2.269487
H	0.705604	0.637198	-3.337321
H	1.728241	0.545393	-1.835296
H	0.632942	1.913128	-2.091004
N	-0.272556	-1.369383	-1.995526
O	0.839086	-1.805673	-2.276641
O	-1.310489	-2.021518	-2.008309
C	-0.563306	-1.194024	0.731135
H	-0.086886	-2.097262	0.348121
H	-0.30236	-1.110295	1.784859
H	-1.648674	-1.282758	0.641987
N	-0.40698	1.267581	0.653799
O	-0.030736	2.324243	0.147153
O	-1.066091	1.210144	1.695808
F	2.568874	0.0	0.0
