19

C	-0.257805	-0.054079	-1.502078
C	0.0	0.0	0.0
Br	0.285703	1.642905	-2.292121
H	1.091716	0.0	0.0
C	0.645042	-1.132497	-2.087695
H	0.646733	-1.08401	-3.178108
H	0.293658	-2.115787	-1.772129
H	1.640905	-0.934181	-1.668849
N	-1.70824	-0.341868	-1.893702
O	-2.112974	-1.439381	-1.505154
O	-2.367545	0.453016	-2.547509
C	-0.445146	-1.19231	0.834312
H	-0.037552	-1.04214	1.836927
H	-1.530545	-1.302245	0.883221
H	-0.007864	-2.107145	0.437038
N	-0.600407	1.199069	0.628304
O	-1.695102	1.583422	0.201142
O	-0.015845	1.69383	1.589454
F	2.599057	0.0	0.0
