19

C	-0.575816	-0.011001	-1.40743
C	0.0	0.0	0.0
Br	0.353297	-1.418794	-2.424782
H	1.088954	0.0	0.0
C	-2.064504	-0.252389	-1.528157
H	-2.308703	-1.202569	-1.051717
H	-2.368222	-0.287794	-2.572569
H	-2.597033	0.55897	-1.029535
N	-0.192529	1.266797	-2.164022
O	0.882474	1.7759	-1.895125
O	-0.981549	1.657094	-3.024079
C	-0.341846	-1.239926	0.817898
H	0.277517	-1.218054	1.713426
H	-0.072393	-2.131196	0.251408
H	-1.397379	-1.293981	1.111586
N	-0.482057	1.180864	0.736664
O	-0.247643	1.228815	1.94335
O	-1.078366	2.080309	0.125517
F	2.499271	0.0	0.0
