19

C	-0.472236	0.05379	-1.451032
C	0.0	0.0	0.0
Br	-2.401402	-0.338908	-1.676494
H	1.114444	0.0	0.0
C	-0.178992	1.368636	-2.178069
H	0.876493	1.602386	-2.033539
H	-0.800139	2.156349	-1.769036
H	-0.393147	1.270958	-3.245063
N	0.295668	-0.911524	-2.410457
O	-0.280234	-1.276905	-3.43089
O	1.506157	-0.924995	-2.245066
C	-0.422637	-1.262039	0.737004
H	-1.497621	-1.356703	0.867971
H	0.075237	-1.29738	1.707153
H	-0.055808	-2.130427	0.177037
N	-0.491257	1.295963	0.545664
O	-1.721826	1.451249	0.696138
O	0.319919	2.230283	0.576694
F	2.532406	0.0	0.0
