19

C	-0.404546	-0.009675	-1.462344
C	0.0	0.0	0.0
Br	0.298203	1.596597	-2.309723
H	1.091702	0.0	0.0
C	0.228375	-1.214348	-2.135768
H	0.094991	-1.16622	-3.218255
H	-0.234665	-2.127019	-1.760043
H	1.287146	-1.183826	-1.864689
N	-1.923187	-0.055448	-1.687217
O	-2.446607	-1.106749	-1.315063
O	-2.520631	0.881802	-2.194746
C	-0.490637	-1.151157	0.863761
H	-1.576313	-1.171936	0.97307
H	-0.020023	-1.030538	1.843231
H	-0.147741	-2.102314	0.457313
N	-0.490276	1.250118	0.657175
O	0.301899	1.909399	1.324081
O	-1.690639	1.522691	0.529911
F	2.575516	0.0	0.0
