15
Coordinates from ORCA-job run
  C   -0.63540122097288      0.24952871674142      0.05570554990478
  C   0.14821805850999     -0.35607817664699     -1.10106791200485
  Cl  -2.24956615565867      0.73112510309596     -0.52986960767427
  H   0.08097470811022      0.31364108991097     -1.96231768123129
  H   -0.35891418583230     -1.28826439726164     -1.36274503593992
  C   -0.75918755674380     -0.65674775729148      1.25368788111777
  H   -1.31861916381211     -0.17125527395475      2.04998253200841
  H   -1.28064995137670     -1.56695767110525      0.95225243712718
  H   0.24086764987718     -0.91217184068224      1.60384574230553
  N   0.05430199822108      1.55009534439857      0.47085161228019
  O   0.72642276589701      2.12252363127053     -0.38335548935447
  O   -0.13589632878629      1.94783587762044      1.61327401875423
  N   1.50810448065364     -0.63031676558130     -0.66108373427767
  H   1.86465787418656     -1.47291721188773     -1.08835845385505
  H   2.11468702772708      0.13895933137349     -0.90980185916058
