15
Coordinates from ORCA-job run
  C   -0.49145848531785      0.17738801365780      0.08783782038322
  C   0.55419281869084     -0.69226608266236     -0.59718380120028
  Cl  -1.68857844320320      0.71251986111987     -1.10484795866592
  H   0.02737009883231     -1.56070665673619     -1.01678081317050
  H   1.23367948406719     -1.04603860006386      0.18036545253735
  C   -1.19132078511476     -0.51023723716807      1.24159171865048
  H   -0.45660873756224     -0.81266204053669      1.98809273439587
  H   -1.91691144087166      0.16305552869098      1.70097755068503
  H   -1.72104140443473     -1.38936825754362      0.87213307628481
  N   0.25631056853962      1.39142482536597      0.64117974560119
  O   -0.02456944827174      2.51544146766364      0.26271824485248
  O   1.11378418005563      1.09509610334393      1.46843653724536
  N   1.31063489428080      0.09713562175361     -1.55126092528580
  H   0.79952755861736      0.20312646953233     -2.41734706236329
  H   2.19598914169241     -0.34490901641732     -1.75491231995000
