15
Coordinates from ORCA-job run
  C   -0.42707156503837      0.34037964753063      0.10598952074734
  C   0.77151919500414     -0.04667078762951     -0.75921988866060
  Cl  -1.87817299583239      0.46993821685485     -0.92643850995775
  H   0.88659850336434      0.71311281015943     -1.53828295971858
  H   1.65444044543383     -0.00265401218226     -0.11209203255772
  C   -0.69237359682445     -0.60887766827677      1.24370966653634
  H   -0.86751985219148     -1.59688974980877      0.82315775269100
  H   0.17916936017655     -0.65089698006795      1.89946183915150
  H   -1.55361288510000     -0.28672032752484      1.82615152663853
  N   -0.15083260767227      1.74908447921269      0.62859137755995
  O   -0.23976556069240      1.93676457881538      1.83825654494837
  O   0.16705653552128      2.59045091316849     -0.20542758155905
  N   0.61316055046875     -1.40861798572748     -1.24569807475188
  H   1.51316662669967     -1.78581780798861     -1.51016310135840
  H   0.02323784668281     -1.41358532653527     -2.06799607970906
