15
Coordinates from ORCA-job run
  C   -0.48729886770147      0.13362860647592      0.15973156196478
  C   0.51872252028002     -0.62445474460490     -0.69595362609112
  Cl  -1.87307502636958      0.60894643235985     -0.83758982273187
  H   1.32299292829794     -0.94569304434662     -0.03146831397902
  H   0.00840250670095     -1.51979700016380     -1.07780703980882
  C   -0.96828196090916     -0.64735081874792      1.36506478871211
  H   -0.11760202874997     -0.91287288761809      1.99307472037452
  H   -1.67394861701612     -0.05150603968914      1.94635286930888
  H   -1.47406994184418     -1.55453482534728      1.03165731028122
  N   0.23397097380398      1.38555514268221      0.66196100504949
  O   -0.18162241037794      2.49474173168143      0.37440960154918
  O   1.21586589618279      1.13308554633193      1.35439020021334
  N   1.07543010691012      0.25479050404295     -1.70656888388568
  H   0.44405245560796      0.35083537978144     -2.49054184624836
  H   1.95546146518466     -0.10637398283796     -2.04671252470865
