15
Coordinates from ORCA-job run
  C   -0.48813954166119      0.10830247425712      0.08618618412143
  C   0.52961482399267     -0.76571137635651     -0.66574880776563
  Cl  -1.78080483316440      0.59958076454269     -1.01755102031177
  H   1.23947810450569     -1.14214748416436      0.07395604427075
  H   -0.02706639016959     -1.61845282412913     -1.06418708186908
  C   -1.07664581204359     -0.56979939547492      1.30518625705233
  H   -0.27833693341581     -0.83917380059487      1.99703069404610
  H   -1.78504731518383      0.09040646113819      1.80855965538487
  H   -1.60585989929541     -1.47116407961270      0.99249607987388
  N   0.27774938768876      1.34591745051903      0.55060610186567
  O   -0.02205372953680      2.45557166895952      0.13619600541746
  O   1.19786685582757      1.08937294316077      1.32515748135641
  N   1.26670427648416     -0.13637857038938     -1.73356037821021
  H   0.64812260709245      0.28888630352258     -2.41118539343978
  H   1.90341839887932      0.56578946462196     -1.38114182179243
