15
Coordinates from ORCA-job run
  C   -0.53897541200823      0.14919143200089      0.06185179286601
  C   0.50344927475395     -0.71438261836973     -0.64267411218624
  Cl  -1.84126796076967      0.55727763341744     -1.05804691325710
  H   -0.04007260029312     -1.55128551827961     -1.08747091213773
  H   1.17378406386630     -1.11893683675976      0.12240222598180
  C   -1.10723439362036     -0.49176786955841      1.31268483367290
  H   -1.59455845090375     -1.43200476453448      1.04999667232081
  H   -0.30137439496764     -0.68829933438221      2.02311451919717
  H   -1.84549270740888      0.16628287111511      1.77328696722122
  N   0.15523115956543      1.43508070016187      0.51164916197573
  O   1.29165922981484      1.26828644129008      0.95261367415772
  O   -0.45485256817271      2.49154195891060      0.48500506034254
  N   1.18658580577760      0.04856244414991     -1.67033028334802
  H   2.07800045343123      0.38225321383093     -1.33304507787302
  H   1.33511850093501     -0.50079975299259     -2.50303760893379
