15
Coordinates from ORCA-job run
  C   -0.41657113447706      0.34021463777572      0.04457992852853
  C   0.77347777635106     -0.00700967301703     -0.87489805700816
  Cl  -1.91627503056578      0.31302960469334     -0.89526773044838
  H   0.78711208464640      0.72856078619478     -1.68461657837237
  H   1.68205427732630      0.12802481461332     -0.28302701424201
  C   -0.55142236412397     -0.56312437675011      1.25153828769673
  H   -1.36330092578703     -0.22029436239835      1.89485881860071
  H   0.37892342138836     -0.56577482894161      1.81945283532384
  H   -0.78474804414841     -1.57548336069212      0.92219979895412
  N   -0.15325941381332      1.76259849419463      0.53777911720124
  O   0.79674369186549      1.84674960065028      1.31438537444909
  O   -0.82616019408836      2.69425668105834      0.12170850011309
  N   0.77771316830226     -1.33072634238050     -1.44672193204942
  H   0.87754376831134     -2.04629598718245     -0.74033178777760
  H   -0.06283108118727     -1.50572568781823     -1.98063956096941
