15
Coordinates from ORCA-job run
  C   -0.62105295991508      0.28428446146925     -0.05142747066627
  C   0.22314954728615     -0.31594110875475     -1.20061873000854
  Cl  -2.25984338403454      0.55746774912202     -0.66591507975072
  H   -0.39967641332776     -1.09199956861168     -1.65183147680955
  H   0.34849279683953      0.46429392955755     -1.95710295164363
  C   -0.66849951089783     -0.56966641901680      1.19797944761401
  H   0.33485029036583     -0.67692720366637      1.61195552401814
  H   -1.06537158163420     -1.55536984178790      0.94827395848114
  H   -1.31826329840043     -0.11093096517231      1.94496106793376
  N   -0.03067024067651      1.63298873731754      0.36543856022084
  O   -0.76823483223451      2.57859635428883      0.59606347728934
  O   1.19381963864226      1.63259132386980      0.49259610710813
  N   1.50925155983870     -0.89157265012061     -0.89099146551446
  H   1.42128696317007     -1.71863465439627     -0.31721039154890
  H   2.09976142497830     -0.22018014409832     -0.42217057672334
