14

C	-0.60214	-0.054267	-1.409857
C	0.0	0.0	0.0
Cl	-0.007215	-1.513807	-2.19997
H	1.091947	0.0	0.0
H	-0.302063	-0.923467	0.505805
N	-2.033898	-0.023571	-1.511438
H	-2.374157	0.839139	-1.101676
H	-2.411029	-0.813946	-1.003191
N	-0.105326	1.177755	-2.185122
O	-0.799572	2.182041	-2.030312
O	0.920373	1.097677	-2.837142
C	-0.539656	1.127065	0.751542
N	-0.996819	2.032983	1.34312
Cl	3.29986	0.0	0.0
