16

C	-0.454977	0.010097	-1.444579
C	0.0	0.0	0.0
Cl	-2.226539	0.006841	-1.615697
H	1.093233	0.0	0.0
H	-0.073887	0.885132	-1.957868
N	0.094504	-1.1698	-2.205283
O	0.892284	-0.900575	-3.097651
O	-0.302012	-2.288702	-1.900286
C	-0.511688	-1.115604	0.880555
H	-0.071202	-1.006827	1.870063
H	-1.599095	-1.105763	0.969116
H	-0.192356	-2.06871	0.463345
N	-0.374511	1.344861	0.565429
O	-0.7376	1.395399	1.738663
O	-0.247298	2.323973	-0.16817
Cl	3.218299	0.0	0.0
