16

C	-0.581712	-0.039063	-1.395104
C	0.0	0.0	0.0
Cl	0.052514	-1.425069	-2.293807
H	1.089369	0.0	0.0
H	-1.667968	-0.102817	-1.402061
N	-0.270226	1.205201	-2.198339
O	-1.00667	1.401517	-3.162289
O	0.672972	1.897672	-1.846049
C	-0.465956	-1.180096	0.844089
H	-0.055939	-1.065461	1.847468
H	-1.559267	-1.232337	0.896538
H	-0.075413	-2.107228	0.425754
N	-0.496916	1.235988	0.682432
O	0.025453	1.533713	1.749029
O	-1.442997	1.84118	0.165367
Cl	3.303069	0.0	0.0
