16

C	-0.412448	-0.009498	-1.462675
C	0.0	0.0	0.0
Cl	0.216296	1.381968	-2.325489
H	1.091123	0.0	0.0
H	-0.008639	-0.913265	-1.91852
N	-1.917193	-0.120238	-1.657986
O	-2.360512	-1.252219	-1.46506
O	-2.572018	0.864959	-1.963592
C	-0.494768	-1.182246	0.81281
H	-0.038423	-1.122055	1.803166
H	-1.579591	-1.199094	0.905129
H	-0.15698	-2.10915	0.346213
N	-0.49243	1.263208	0.635958
O	0.327837	2.090399	1.016282
O	-1.718109	1.373163	0.742306
Cl	3.312707	0.0	0.0
