16

C	-0.587319	-0.046161	-1.392132
C	0.0	0.0	0.0
Cl	0.085505	-1.406497	-2.302733
H	1.089642	0.0	0.0
H	-1.670716	-0.144073	-1.394141
N	-0.319579	1.211152	-2.18972
O	0.592682	1.939294	-1.830722
O	-1.060339	1.383794	-3.15375
C	-0.456319	-1.184856	0.843932
H	-0.065421	-2.108208	0.418533
H	-0.037368	-1.072565	1.844089
H	-1.548436	-1.24073	0.905564
N	-0.506952	1.228106	0.685235
O	-1.494341	1.791974	0.197623
O	0.043951	1.555488	1.728276
Cl	3.302138	0.0	0.0
