16

C	-0.447503	-0.049965	-1.44564
C	0.0	0.0	0.0
Cl	-2.210933	-0.237132	-1.627982
H	1.09221	0.0	0.0
H	-0.155964	0.856093	-1.965153
N	0.220601	-1.171924	-2.205791
O	0.040998	-2.322302	-1.825428
O	0.88003	-0.829847	-3.181543
C	-0.507269	-1.08581	0.920937
H	-0.242281	-2.053786	0.499555
H	-1.589755	-1.033846	1.056154
H	-0.0207	-0.979738	1.88852
N	-0.381321	1.36069	0.523956
O	-0.643474	1.453794	1.72018
O	-0.368342	2.309602	-0.2587
Cl	3.212754	0.0	0.0
