16

C	-0.448992	-0.003071	-1.446484
C	0.0	0.0	0.0
Cl	-2.220025	-0.053782	-1.627091
H	1.093618	0.0	0.0
H	-0.08921	0.882634	-1.957501
N	0.133909	-1.165959	-2.209372
O	-0.195615	-2.300035	-1.879482
O	0.88837	-0.86976	-3.130982
C	-0.510689	-1.108092	0.889782
H	-0.195714	-2.064042	0.476222
H	-0.06586	-0.994065	1.876462
H	-1.597575	-1.093879	0.983835
N	-0.375989	1.350869	0.551872
O	-0.250085	2.324095	-0.189786
O	-0.74321	1.412042	1.722926
Cl	3.217147	0.0	0.0
