16

C	-0.600587	0.056811	-1.39792
C	0.0	0.0	0.0
Cl	-0.014422	-1.260868	-2.399268
H	1.092424	0.0	0.0
H	-1.688689	0.006308	-1.355645
N	-0.320808	1.385778	-2.070943
O	-1.223574	2.210007	-1.931359
O	0.734577	1.550541	-2.657611
C	-0.464232	-1.238907	0.743459
H	-0.159723	-1.157195	1.785994
H	-1.546169	-1.37424	0.703888
H	0.03856	-2.105905	0.319214
N	-0.486513	1.232084	0.707239
O	0.197136	2.246965	0.605247
O	-1.55963	1.155877	1.310432
Cl	3.300271	0.0	0.0
