16

C	-0.446415	0.06252	-1.443097
C	0.0	0.0	0.0
Cl	-2.205054	-0.149792	-1.646191
H	1.093533	0.0	0.0
H	-0.179822	1.014579	-1.886526
N	0.239171	-0.974164	-2.298522
O	0.805689	-0.542729	-3.297855
O	0.151869	-2.151305	-1.970275
C	-0.506323	-1.151929	0.839012
H	-1.581248	-1.085548	1.015434
H	-0.279351	-2.084522	0.32699
H	0.013347	-1.141464	1.794929
N	-0.3716	1.314358	0.63664
O	-0.416075	2.31814	-0.075135
O	-0.553739	1.317475	1.850897
Cl	3.21204	0.0	0.0
