13
Coordinates from ORCA-job run
  C   -0.65273482774416     -0.25801394791291     -0.12240791872732
  C   0.83508922306129     -0.50172829869806      0.15626055811381
  Cl  -1.09457178084213     -0.87744978557854     -1.74430889982337
  H   1.04560123297949     -0.33163216967014      1.21248616369122
  H   1.11936616735489     -1.50731489000890     -0.14680743618502
  N   -0.93733680578194      1.14565437811182     -0.09019482201485
  H   -0.58463163175673      1.57970369523264      0.75505558919156
  H   -1.92943341080518      1.32089489620561     -0.18720485087596
  C   -1.40746037492264     -1.06442634636312      0.85843278185357
  N   -2.00112594048821     -1.64996459276437      1.68745615947291
  N   1.66720371428298      0.46998716044313     -0.60596272630586
  O   1.97483818451351      0.16562153301124     -1.75338393583225
  O   1.96419625014884      1.50866836799160     -0.01942066255843
