13
Coordinates from ORCA-job run
  C   -0.67925283716232     -0.23535568173278     -0.19271583756230
  C   0.76372112060502     -0.19829353753725     -0.69316145907011
  Cl  -1.64448490630012     -0.80255647306288     -1.66712301460700
  H   0.84143690954256      0.47205669862344     -1.54744334482125
  H   1.11285230424840     -1.19814818446887     -0.94356278636670
  N   -1.05681415113043      1.02569639696952      0.30792460603592
  H   -0.91482902721180      1.77092470548359     -0.36224527216142
  H   -2.00193084127822      1.04186305021727      0.66797014948471
  C   -0.89332082110415     -1.25843693675948      0.83425288140816
  N   -1.10017070255027     -2.07077916172693      1.65667432722972
  N   1.64474800909693      0.34808351034442      0.37875340659412
  O   2.00784627709038      1.51507600112489      0.25828063476817
  O   1.91919866615402     -0.41213038747494      1.30239570906798
