13
Coordinates from ORCA-job run
  C   -0.63919977923611     -0.28854702624270     -0.13102027410299
  C   0.84718668699259     -0.45744730601893      0.20544834702261
  Cl  -1.00186439620211     -0.99718310865191     -1.73623162442435
  H   1.01467756169836     -0.22919945927280      1.25841294808558
  H   1.17991812026536     -1.46413662723993     -0.03914743598454
  N   -0.98018922731672      1.10225121513460     -0.17197006408236
  H   -1.97437356438099      1.23282057748436     -0.30965371013154
  H   -0.67446938728534      1.58692092589150      0.66404796142370
  C   -1.39105301476284     -1.08317657469551      0.86126580536263
  N   -1.96828602197943     -1.67004569971753      1.70092046648988
  N   1.66504841313110      0.51130724184651     -0.57549372288308
  O   2.01974863482263      0.16858018148880     -1.69823797470699
  O   1.90385597425350      1.58585565999353     -0.02834072206856
