13
Coordinates from ORCA-job run
  C   -0.67956115971518     -0.20387699675628     -0.01679149455011
  C   0.68469959676647      0.43264428988502     -0.31529031961543
  Cl  -0.85899418720533     -1.61812422908899     -1.10514235996043
  H   0.69511834595246      0.78816970657313     -1.34444365322176
  H   0.86448295222221      1.24900788000205      0.38765157539406
  N   -1.77584098193402      0.69606630496153     -0.27106945603320
  H   -1.72185540136478      1.08254350607567     -1.20597008063996
  H   -1.80995459007985      1.43730966684945      0.41866676267076
  C   -0.78687439884650     -0.65560726223459      1.37490224647057
  N   -0.93146503300297     -0.95048718078736      2.50236372134926
  N   1.82499240908185     -0.51868423248931     -0.17828817310292
  O   1.99378420047230     -1.01088204669453      0.93384784885643
  O   2.50246824765336     -0.72807940629578     -1.18043661761726
