14

C	0.0	0.0	0.0
C	-0.497957	-0.132906	-1.458192
Br	1.941585	0.0	0.0
H	0.369007	-0.068725	-2.124601
H	-0.321727	0.950989	0.414342
H	-0.334487	-0.813817	0.637728
N	-1.366064	1.011812	-1.738353
H	-2.183563	0.820455	-1.105894
H	-1.695087	0.909432	-2.695002
C	-1.182608	-1.490396	-1.644946
H	-2.080282	-1.447678	-1.019619
H	-0.524891	-2.324056	-1.365542
H	-1.467079	-1.622555	-2.696336
F	-2.992804	0.0	0.0
