14

C	0.0	0.0	0.0
C	-0.478723	-0.303633	-1.458934
Br	1.94716	0.0	0.0
H	0.406464	-0.287091	-2.105977
H	-0.322027	0.988455	0.31765
H	-0.343641	-0.733503	0.72539
N	-1.441218	0.652526	-1.978755
H	-2.225482	0.58879	-1.282767
H	-1.031684	1.581596	-1.927033
C	-1.11267	-1.688923	-1.494697
H	-0.435842	-2.454648	-1.097868
H	-2.017683	-1.603804	-0.88737
H	-1.377436	-1.944718	-2.524907
F	-2.950353	0.0	0.0
