14

C	0.0	0.0	0.0
C	-0.337474	-0.102568	-1.534712
Br	1.951665	0.0	0.0
H	0.524662	0.322393	-2.0718
H	-0.339411	0.942016	0.42127
H	-0.380992	-0.832084	0.583905
N	-1.513663	0.59918	-1.978847
H	-1.306621	1.593482	-1.980648
H	-2.251619	0.399859	-1.239826
C	-0.501706	-1.57744	-1.871257
H	0.341654	-2.18502	-1.529639
H	-1.420861	-1.897155	-1.37664
H	-0.633264	-1.714818	-2.946735
F	-2.93027	0.0	0.0
