10
Coordinates from ORCA-job run
  C   -0.65024436508110     -0.36087808345638     -0.09551689695695
  C   0.64914735944900      0.42330564019940      0.12923478522151
  Cl  -0.55928297323060     -1.30377573816130     -1.60453926974445
  H   0.53074998284073      1.07074039219649      1.00365401602006
  H   -0.80357586307764     -1.07706096510102      0.71460497953086
  H   0.84438822957754      1.05854124787425     -0.73812129330481
  C   -1.78560615447172      0.55652281803285     -0.14081743401008
  N   -2.68188692804745      1.31504614216657     -0.15550016181406
  C   1.77957172129327     -0.47521822100293      0.34834009309593
  N   2.67673899074796     -1.20622323274793      0.53966118196199
