10
Coordinates from ORCA-job run
  C   -0.66493694904405     -0.34337302722600      0.08088885674624
  C   0.66425521647294      0.40853633664736     -0.06804288248887
  Cl  -0.72267555920702     -1.73865868422343     -1.02533617613548
  H   0.79684794640889      0.70688275586414     -1.11082076778837
  H   -0.76283696199011     -0.73997843759755      1.09361675457645
  H   0.63260256760475      1.31618106320062      0.54260179271320
  C   -1.77924543908254      0.56166532829592     -0.18793436999886
  N   -2.65142977074018      1.31978840063619     -0.39566167688656
  C   1.79304057946741     -0.41507449048058      0.35680115681737
  N   2.69437837010991     -1.07496924511667      0.71488731244488
