10
Coordinates from ORCA-job run
  C   -0.73385501141063     -0.15739850732108      0.04864292164630
  C   0.74839235940619      0.22549986647969     -0.05199929338929
  Cl  -1.00419546439845     -1.79279483782877     -0.60490059716458
  H   1.07354429083253      0.14574875887216     -1.09223451115360
  H   -1.04786883185629     -0.17993248785313      1.09432594998315
  H   0.87205538334961      1.26624647998147      0.26296713030695
  C   -1.54848727718414      0.81575012490220     -0.67395158713073
  N   -2.17801912577200      1.62322558130226     -1.24860715352779
  C   1.57884191753819     -0.63260226553792      0.78910108055200
  N   2.24059175949500     -1.31574271299688      1.47565605987760
