10
Coordinates from ORCA-job run
  C   -0.78852818952737     -0.24715243520205      0.18981442703410
  C   0.72450979628634     -0.50086138426953      0.16937036686315
  Cl  -1.64354864417253     -1.80593718752473      0.04320034310808
  H   1.00663583921515     -0.95154739424277     -0.78533786891187
  H   -1.08279148448157      0.18672101593346      1.14738073325546
  H   0.97528521742354     -1.20839344843451      0.96358664683727
  C   -1.19436452509788      0.65144532498097     -0.88659413248009
  N   -1.50065995118763      1.38055357824430     -1.75464866802139
  C   1.46340478633071      0.74370184653780      0.37076634117232
  N   2.03905715521124      1.75147008397706      0.54346181114297
