10
Coordinates from ORCA-job run
  C   -0.77684733057699     -0.31678196991267      0.12554940727215
  C   0.74900196067755     -0.47956709999935      0.10849886213586
  Cl  -1.53513926473588     -1.87890368336338     -0.28375148245784
  H   1.02560897910811     -1.28813746400846      0.78961447048158
  H   -1.11404381486839     -0.05492098681238      1.13026699246741
  H   1.07522961826551     -0.75830908782662     -0.89639332856007
  C   -1.21319298206621      0.71442646578683     -0.81096030192298
  N   -1.53629055781008      1.55258016549527     -1.56719036633739
  C   1.40775747337923      0.75664954335276      0.52463817603185
  N   1.91791591862717      1.75196411728797      0.87972757088942
