10
Coordinates from ORCA-job run
  C   -0.74949195064831     -0.45837939390869     -0.08463732248458
  C   0.64838928251947     -0.36074280113870      0.53564685967199
  Cl  -0.66384030650257     -1.21000060783324     -1.69779509575057
  H   1.08123024202409     -1.36303203448832      0.58480739104271
  H   -1.36460267809818     -1.11470503798309      0.53505366593304
  H   0.55665048619857      0.02190877280899      1.55705952101591
  C   -1.39135227341558      0.85056448582311     -0.16544283237391
  N   -1.90128303687835      1.90789361030431     -0.19472947332150
  C   1.53436573649405      0.51276144853854     -0.22923455100692
  N   2.24993449830680      1.21373155787709     -0.83972816272616
