10
Coordinates from ORCA-job run
  C   -0.76053383004575     -0.37602793468246      0.02937478590935
  C   0.77017411310297     -0.45719300978780     -0.03696051381913
  Cl  -1.45708393550872     -1.77985148156182     -0.82310984359553
  H   1.09121991732285     -1.41744393949116      0.37428301535217
  H   -1.09456922985962     -0.43788498969312      1.06690130225374
  H   1.09398827593103     -0.41160606109547     -1.07961253152871
  C   -1.25497125775450      0.86499975376516     -0.55891865572189
  N   -1.62514375273685      1.87336528515004     -1.03352680486790
  C   1.38234980452073      0.63038258955198      0.72278024973062
  N   1.85456989502786      1.51025978784463      1.33878899628725
