17

C	0.0	0.0	0.0
C	-0.377032	0.064152	-1.557116
Br	1.906041	0.0	0.0
H	0.540861	-0.22176	-2.067635
N	-0.342393	1.28733	0.872627
O	-1.366365	1.896665	0.580938
O	0.417883	1.577914	1.780521
N	-0.652206	-1.13124	0.660313
O	-0.666063	-1.107909	1.911581
O	-0.592811	-2.212554	-0.00949
N	-0.56697	1.51804	-1.940085
O	-1.62239	1.851112	-2.465773
O	0.379043	2.267634	-1.709925
N	-1.435398	-0.703308	-2.130199
H	-2.314138	-0.353439	-1.766537
H	-1.306624	-1.635795	-1.739833
H	-1.98878	0.0	0.0
