16

C	-0.344044	-0.112485	-1.488005
C	0.0	0.0	0.0
Br	0.102798	1.63918	-2.391255
H	1.09775	0.0	0.0
N	0.457109	-1.183701	-1.966802
H	0.369706	-1.300349	-2.967672
H	1.434014	-1.02166	-1.71029
C	-1.757027	-0.356274	-1.790077
N	-2.861159	-0.613941	-2.100378
N	-0.558325	-1.135787	0.719497
H	-0.40732	-1.954315	0.13647
H	0.018734	-1.261375	1.546548
N	-0.563116	1.20821	0.66486
O	-1.617063	1.674067	0.232867
O	0.032229	1.587934	1.67137
Cl	3.291674	0.0	0.0
