16

C	-0.370413	0.078244	-1.486106
C	0.0	0.0	0.0
Br	-2.373639	0.353352	-1.661381
H	1.093681	0.0	0.0
N	0.32302	1.125019	-2.147995
H	1.239407	1.260058	-1.721448
H	0.415207	0.945988	-3.140369
C	-0.152239	-1.249487	-2.082711
N	0.059699	-2.231283	-2.695896
N	-0.515408	-1.164406	0.616953
H	-1.446888	-0.997511	0.976717
H	0.097535	-1.44083	1.373204
N	-0.420896	1.288427	0.69415
O	0.163247	2.317125	0.3693
O	-1.310491	1.211684	1.545841
Cl	3.225464	0.0	0.0
