16

C	-0.456016	-0.016127	-1.464297
C	0.0	0.0	0.0
Br	-2.662725	0.107065	-1.311864
H	1.093252	0.0	0.0
N	0.072408	0.916301	-2.296183
H	0.165333	1.838543	-1.899845
H	-0.145978	0.847115	-3.276836
C	-0.353372	-1.359655	-2.019632
N	-0.243903	-2.435139	-2.482303
N	-0.429206	-1.088137	0.778579
H	0.28715	-1.792346	0.860397
H	-1.337767	-1.456337	0.541244
N	-0.402586	1.324847	0.648799
O	-0.793744	1.3139	1.803868
O	-0.250821	2.346406	-0.029111
Cl	3.199187	0.0	0.0
