16

C	-0.544768	-0.027181	-1.441507
C	0.0	0.0	0.0
Br	0.312961	-1.552521	-2.337529
H	1.090523	0.0	0.0
N	-1.972059	-0.28885	-1.455611
H	-2.428918	0.539331	-1.089189
H	-2.28005	-0.450667	-2.406477
C	-0.155519	1.156402	-2.219343
N	0.0654	2.119508	-2.857376
N	-0.476591	-1.081457	0.799791
H	0.274953	-1.739	0.949309
H	-1.27597	-1.525187	0.366636
N	-0.446538	1.287787	0.669969
O	-1.386372	1.926273	0.173065
O	0.129812	1.590589	1.701525
Cl	3.264698	0.0	0.0
