16

C	-0.616805	0.052534	-1.409063
C	0.0	0.0	0.0
Br	0.1292	-1.597143	-2.348053
H	1.091107	0.0	0.0
N	-2.023467	0.02224	-1.284264
H	-2.48502	-0.052472	-2.181098
H	-2.264397	-0.759962	-0.683348
C	-0.201609	1.150755	-2.278796
N	0.049775	2.020546	-3.028587
N	-0.538135	-1.145384	0.698482
H	0.224873	-1.791022	0.855408
H	-0.878574	-0.828775	1.600363
N	-0.414196	1.270529	0.713377
O	-0.164623	2.322658	0.139581
O	-0.950397	1.180636	1.818389
Cl	3.236484	0.0	0.0
