16

C	-0.536909	-0.010728	-1.442693
C	0.0	0.0	0.0
Br	0.278622	-1.560388	-2.339194
H	1.091724	0.0	0.0
N	-1.970583	-0.237774	-1.461747
H	-2.28039	-0.368133	-2.418121
H	-2.404596	0.597506	-1.081405
C	-0.117789	1.162703	-2.220936
N	0.108278	2.097861	-2.897051
N	-0.490285	-1.082848	0.787959
H	-1.267126	-1.540696	0.329768
H	0.262131	-1.727563	0.980813
N	-0.437425	1.28997	0.681527
O	0.090551	1.53798	1.751724
O	-1.320454	1.980583	0.151779
Cl	3.260317	0.0	0.0
