16

C	-0.590288	0.0145	-1.413761
C	0.0	0.0	0.0
Br	-0.053213	-1.650381	-2.294637
H	1.092806	0.0	0.0
N	-2.045928	0.026735	-1.348209
H	-2.326239	0.979454	-1.138067
H	-2.423113	-0.226558	-2.2539
C	-0.045674	1.085979	-2.261668
N	0.280934	1.933416	-3.008513
N	-0.4622	-1.112692	0.741587
H	0.085546	-1.222558	1.581448
H	-1.452016	-1.06251	0.935165
N	-0.3792	1.324437	0.692044
O	-0.936449	2.221304	0.049386
O	-0.099212	1.397318	1.883155
Cl	3.263264	0.0	0.0
