15

C	0.0	0.0	0.0
C	-0.418519	0.193021	-1.513689
Br	1.994855	0.0	0.0
H	0.486989	0.176866	-2.124425
H	-0.296887	0.889832	0.554532
N	-0.504417	-1.181501	0.600862
H	0.150866	-1.943213	0.649157
H	-0.986139	-1.028679	1.470816
N	-0.972662	1.536088	-1.609074
H	-1.196894	1.698081	-2.585938
H	-1.866403	1.5306	-1.11614
N	-1.32533	-0.814217	-2.038337
H	-2.242855	-0.623256	-1.634453
H	-1.069595	-1.716817	-1.649961
Br	-3.950959	0.0	0.0
