15

C	0.0	0.0	0.0
C	-0.530116	0.275003	-1.400164
Br	1.953041	0.0	0.0
H	-1.608674	0.394087	-1.236705
H	-0.24799	0.869152	0.614646
N	-0.510389	-1.25984	0.475262
H	-1.531661	-1.181666	0.40953
H	-0.279511	-1.373294	1.455414
N	-0.224237	-0.852262	-2.286311
H	-1.007973	-0.973662	-2.918727
H	-0.183936	-1.689034	-1.710619
N	-0.021268	1.542982	-1.895121
H	0.862412	1.348798	-2.354599
H	-0.660583	1.887271	-2.60154
Br	-3.851171	0.0	0.0
