15

C	0.0	0.0	0.0
C	-0.300731	0.026667	-1.520956
Br	2.055675	0.0	0.0
H	0.366986	0.772231	-1.974188
H	-0.224488	0.962845	0.457906
N	-0.572196	-1.0614	0.701069
H	-0.770891	-1.816976	0.05435
H	-1.413913	-0.77871	1.187301
N	-1.64868	0.393399	-1.861957
H	-1.821418	1.367965	-1.64866
H	-2.351363	-0.120935	-1.330368
N	-0.085801	-1.323362	-2.031185
H	0.904675	-1.512162	-2.121105
H	-0.523496	-1.363843	-2.942765
Br	-4.386391	0.0	0.0
