15

C	0.0	0.0	0.0
C	-0.415338	0.353377	-1.444569
Cl	1.795355	0.0	0.0
H	-0.405568	1.449411	-1.481633
H	0.381725	0.007739	-2.105445
N	-0.547296	0.938194	0.933457
H	-0.434341	0.600079	1.883478
H	-1.550414	1.006491	0.746577
C	-0.326559	-1.411051	0.304261
N	-0.559933	-2.527933	0.581383
C	-1.743097	-0.221348	-1.922929
H	-2.597739	0.00315	-1.281076
H	-1.957017	0.175947	-2.919426
H	-1.679293	-1.308695	-2.007808
Cl	-4.576121	0.0	0.0
