15

C	0.0	0.0	0.0
C	-0.4005	0.326011	-1.455489
Cl	1.795515	0.0	0.0
H	-0.341852	1.417688	-1.526976
H	0.379037	-0.080823	-2.10352
N	-0.549284	0.958609	0.911231
H	-0.439439	0.643133	1.869314
H	-1.551952	1.02387	0.724485
C	-0.335139	-1.403452	0.32969
N	-0.581439	-2.513734	0.626058
C	-1.749606	-0.21011	-1.909177
H	-1.959894	0.154578	-2.919458
H	-1.730839	-1.302734	-1.94828
H	-2.592065	0.065131	-1.271825
Cl	-4.579792	0.0	0.0
