15

C	0.0	0.0	0.0
C	-0.463246	0.551469	-1.359808
Cl	1.802175	0.0	0.0
H	0.083394	0.024556	-2.147538
H	-1.525603	0.300592	-1.433369
N	-0.482803	0.659872	1.181176
H	-0.288172	1.651707	1.092689
H	-1.503656	0.542873	1.161141
C	-0.355332	-1.430847	0.083303
N	-0.570586	-2.582741	0.151974
C	-0.284211	2.057567	-1.494718
H	-0.975629	2.591452	-0.840438
H	-0.517339	2.361225	-2.517621
H	0.741365	2.373962	-1.276159
Cl	-3.541371	0.0	0.0
