17

C	-0.4837	0.006133	-1.447547
C	0.0	0.0	0.0
F	0.163529	-0.88378	-2.229287
H	1.093074	0.0	0.0
N	-1.974703	-0.462785	-1.504022
O	-2.387094	-0.911232	-2.566606
O	-2.665207	-0.224174	-0.513475
N	-0.372888	1.288262	-1.984564
H	-0.835654	1.400247	-2.873678
H	-0.562018	2.000879	-1.295373
N	-0.398819	-1.294957	0.681189
O	-0.503061	-2.301818	-0.011735
O	-0.550674	-1.252312	1.899021
N	-0.434169	1.156789	0.71307
H	-1.361637	1.013027	1.093593
H	0.218761	1.345624	1.463049
Br	3.402275	0.0	0.0
