17

C	-0.552211	0.018001	-1.415545
C	0.0	0.0	0.0
F	0.132859	1.000566	-2.104783
H	1.092711	0.0	0.0
N	-0.135599	-1.251583	-2.192766
O	-0.875762	-1.578223	-3.120598
O	0.918897	-1.781546	-1.885013
N	-1.92457	0.261963	-1.499035
H	-2.305807	-0.173532	-2.329193
H	-2.404089	-0.045475	-0.666451
N	-0.441478	-1.22898	0.741311
O	-0.089105	-1.288658	1.912453
O	-1.132096	-2.072108	0.163023
N	-0.554441	1.124376	0.740303
H	-0.500308	1.938408	0.137815
H	0.07539	1.291911	1.519213
Br	3.474002	0.0	0.0
