17

C	-0.57174	-0.007488	-1.418062
C	0.0	0.0	0.0
F	-0.160971	1.202243	-1.987391
H	1.095153	0.0	0.0
N	0.064526	-1.015734	-2.364796
O	-0.68167	-1.587331	-3.151055
O	1.27093	-1.135439	-2.29074
N	-1.951053	-0.182778	-1.411706
H	-2.323911	-0.203794	-2.35143
H	-2.358179	0.541783	-0.837141
N	-0.399101	-1.27347	0.676895
O	-0.804584	-1.214109	1.833832
O	-0.261266	-2.302369	0.022375
N	-0.590871	1.139329	0.681163
H	0.045366	1.913406	0.542125
H	-0.595811	0.919547	1.671103
Br	3.401061	0.0	0.0
