18

C	0.0	0.0	0.0
C	-0.443599	0.084545	-1.506326
Cl	1.849096	0.0	0.0
H	0.453398	-0.119446	-2.100647
N	-0.519123	1.085124	0.765038
H	-0.312162	0.8587	1.735403
H	-1.538541	0.888123	0.652556
N	-0.324524	-1.302194	0.582617
H	-0.776698	-1.852827	-0.14097
H	0.512843	-1.775434	0.891484
C	-0.978708	1.470264	-1.864553
H	-1.936583	1.5904	-1.363007
H	-0.298154	2.273535	-1.571627
H	-1.137534	1.515009	-2.948568
N	-1.412439	-0.977649	-1.791596
H	-2.246449	-0.716065	-1.215309
H	-1.641875	-0.927325	-2.777926
F	-2.976477	0.0	0.0
