18

C	0.0	0.0	0.0
C	-0.496386	0.152934	-1.436156
Cl	1.86441	0.0	0.0
H	-1.581291	0.254187	-1.236305
N	-0.33115	1.208636	0.719204
H	-0.145405	1.988918	0.097882
H	0.257707	1.289699	1.538434
N	-0.564029	-1.172837	0.567151
H	-1.596408	-0.90419	0.44905
H	-0.378135	-1.150494	1.5667
C	-0.220124	-1.080027	-2.282069
H	-0.644216	-1.965903	-1.810884
H	0.857704	-1.23595	-2.40706
H	-0.670169	-0.954738	-3.27348
N	0.012403	1.400769	-2.015376
H	0.930084	1.235186	-2.416838
H	-0.608164	1.679651	-2.765417
F	-2.90154	0.0	0.0
