18

C	0.0	0.0	0.0
C	-0.246398	-0.263434	-1.562364
Cl	1.851369	0.0	0.0
H	0.577909	-0.910094	-1.879044
N	-0.418353	1.33109	0.384883
H	0.315933	1.878937	0.811683
H	-1.2517	1.267842	0.948432
N	-0.570363	-1.038461	0.78059
H	-1.58549	-0.906629	0.572536
H	-0.442288	-0.777536	1.75591
C	-0.137444	1.065438	-2.313073
H	0.780181	1.61113	-2.080021
H	-0.987429	1.692871	-2.045664
H	-0.153403	0.871591	-3.393138
N	-1.488539	-0.973732	-1.843788
H	-2.251108	-0.538391	-1.246454
H	-1.688245	-0.836652	-2.827493
F	-2.986204	0.0	0.0
