18

C	0.0	0.0	0.0
C	-0.432293	-0.213396	-1.464198
Cl	1.817303	0.0	0.0
H	-1.5229	-0.140572	-1.361093
N	-0.455765	1.264943	0.521014
H	-0.239918	1.962826	-0.186384
H	-1.479805	1.112853	0.486877
N	-0.502664	-1.093034	0.784966
H	-0.321615	-0.840505	1.752923
H	-1.526682	-0.966849	0.63716
C	-0.046451	-1.574166	-2.030016
H	-0.387319	-2.374646	-1.373787
H	1.039849	-1.658232	-2.13741
H	-0.500742	-1.704458	-3.019662
N	0.031019	0.914639	-2.281687
H	0.98784	0.741162	-2.571965
H	-0.538448	0.956923	-3.118274
F	-2.864502	0.0	0.0
