16
Coordinates from ORCA-job run
  C   -0.88360851574177      0.34329079844322     -0.24931113072609
  C   0.45829119425833     -0.39938526101960     -0.08412560384341
  Br  -1.19353167160251      1.44205053747954      1.46841087444968
  H   0.56299980917963     -0.93298793739481     -1.03690951077053
  C   -0.81908619678402      1.35617561319867     -1.29962904773175
  N   -0.74630356609746      2.14166222671742     -2.17088938496258
  N   -1.90581984552092     -0.58133384161308     -0.49338429778118
  H   -1.84275604988738     -1.33351929742825      0.18460979453450
  H   -2.82796369936854     -0.16917532940956     -0.53047924734047
  N   0.26433738476258     -1.41032175248874      0.94996017782192
  H   0.42388085521453     -1.00047144008173      1.86361210459818
  H   0.92661117163211     -2.16508187177474      0.82371936160550
  C   1.66222179905514      0.51236367607807      0.10665158630075
  H   2.57245935177592     -0.09223375420362      0.08772212364087
  H   1.73638411284483      1.25984890215325     -0.68685947019687
  H   1.61288386627950      1.03011873134397      1.06590167040147
