16
Coordinates from ORCA-job run
  C   -0.74418754790848      0.46956238815285     -0.45915788300129
  C   0.69479695435895     -0.04336719050218     -0.25982917681080
  Br  -0.67167326987824      2.50399295472675     -0.55702244736695
  H   1.30162102753407      0.42181122573641     -1.04189762777760
  C   -1.25867422758682      0.06709715955562     -1.76810273304618
  N   -1.70869667387459     -0.21975612697327     -2.81431617620247
  N   -1.60319215094662     -0.00299392667918      0.56368609902277
  H   -1.37058891447334      0.40909961876126      1.45852280133082
  H   -2.57782555186267      0.17553716894771      0.35645237296004
  N   0.64078729083254     -1.47174732145429     -0.53843020409776
  H   1.57559295922387     -1.84743961979484     -0.63693201092625
  H   0.17217736012373     -1.95308257143207      0.21958558620397
  C   1.26734314050232      0.31773412043616      1.10978122808020
  H   2.31090005600421     -0.00307677104841      1.15148573813157
  H   1.23591444450257      1.39004584684564      1.31104552492572
  H   0.73570510344849     -0.21541695527815      1.90312890857420
