16
Coordinates from ORCA-job run
  C   -0.65841819526712      0.59493974209902     -0.50311067450110
  C   0.63102613767279     -0.21199731583101     -0.22327002577062
  Br  -0.20752768737756      2.35430298089295     -1.26063959350565
  H   1.19151508133868     -0.24794368116178     -1.16774248404470
  C   -1.41431580364847     -0.09979220405846     -1.56126047115875
  N   -2.02281711276989     -0.71587439796872     -2.35766449158641
  N   -1.38801023807540      0.77842543987994      0.71706372148327
  H   -2.30618093325210      1.16867048682937      0.54228271104340
  H   -1.47751070752769     -0.13943707037997      1.14567083940395
  N   0.17532961092111     -1.52771425999144      0.22972193335710
  H   -0.05149278289361     -2.12408702488891     -0.55761894642238
  H   0.90145026568397     -1.98289406678374      0.76826415463704
  C   1.49126053866555      0.42432161893184      0.85589459666549
  H   2.41486055400369     -0.15125071709492      0.96504160068683
  H   1.75907955871226      1.44801290625066      0.59877170353150
  H   0.96175171381378      0.43231756327520      1.80859542618104
