16
Coordinates from ORCA-job run
  C   -0.86734510518773      0.33145427060676     -0.31417465688629
  C   0.45468715155086     -0.41116012618607     -0.03096820405043
  Br  -1.22602983353931      1.58069279909457      1.28787089075170
  H   0.58752458347114     -1.02715481964073     -0.92893629965080
  C   -0.74545647805697      1.24820249526428     -1.44468194545062
  N   -0.62535907263320      1.95389389684938     -2.37684731977447
  N   -1.89448588868630     -0.59737709936074     -0.51760492583598
  H   -2.80767197244989     -0.17805258572888     -0.62593867920723
  H   -1.86966148944971     -1.28854579798459      0.22470244459000
  N   0.20359080287057     -1.32552777036007      1.07803475255106
  H   0.33334493740737     -0.83969156611493      1.95852313679167
  H   0.85780753358369     -2.09688490692889      1.04467265543624
  C   1.66475301241811      0.49817384591493      0.12950042856249
  H   1.58670977283173      1.09541417769099      1.03944497107073
  H   1.78101378985306      1.17545848118385     -0.72002120044578
  H   2.56557825601660     -0.11689529429985      0.19742395154769
