16
Coordinates from ORCA-job run
  C   -0.86572833249150      0.35695508248446     -0.28992348227198
  C   0.44333733964681     -0.42187649849935     -0.04603641287100
  Br  -1.15542735917130      1.59519491341896      1.33347589153133
  H   0.54017232384155     -1.03032442334643     -0.95375804293744
  C   -0.74680983463696      1.28319677429560     -1.41300990914054
  N   -0.63089930870283      1.99599976302635     -2.34032916846404
  N   -1.91998026757662     -0.54371339624720     -0.48084990433667
  H   -1.89601957490734     -1.24419520841902      0.25274579834120
  H   -2.82469036602965     -0.10083544624645     -0.56463280758582
  N   0.19469957441384     -1.34338500629194      1.05780118611267
  H   0.82885666045104     -2.12999278040615      1.00038305688488
  H   0.35680910403206     -0.87156555420611      1.94060375909595
  C   1.67934037362810      0.45481323838821      0.09703149440252
  H   2.56593857610487     -0.18311279450135      0.13428520586989
  H   1.79187610696574      1.14126376484691     -0.74557890574983
  H   1.63852498443217      1.04057757170351      1.01679224111887
