16
Coordinates from ORCA-job run
  C   -0.69760769510211      0.68399450908634     -0.45567484699267
  C   0.59461688547565     -0.15786062020218     -0.26614181374584
  Br  -0.21241293408361      2.55725352032118     -0.78473856474207
  H   1.23203666532636      0.02443802146549     -1.14322087176266
  C   -1.35918895190589      0.20291643497522     -1.67593814406692
  N   -1.83285326941523     -0.25449796254912     -2.64916341589705
  N   -1.64043484565766      0.64195935418374      0.63609961155977
  H   -1.75390388906547     -0.33841084808067      0.88460265290382
  H   -1.26077191719355      1.14072059739491      1.43267739506095
  N   0.13256719386769     -1.54100252348095     -0.15792075001045
  H   0.82733516670271     -2.10983229377122      0.30959122737557
  H   -0.03210610493559     -1.94070729951504     -1.07445645404076
  C   1.35204776575907      0.21266848898926      0.99717048202487
  H   0.76371468362013     -0.04474184543926      1.88070853397821
  H   2.28708240747320     -0.35195628128798      1.04080638306396
  H   1.60087883913428      1.27305874791026      1.02559857529127
