16
Coordinates from ORCA-job run
  C   -0.75374818711447      0.42832929604191     -0.48304634693492
  C   0.67230453782519     -0.12266759961353     -0.29313079520553
  Br  -0.60095809189893      2.41158652500250     -0.92565116097035
  H   1.24149465501835      0.17533085323744     -1.17817487075673
  C   -1.37977184848505     -0.15559138463014     -1.66971777124907
  N   -1.91917514903532     -0.58585638088441     -2.62036989903935
  N   -1.55567460350524      0.17769085569579      0.65799259253928
  H   -1.24135474203831      0.71828433384775      1.45406544261594
  H   -2.53437873603812      0.37201768452832      0.48686650699355
  N   0.53754617295704     -1.57237690224442     -0.32662152894868
  H   1.44629727117127     -2.00827064734024     -0.42098817760100
  H   0.10558973438238     -1.89783564082551      0.52982790087243
  C   1.35523200667837      0.42525334671855      0.95888339342765
  H   2.38591194790954      0.06393588688087      0.98599674531203
  H   0.86093283565620      0.05401183114277      1.86107815944032
  H   1.37975219651711      1.51615794244237      0.98298980950443
