16
Coordinates from ORCA-job run
  C   -0.98832822596109      0.08954315505985     -0.04686228585075
  C   0.33838621754727     -0.55421755088466      0.38649392567783
  Br  -2.41168279429568     -0.51873009390010      1.17059916727715
  H   0.15603250666299     -1.63769813232621      0.33416752011682
  C   -0.91796986746217      1.55308084566914      0.08706469354021
  N   -0.85947080911516      2.72738933660445      0.06383045453718
  N   -1.36504567514407     -0.35708178126588     -1.37314372443187
  H   -2.31772117429171     -0.07367453483442     -1.57430910907491
  H   -0.76256061749127      0.09285194573813     -2.05533837255064
  N   0.68463122355790     -0.06067725592304      1.70889144811306
  H   0.09974265181892     -0.48761249521459      2.41646002885527
  H   1.64809093711286     -0.28554620487108      1.92203216906249
  C   1.45261136656691     -0.18415420714321     -0.58516087922456
  H   1.26033806479692     -0.56974977677217     -1.58702559126689
  H   1.59153699268048      0.89936502770439     -0.61977526746110
  H   2.39040920301689     -0.63308827764059     -0.24692417731929
