16
Coordinates from ORCA-job run
  C   -0.80268968549556      0.28660214320778     -0.28337513149244
  C   0.57230223946519     -0.39161984588405     -0.02323692844687
  Br  -1.20768156527234      1.52897526786454      1.28466378056746
  H   0.73679500234579     -0.96495242189229     -0.94412461299048
  C   -0.74295054187568      1.16450139632517     -1.44879077709855
  N   -0.68856618959365      1.83778020547068     -2.41082519811631
  N   -1.81583837220970     -0.68253978971260     -0.46651613879382
  H   -1.92673148718837     -1.24345846515435      0.36855605937040
  H   -2.70615179031687     -0.26675713606923     -0.71000993687437
  N   0.57153535258553     -1.33568370036367      1.07145847943595
  H   0.28491330827744     -0.90017083851559      1.93960260110549
  H   0.00840318038890     -2.15387649680508      0.88516839399557
  C   1.70947678949820      0.60218350952832      0.14850826765052
  H   1.63422196507663      1.12018619461198      1.10580850462717
  H   1.72400184654163      1.34844256773625     -0.64841298988768
  H   2.64995994777285      0.05038740965213      0.13252562694794
