16
Coordinates from ORCA-job run
  C   -0.75778113792919      0.64041883984888     -0.42078039010966
  C   0.63188456202780     -0.02541702204604     -0.22255123794754
  Br  -0.55098639891391      2.59260118571637     -0.41851042100378
  H   1.30157151974425      0.38586408935312     -0.99136088771480
  C   -1.23422729251586      0.27290777448166     -1.76078112358857
  N   -1.55016047145721     -0.08327198237822     -2.83522306677750
  N   -1.76732829070903      0.28763248763973      0.54817680235503
  H   -1.53784149739589      0.70132651667823      1.44447485778942
  H   -1.74388525726543     -0.72585780829903      0.63678199078816
  N   0.38812749785542     -1.45993032864433     -0.36813307430106
  H   1.12440079483836     -1.99056477375952      0.08043488846478
  H   0.36329138636964     -1.72602793346257     -1.34566845787752
  C   1.21561934459211      0.24168152713264      1.15395078461716
  H   1.28806370791725      1.30822138520805      1.36450144721666
  H   2.22243395040222     -0.18012701376588      1.21145236636883
  H   0.60681758243947     -0.23845694370309      1.92323552172041
