16
Coordinates from ORCA-job run
  C   -0.71118521049250      0.56540826250083     -0.31450907420819
  C   0.73399713621522     -0.00794580336621     -0.28735826758597
  Br  -0.66827894632701      2.52574915091459     -0.40271197221344
  H   1.23658474261179      0.39928727995090     -1.17146406116388
  C   -1.36378415586922      0.12673483606909     -1.56104264181972
  N   -1.87686268802113     -0.31037711652550     -2.52529202054160
  N   -1.44013972381403      0.19218290684608      0.87700848430928
  H   -1.54221521718817     -0.81768205022408      0.89144273231445
  H   -2.36890765675146      0.59852497034567      0.86432372523453
  N   0.75726544656868     -1.45546375748621     -0.39859334081506
  H   0.44221847083200     -1.91135544813414      0.44732887414167
  H   0.24672297606875     -1.80441865898367     -1.19967573525613
  C   1.49336769977132      0.40410944181784      0.96363143413822
  H   1.57203030559207      1.48689463356459      1.04935025474809
  H   2.49596850505055     -0.02224536741662      0.91073019700922
  H   0.99221831575314      0.02959672012686      1.85783141170853
