16
Coordinates from ORCA-job run
  C   -0.64890875807305      0.60132418219725     -0.37774355767724
  C   0.69900728382208     -0.17257140043861     -0.32022819669616
  Br  -0.33792391204894      2.48249791411027     -0.84716557792490
  H   1.17825804045444     -0.01405817409395     -1.29245823346570
  C   -1.45769794640330      0.04789263713579     -1.47835662645416
  N   -2.10628433335069     -0.47296925574455     -2.31060422776131
  N   -1.32094595457042      0.57024812508896      0.90113512984726
  H   -2.18604608460979      1.09714327533583      0.85949459601153
  H   -1.55237959668046     -0.39278210093604      1.12345229946150
  N   0.51015533318275     -1.60233706704544     -0.15363287462949
  H   -0.10652156336206     -2.00875788539580     -0.84545888358930
  H   0.20440178763725     -1.84489045808248      0.77922858475035
  C   1.60915111771583      0.33868921528409      0.78502227072447
  H   1.84012561141405      1.39555128890764      0.66020572381473
  H   2.53687732329962     -0.23438907774683      0.75686765929079
  H   1.13873165157270      0.20840878142386      1.76124191429762
