16
Coordinates from ORCA-job run
  C   -0.85251273900989      0.40785062704062     -0.14961785112524
  C   0.49366897049409     -0.37686465075553     -0.03408176678322
  Br  -1.09081664278443      1.51552767970572      1.46956002746852
  H   0.53418257436890     -0.94062358011392     -0.97756974064467
  C   -0.79505208690753      1.31597340812343     -1.29661630913349
  N   -0.70887841020087      1.98654915014701     -2.25810392518472
  N   -2.04192034123228     -0.39948450366023     -0.27403945890175
  H   -2.03403365215468     -0.90058807524618     -1.15654349994609
  H   -2.10270945147276     -1.05550272146222      0.49512469434983
  N   0.53641911099105     -1.34491887697063      1.03982639866833
  H   -0.17151279557895     -2.06081533990562      0.94498411275657
  H   0.43475130811832     -0.89082422004095      1.93973460433753
  C   1.71534209473533      0.52505428891219      0.04485834148225
  H   1.72927362008233      1.26615630051005     -0.75615682522412
  H   2.60922581026966     -0.09503441339244     -0.03175167552670
  H   1.74557263028169      1.05054492710869      1.00139287340698
