16
Coordinates from ORCA-job run
  C   -0.86694181086131      0.35959063364664     -0.28278854411549
  C   0.44239707950222     -0.42248096149731     -0.05083006762645
  Br  -1.14394179660760      1.59211048585281      1.34809893599920
  H   0.53188427391372     -1.02688194341590     -0.96187455848391
  C   -0.75337182287896      1.29061642792719     -1.40245129726939
  N   -0.64183376888692      2.00753975588486     -2.32710461742358
  N   -1.92416863793171     -0.53776309648221     -0.46980191851516
  H   -1.89737987874527     -1.24190350829246      0.26011044855988
  H   -2.82854578583749     -0.09333541262142     -0.54804752894755
  N   0.19933222402492     -1.34803766975168      1.05057209815135
  H   0.36812546443791     -0.88051054269665      1.93439324109623
  H   0.83066056098365     -2.13630445666281      0.98577774903084
  C   1.68063810377278      0.45167057215551      0.08792675675802
  H   1.78951250625094      1.14116130784371     -0.75271569185788
  H   1.64617556521127      1.03436759283172      1.00994144253830
  H   2.56645772365185     -0.18783918472200      0.11779355210559
