16
Coordinates from ORCA-job run
  C   -0.72620426838606      0.58851721986266     -0.40830233659872
  C   0.65093261741257     -0.09609608471097     -0.24539604170111
  Br  -0.49105804384122      2.48988106672806     -0.85699109322307
  H   1.20801460318108      0.09155052887569     -1.17380165880181
  C   -1.39857406421429     -0.00513147335042     -1.57850232353542
  N   -1.93220976737781     -0.54832260795349     -2.47523932724687
  N   -1.46760579391814      0.47980944571869      0.81384603819735
  H   -1.44718005117590     -0.50082732383771      1.08241798472244
  H   -2.42601392092077      0.78366279541252      0.69121016964083
  N   0.35636042539661     -1.51327399345263     -0.02365459633637
  H   1.13296513483632     -1.96255142718594      0.44477633786932
  H   0.20037518668656     -1.99349178684044     -0.90235595616222
  C   1.43357373325932      0.44887657637781      0.93783054655316
  H   1.57524067632191      1.52572939552815      0.85913002474665
  H   2.42013255557184     -0.02255273210911      0.96384862268796
  H   0.91125097716800      0.23422040093714      1.87018360918788
