16
Coordinates from ORCA-job run
  C   -1.03866621542730      0.01666775263024     -0.00669417093723
  C   0.32349451865751     -0.60713689158114      0.35599037098412
  Br  -2.43744385859191     -0.79395665754723      1.09309710435124
  H   0.16890931868964     -1.68752326410288      0.28058691963469
  C   -1.01158805645142      1.45141088903515      0.32675953796339
  N   -0.91981834812210      2.60992650622347      0.50926648934811
  N   -1.37729998462112     -0.25326361815235     -1.39096602393334
  H   -0.79775402563940      0.31949553697082     -1.99654681262033
  H   -2.34455447631986     -0.00303283747548     -1.56337656360386
  N   0.63246878550842     -0.27450952113884      1.73698512436750
  H   1.22127856959912     -0.98427744120215      2.15122958333740
  H   1.12097212587925      0.61191989880065      1.79165977772414
  C   1.40023938842099     -0.17899257779390     -0.64306049029515
  H   1.50303566768646      0.91133663135210     -0.66315288101850
  H   2.35914161327243     -0.59667360996003     -0.32839706553205
  H   1.19658497745928     -0.54139079605842     -1.65238089977011
