16
Coordinates from ORCA-job run
  C   -0.92877567142525      0.06045302893540     -0.10362731641030
  C   0.43905164488938     -0.57873838032807      0.27066583217471
  Br  -2.33989992867590     -0.80272117469594      1.10191582762568
  H   0.32742629417695     -1.64896120874167      0.05310953871922
  C   -0.94730429782471      1.47327274955302      0.26798456038822
  N   -0.89730364359683      2.60803540596950      0.57066414840147
  N   -1.23069322257025     -0.10167238933811     -1.47143484617724
  H   -2.11515582086368      0.31651536822810     -1.73091870740679
  H   -1.22583931081256     -1.08074335337675     -1.73259575971149
  N   0.82551054207884     -0.44659623327872      1.65512466371777
  H   0.98396331200197      0.52679026466163      1.89008216281289
  H   0.11759975746684     -0.81813196436041      2.27517557958598
  C   1.53777508465821      0.01101993941458     -0.60803392566053
  H   1.33323669489278     -0.13033710769823     -1.66789934899094
  H   2.47959937266959     -0.47262672173377     -0.34584976680143
  H   1.64180919293463      1.08444177678942     -0.42236264226721
