16
Coordinates from ORCA-job run
  C   -0.68255987455309      0.44982164663504     -0.50761867527943
  C   0.70973602051359     -0.20411841361550     -0.27639920561381
  Br  -0.48402669603500      2.16955163768642     -1.43410650718540
  H   1.18185381895957     -0.26076605846876     -1.26331085961004
  C   -1.45450535910270     -0.40697579392768     -1.42537394764049
  N   -2.07976206043384     -1.14927261847717     -2.09063682923462
  N   -1.35460747339009      0.69840487278231      0.74698946322858
  H   -1.52079373270292     -0.19045258979143      1.20826636551160
  H   -2.25332066819033      1.13922205043174      0.58633399795640
  N   0.60815520955478     -1.55762226132825      0.23832154703724
  H   0.02041784814958     -2.15845131859560     -0.32531385436472
  H   0.31455206743046     -1.58211817956484      1.20572984713783
  C   1.58304302688631      0.61699461368588      0.65870537381092
  H   1.74575802622185      1.62410187562705      0.27777034843580
  H   1.12037318580434      0.69907572246887      1.64381698991032
  H   2.54568666088752      0.11360481445191      0.75782594589982
