16
Coordinates from ORCA-job run
  C   -0.82526931654477      0.30226174604377     -0.09577258894256
  C   0.55062436086653     -0.41601240051264     -0.01688958644455
  Br  -1.18272581807896      1.29498543869927      1.55886579688033
  H   0.60741159421141     -0.95990961204288     -0.97294124666939
  C   -0.83549767947104      1.28731169337864     -1.18545131952388
  N   -0.84682859782757      2.00885631156129     -2.11485803944009
  N   -1.86316331897540     -0.70281593742204     -0.21923726946546
  H   -2.78147366234356     -0.27305399559520     -0.19686499440254
  H   -1.75657000399233     -1.17403841688815     -1.11377483848809
  N   0.62926354947875     -1.39222168072964      1.04582015188714
  H   -0.23314987334771     -1.92460522266703      1.07979519208696
  H   0.73048877449436     -0.91612346897042      1.93516364094981
  C   1.72550068848475      0.54293103031339      0.05557776024730
  H   1.69923304912466      1.11623858159088      0.98543440612807
  H   1.73456537424641      1.24313043632995     -0.78128291959977
  H   2.64859087967448     -0.03793450308917      0.03741585479674
