13
Coordinates from ORCA-job run
  C   -0.91220869944308      0.09296906499789     -0.12832657308400
  C   0.57898568965238      0.28795631765545     -0.45937575194082
  Cl  -1.51844117187791     -1.43110662794168     -0.86438431235232
  H   0.85027335311100      1.28775588655423     -0.10441259713008
  H   0.66031723595253      0.29169881429305     -1.54987742246337
  C   -1.69462878883098      1.20425144408946     -0.67647207454330
  N   -2.27791297948305      2.11710948434830     -1.13142001049194
  C   -1.11785133075256      0.01992496887163      1.32098481120924
  N   -1.23582987936826     -0.02954345095269      2.48897147656305
  C   1.48602206693562     -0.76462033022673      0.16155328611868
  H   2.52017280180043     -0.56559069504922     -0.12553622149724
  H   1.43121261950058     -0.74464237126413      1.25178502374187
  H   1.22888908280329     -1.76716250537557     -0.18148963412978
