14
Coordinates from ORCA-job run
  C   -0.43082521883922      0.20497926044389     -0.23483398249035
  C   0.79253458290826     -0.55032395690793      0.26287183409167
  F   -0.51478725288465     -0.00833510257832     -1.60488569454344
  H   0.63563531619961     -1.62185083281872      0.15286788551393
  H   1.01926478915300     -0.29519827273312      1.29968186842732
  C   -1.69343827498603     -0.33977404208695      0.41138909994441
  H   -1.67063304718343     -0.19684548719358      1.49321058138149
  H   -2.55927586560945      0.18441017774933      0.00588082550855
  H   -1.78525381694633     -1.40335848628490      0.18443265882132
  C   -0.34140689947532      1.65600924664259      0.00394061359198
  N   -0.37498148578425      2.80340229062693      0.24945095775902
  N   2.00531764107623     -0.22351337948571     -0.54732107008830
  O   2.27785686420339      0.96455237645650     -0.68150231213563
  O   2.64099266816818     -1.17215379182999     -0.99618326578198
