14
Coordinates from ORCA-job run
  C   -0.48391320523970      0.27593103413509     -0.42226552830241
  C   1.04318420794592      0.22015998968665     -0.35038405289417
  F   -0.89412863267719     -0.47041398340028     -1.51592513568450
  H   1.42470850822569      0.93928484719315      0.37260928060653
  H   1.45913405344304      0.38692947312670     -1.34332808903194
  C   -1.18674551163899     -0.25610611991988      0.81137256327178
  H   -0.97108758624312     -1.31926106183203      0.92179893690290
  H   -0.85561889805929      0.26911218304398      1.70815806438223
  H   -2.26263324657048     -0.12679969528904      0.69160838066302
  C   -0.85013635835938      1.68315817855160     -0.67053175663070
  N   -1.12667282951564      2.81070000301467     -0.84593317132728
  N   1.47543726407205     -1.13173413871811      0.09847745852661
  O   1.67301752695558     -1.27625580710563      1.30430699322216
  O   1.55645470766151     -2.00470490248687     -0.76096394370425
