14
Coordinates from ORCA-job run
  C   -0.48206140491740      0.18368777667707     -0.28116055058626
  C   0.72577130063257     -0.69190428413080      0.03440923147961
  F   -0.76601012072632      0.10019908862832     -1.63323027904322
  H   0.82054775506765     -0.86214444300919      1.10535285516010
  H   0.61579086409150     -1.63786818151383     -0.49981749656929
  C   -1.70139111849781     -0.30570705253085      0.48283602653799
  H   -2.57129087522271      0.27431881160291      0.17338855821185
  H   -1.56299120033873     -0.19324785099343      1.55903641379043
  H   -1.87802017220620     -1.35669500488283      0.24479904420585
  C   -0.20026399620460      1.59240482885917      0.04748952689010
  N   0.00833374982124      2.70585731971360      0.35601740846487
  N   2.01244429100621     -0.08282177256679     -0.41692525616314
  O   2.05219270308887      0.33000401633608     -1.57142238747658
  O   2.92894822440572     -0.05708325218942      0.40022690509770
