14
Coordinates from ORCA-job run
  C   -0.43569855084509      0.20395789357737     -0.21320323146566
  C   0.79543570907291     -0.57292145059220      0.23318056317889
  F   -0.57853754951725     -0.00590369924410     -1.57890197933000
  H   0.61887084456674     -1.64000864320206      0.11039005078750
  H   1.06051792583531     -0.33104757875061      1.26335848230161
  C   -1.68044423896640     -0.31619106002475      0.48446850701868
  H   -2.55256009594439      0.22362773613487      0.11446195974314
  H   -1.80084722993465     -1.37795359716317      0.26221236972710
  H   -1.61009067191037     -0.17382424103784      1.56430305248661
  C   -0.30549664965744      1.65363875196485      0.01622954891911
  N   -0.30479661616957      2.80657678828800      0.23716291159529
  N   1.97330157228500     -0.24007763007028     -0.62163792041401
  O   2.35438578751055      0.92619778995142     -0.59908740750808
  O   2.46595976367463     -1.15607105983151     -1.27293690704017
