14
Coordinates from ORCA-job run
  C   -0.43275093818705      0.35183449571584     -0.42367698922818
  C   1.07216892431373      0.29259546178941     -0.15439272007764
  F   -0.66850100421001     -0.16348054560019     -1.68827503660606
  H   1.61177890859990      0.65504942377336     -1.02873113259078
  H   1.32883190686255      0.85713343935629      0.74052336814458
  C   -1.27450099040144     -0.42104192831077      0.57301795807061
  H   -1.04007913528557     -1.48333418441809      0.49807949750287
  H   -2.32883643162122     -0.27647518841017      0.33644933613093
  H   -1.08203344639037     -0.08528374123663      1.59275357634307
  C   -0.80967755683517      1.77789344824146     -0.43653049495462
  N   -1.09830693951783      2.91590329857334     -0.42114512232913
  N   1.48528905099912     -1.11827252824722      0.07850476989447
  O   1.70374923156115     -1.80615366598032     -0.91474685961952
  O   1.53086842011221     -1.49436778524629      1.24916984931938
