14
Coordinates from ORCA-job run
  C   -0.44965361425086      0.33527707488800     -0.41936488515528
  C   1.06520350049080      0.28282584251777     -0.21234422026974
  F   -0.73962098786589     -0.23094098919945     -1.65067608583992
  H   1.36161692436984      0.88404479802999      0.64563304946567
  H   1.56730390879893      0.60603072427489     -1.12361024457103
  C   -1.24910056629613     -0.39345351061621      0.64319953773134
  H   -2.31244048044406     -0.25554225249162      0.44613474384892
  H   -1.01265133917358     -0.01649101038862      1.63902326172931
  H   -1.01984011633880     -1.45875903060017      0.60214285164128
  C   -0.82585418917755      1.76059348962257     -0.47507501424048
  N   -1.11237563372674      2.89905910764171     -0.49477359684564
  N   1.48577069624080     -1.11836008929034      0.06250726368468
  O   1.65873820202006     -1.84904366910803     -0.90886697933792
  O   1.58190369535319     -1.44424048528052      1.24507031815881
