14
Coordinates from ORCA-job run
  C   -0.55282014920533      0.24682306813966     -0.46279182781504
  C   0.79746592247589     -0.41214094424235     -0.75669406124797
  F   -1.27083390263557      0.10691559066319     -1.64767248652566
  H   1.29355789141323      0.10378328537622     -1.57695228564600
  H   0.63155961514199     -1.46344925671501     -0.98772115887235
  C   -1.33351340575184     -0.41452707478095      0.65356035243042
  H   -0.83416175466789     -0.29047811582272      1.61426084631029
  H   -2.32469080254522      0.03774211471392      0.70611149257275
  H   -1.43527427610836     -1.48004882139638      0.44208379391494
  C   -0.38760609478224      1.68800684136617     -0.20719608447230
  N   -0.27886628030458      2.83633882093208      0.01196799059482
  N   1.68487463027694     -0.34147143461459      0.43482630995639
  O   1.58610010646599     -1.25308995670219      1.25491170972179
  O   2.42420850022700      0.63659588308295      0.52130540907792
