14
Coordinates from ORCA-job run
  C   -0.53049713014033      0.18926651437765     -0.41846807214740
  C   0.98517636265933      0.01942098348407     -0.54059051860480
  F   -1.14104485281866     -0.78852330693563     -1.18777319908939
  H   1.50814485840049      0.87775870227044     -0.12212403340334
  H   1.24860465593835     -0.14303893573295     -1.58521372234364
  C   -1.05590296235069      0.08074484847323      0.99978432431016
  H   -0.56250786611760      0.79836534915005      1.65650639938005
  H   -0.87778355183091     -0.92723033682559      1.37587980404769
  H   -2.12962244038598      0.26954691487639      0.99756405085896
  C   -0.86422822477391      1.50157038854454     -1.00342635349844
  N   -1.11476552798912      2.55880788693836     -1.44847742890387
  N   1.41847737330133     -1.17993676989370      0.22712359151887
  O   1.30396696245570     -2.26842664867261     -0.32925832598347
  O   1.81298234365199     -0.98732559005424      1.37647348385862
