13
Coordinates from ORCA-job run
  C   0.46108387101382     -0.52705163607099     -0.61239948961835
  C   -0.72368079916378      0.27639267652583     -0.06143969835969
  F   0.55847477546386     -1.71083550945395      0.03243542327288
  H   -0.74694133706610      1.23113768625568     -0.59488419744218
  H   0.42432722124332     -0.68772928457968     -1.69138039167113
  N   1.70447219252187      0.28215830607714     -0.33881915667825
  O   2.50259440437822     -0.13526045846309      0.48734632691385
  O   1.76537032841106      1.33381851156729     -0.96904383743818
  N   -0.66061851170405      0.53778818052646      1.35924566228487
  H   0.03056216115731      1.24437911724781      1.57342425065855
  H   -0.45263226408290     -0.30694342708303      1.87688944952379
  C   -1.95041926217836     -0.46400388736677     -0.39110140401518
  N   -2.91259277999426     -1.07485027518269     -0.67027293743099
