13
Coordinates from ORCA-job run
  C   0.58207005517823     -0.63994193159646     -0.45059921028229
  C   -0.61214310815719      0.26440169419475     -0.18258897173880
  F   0.59465747125005     -1.66777073070875      0.42867116887975
  H   -0.54712396217533      1.09712739259957     -0.88744561109532
  H   0.61765147892233     -1.02210880676755     -1.47219419731586
  N   1.82808145978046      0.19285361483763     -0.25825450250852
  O   1.93167842973566      1.11882833655646     -1.05495693371245
  O   2.60040090641847     -0.11528703033594      0.63294404874387
  N   -0.49125667255389      0.78415502649574      1.16431896122812
  H   -1.17192275704794      1.51313092197901      1.33165465689838
  H   -0.63163680896716      0.04758194079991      1.84470325336427
  C   -1.85024655741599     -0.49194224565663     -0.45951376266600
  N   -2.85120993496769     -1.08002818239774     -0.63773889979516
