13
Coordinates from ORCA-job run
  C   0.84806682987695      0.29698808079085     -0.22865903916307
  C   -0.64027205657370      0.07734779010031      0.00785918112070
  F   0.99043349216992      1.08546035669596     -1.32726337776444
  H   -1.02816416121071     -0.43760397768560     -0.88354282977054
  H   1.35283113911792      0.74301330117295      0.62674582042572
  N   1.50497883660586     -1.02407843208554     -0.51341159411913
  O   1.23044051536725     -1.54562630784186     -1.58895861776545
  O   2.22748949802723     -1.47593408662970      0.37054153214211
  N   -1.22906291454503      1.38437150613592      0.26994875518597
  H   -2.17964568394918      1.28167975264297      0.60190891677256
  H   -1.24818425501484      1.91738432808180     -0.59080975070914
  C   -0.82817388639449     -0.80139853213968      1.16488701001886
  N   -1.00073735347716     -1.50160377923836      2.09075399362585
