13
Coordinates from ORCA-job run
  C   0.53297234065419     -0.66421864883697     -0.47522566781761
  C   -0.58093164970792      0.32937159384129     -0.17929553923362
  F   0.42888131407782     -1.73758085126878      0.34136708868785
  H   -0.42261302700407      1.19134272416797     -0.83236865621948
  H   0.56158038107955     -0.98902038194711     -1.51667997832464
  N   1.84371637899700      0.03824344407611     -0.20690529146260
  O   2.05197810761020      0.99472188519416     -0.94476564982487
  O   2.56039124867577     -0.38997400518094      0.68107939493952
  N   -0.44804650636191      0.75891556148489      1.19818865754460
  H   -0.67314301425851      0.00125203756788      1.83106702169288
  H   -1.06356296692896      1.53720745986676      1.39364571069932
  C   -1.87455747671530     -0.29304736286243     -0.52615486792421
  N   -2.91766513011786     -0.77721345610279     -0.76495222275714
