13
Coordinates from ORCA-job run
  C   0.56961505028253     -0.68816493474018     -0.39339115048265
  C   -0.63552369672919      0.21323260529180     -0.16813218427728
  F   0.69730358788374     -1.56059465061717      0.63260648052412
  H   -0.66457224796175      0.92202120138336     -0.99962572142806
  H   0.53825338453159     -1.22851357562566     -1.34103618374959
  N   1.79070224938004      0.20050882528558     -0.44386887373253
  O   2.64379910601413      0.06432559393263      0.41600747467580
  O   1.78986005932529      0.98850855305227     -1.38291579795704
  N   -0.42571470949698      0.94846395112583      1.06256312972734
  H   -1.12075695802031      1.67514890450409      1.17075609223702
  H   -0.47838245171558      0.32861254838622      1.86148836624424
  C   -1.85929379620754     -0.61264995305893     -0.21060337485232
  N   -2.84528957728597     -1.25089906891984     -0.20484825692902
