13
Coordinates from ORCA-job run
  C   0.89026511760437      0.33780705715142     -0.21594666753560
  C   -0.62247327647868      0.14387274424433     -0.15224365746347
  F   1.19759420010069      1.10836649095991     -1.28193892060286
  H   -0.91525365930727     -0.19238893811983     -1.15150246674560
  H   1.31445603871213      0.76273812048024      0.69421893882544
  N   1.53681526129840     -1.00792127825228     -0.41258127964745
  O   1.32260492911958     -1.55257469733970     -1.49050344833325
  O   2.19056260190905     -1.44972596095222      0.52780553568394
  N   -1.24574827735882      1.42468254687197      0.12162021790699
  H   -2.20382057099156      1.42928838396001     -0.20169216712012
  H   -1.24639145607741      1.62047767064552      1.11510608684440
  C   -0.95821639950680     -0.91681465616199      0.81678206927318
  N   -1.26139450902370     -1.70780748348738      1.63087575891439
