13
Coordinates from ORCA-job run
  C   0.56505332642809     -0.62748496418399     -0.48970082278931
  C   -0.61986326984134      0.26562525230467     -0.15198762733733
  F   0.61788499947947     -1.67454094061486      0.36506409910405
  H   -0.58709791970781      1.11415641404549     -0.84009362381265
  H   0.55940365978529     -0.98708243570002     -1.52003113524264
  N   1.81490933610499      0.20643712374656     -0.33056090214043
  O   1.88191314527154      1.15051257305558     -1.10971577909578
  O   2.62415252880217     -0.11733783232379      0.52144656411524
  N   -0.44419169065360      0.75630182315223      1.19989264919745
  H   -1.11859297985120      1.47980356108126      1.41078702195130
  H   -0.55500994237859      0.00482103289450      1.86936630740084
  C   -1.86616262909189     -0.48957440997299     -0.39267104169644
  N   -2.87039856434712     -1.08263719748462     -0.53179570965431
