13
Coordinates from ORCA-job run
  C   0.58662054642783     -0.07433316569903     -0.90288724559017
  C   -0.75775964625502      0.22066215424180     -0.24042960243128
  F   0.43789355269751     -1.00030593548820     -1.87392375717605
  H   -1.45824325478473      0.31693575975812     -1.07660760427389
  H   1.02190116203771      0.84305605478203     -1.30263148160050
  N   1.56688895369422     -0.60934224711615      0.11898783662970
  O   2.09262600168271     -1.68988986065793     -0.08846601516506
  O   1.74039889269238      0.12809167800182      1.08614664408494
  N   -0.72041072021867      1.48857264691255      0.46067590515256
  H   -0.12170822072222      1.42061417091298      1.27376332241294
  H   -1.65226621147081      1.74635694278342      0.75986675240026
  C   -1.18812663333099     -0.94420386042160      0.56181974194906
  N   -1.54681442244992     -1.84521433800980      1.22468550360749
