13
Coordinates from ORCA-job run
  C   0.89445784995019      0.24493589491166      0.02102931542009
  C   -0.62210871725005      0.14896540364702     -0.07883199910378
  F   1.30259238278391      1.29607677790233     -0.73879731102896
  H   -0.85627438857660     -0.02926873166556     -1.13895553750714
  H   1.24678937087335      0.35736390039652      1.04498665991650
  N   1.50812576930177     -1.00547889448446     -0.54247037014202
  O   1.42199683054896     -1.15227482049336     -1.75702931513381
  O   2.00653837724515     -1.78143383979195      0.26812686309018
  N   -1.16615918377493      1.38288459280146      0.47353028835499
  H   -2.16806482503402      1.30304482326946      0.59308110745472
  H   -0.98161618615531      2.14310798808177     -0.16954667330990
  C   -1.09339240252045     -1.00081130520736      0.69716951879742
  N   -1.49288487739199     -1.90711178936752      1.32670745319171
