13
Coordinates from ORCA-job run
  C   0.59914460546809     -0.07144202438630     -0.89451282477085
  C   -0.75730871082618      0.20836884811512     -0.25085339269124
  F   0.47516841725562     -1.00381061798853     -1.86314934409039
  H   -1.44776955579467      0.29044161764547     -1.09684496209178
  H   1.02709672328470      0.84963211823377     -1.29392628599964
  N   1.57558585231420     -0.58859151453218      0.14055695147661
  O   2.14042654455132     -1.64838298875115     -0.07096328680735
  O   1.70870210682311      0.14171420956384      1.11940743147120
  N   -0.74757998742385      1.48064038215062      0.44348048384748
  H   -0.16460280005910      1.42288241148414      1.26863680996283
  H   -1.68807239532510      1.72937432343959      0.72269544930693
  C   -1.18260253716741     -0.95726357396371      0.55280286379113
  N   -1.53818826310074     -1.85356319101068      1.22367010659510
