13
Coordinates from ORCA-job run
  C   0.60843599847958     -0.54420756407581     -0.53627620189352
  C   -0.61325064116332      0.27746742504987     -0.15158814838510
  F   0.62499165306176     -1.70592690063563      0.15685243993097
  H   -0.55344843715145      1.21861575048496     -0.70409099544666
  H   0.67734017176119     -0.74723987144039     -1.60626387738221
  N   1.82896827004325      0.26847782459723     -0.17167104850399
  O   2.58289943138530     -0.16676207427751      0.68127918428034
  O   1.92297369972224      1.32282149513029     -0.79003810247730
  N   -0.53522266434366      0.56541343573817      1.26623299733719
  H   -0.67328692485474     -0.27767290278827      1.80974403927277
  H   -1.23723671121742      1.24193571754725      1.53514843492042
  C   -1.82573597608031     -0.44539585986036     -0.58638699077600
  N   -2.80842786964244     -1.00652647546984     -0.90094173087687
