13
Coordinates from ORCA-job run
  C   0.59181159987855     -0.08431064876226     -0.90073338245913
  C   -0.76272625837166      0.19557037100101     -0.25251731556217
  F   0.46983112119205     -1.03833556381592     -1.84801377137395
  H   -1.46027790100218      0.25614601854799     -1.09443022682093
  H   1.00736121510557      0.83266920298338     -1.32171497590867
  N   1.57846751471818     -0.56956337721300      0.13958102515989
  O   1.73858510145403      0.20241922451402      1.08172563219272
  O   2.12004576305048     -1.64885016173354     -0.03022662656426
  N   -0.75810776594692      1.48019986386032      0.41864117667077
  H   -0.16090267165171      1.44558108589034      1.23500863232563
  H   -1.69695433059861      1.72194573384465      0.70940391461821
  C   -1.16972242401031     -0.95782457174224      0.57810527671777
  N   -1.49841096381746     -1.83564717737473      1.28617064100412
