13
Coordinates from ORCA-job run
  C   0.58240637392985     -0.11786513850000     -0.87226802894572
  C   -0.75264844800167      0.18430941251008     -0.19593076932459
  F   0.44069861706670     -1.15063408916247     -1.73616623218896
  H   -1.42745077896294      0.50767094578076     -1.00474296538897
  H   0.98112184226385      0.75196857273680     -1.39625196807066
  N   1.60957651711747     -0.47875735074473      0.16511034379185
  O   1.54583636138490     -1.60892802491874      0.63083710823118
  O   2.40842136310378      0.40627834856045      0.45274449993134
  N   -0.53207471295124      1.16250320685556      0.85799573001944
  H   -0.27681276057033      2.06016385601754      0.46368000294297
  H   -1.37074148468107      1.28264166223996      1.41096895503042
  C   -1.33660685890187     -1.03344516132717      0.37857257334636
  N   -1.87172603079742     -1.96690624004801      0.84645075062537
