13
Coordinates from ORCA-job run
  C   0.61126278290516     -0.12044411892946     -0.85442912198447
  C   -0.75012655751706      0.15764665073403     -0.22182283284836
  F   0.52434917407544     -1.17680936735931     -1.69722440879577
  H   -1.41220386789028      0.44197849126715     -1.05532129534093
  H   0.99886948721991      0.74879593508100     -1.38761558632563
  N   1.61896983427324     -0.42725547002297      0.21847617029906
  O   1.56045261117722     -1.54125609653531      0.72256242374462
  O   2.39604312046510      0.48019052787437      0.49551162317149
  N   -0.58476045176064      1.16837784167001      0.81152591885446
  H   -0.37355874919806      2.06905215970123      0.39877169816015
  H   -1.42992192507669      1.25775815691886      1.36020514383199
  C   -1.31564572287735     -1.06156198778449      0.36723285237978
  N   -1.84372973579597     -1.99447272261514      0.84412741485358
