13
Coordinates from ORCA-job run
  C   0.75895002445754      0.16584426803236     -0.59060951643638
  C   -0.65261804301932      0.07576410946486     -0.01666675800997
  F   0.68784132803447      0.32128745420711     -1.93069702878583
  H   -1.16094617642467     -0.68938487601761     -0.61120488277934
  H   1.35980519876476      0.96101316726713     -0.14835337648956
  N   1.47316471440275     -1.12983410542677     -0.31024827883090
  O   2.39961755471046     -1.08790808009414      0.49396834434458
  O   1.03862265955760     -2.11750751578567     -0.89348401564542
  N   -1.31708861835887      1.35049944862909     -0.21120189871354
  H   -2.32111331322439      1.23106248107109     -0.20888944703656
  H   -1.07473843824970      1.99976235134136      0.52699811155810
  C   -0.60216951213998     -0.38048302434134      1.38532151904790
  N   -0.59132737851062     -0.69911567834743      2.51606722777691
