13
Coordinates from ORCA-job run
  C   0.51698111000282     -0.07324832753280     -0.86584784607492
  C   -0.83464830770747      0.18409171671886     -0.17068308865039
  F   0.37049622835797     -1.00986231931316     -1.82771580019061
  H   -1.54114192294338      0.34286863101263     -0.99338930088641
  H   0.92976587145385      0.84435202605115     -1.28938793065796
  N   1.52542899667667     -0.56402012609396      0.14190106192861
  O   1.88998323176831     -1.72720500778723      0.08388655365620
  O   1.86400619225555      0.28335306368390      0.96666632820401
  N   -0.91230666507613      1.31839798074399      0.72134101019383
  H   -0.83673845158275      2.18416991704824      0.20306194903896
  H   -0.17078953400366      1.28503928315814      1.40955999540070
  C   -1.24787535454300     -1.04277457846384      0.52699086109795
  N   -1.55316139465877     -2.02416225922592      1.09361620694005
