13
Coordinates from ORCA-job run
  C   0.54448853829675     -0.05518921662118     -0.85057220969121
  C   -0.83445604886017      0.16082022215446     -0.19645399826227
  F   0.45367118402211     -0.99206821940844     -1.81933000532638
  H   -1.51998644552584      0.30150344640009     -1.03989743099347
  H   0.94372961505883      0.87510331565827     -1.25911569811342
  N   1.53594744846294     -0.52086652084402      0.18544778622090
  O   1.82413210731174      0.33243001519652      1.02311402541746
  O   1.93450115166890     -1.67316197453207      0.13542820032463
  N   -0.97245103289767      1.28936223931031      0.69562667138698
  H   -0.25588230062294      1.27110501180427      1.41032336288498
  H   -0.89800691356153      2.15855862197280      0.18277010895059
  C   -1.23181470663239     -1.07972867724782      0.48610363418654
  N   -1.52287259672076     -2.06886826384319      1.04655555301464
