13
Coordinates from ORCA-job run
  C   0.59569514265802     -0.13429901978518     -0.86381865789372
  C   -0.75311253913035      0.15778453034226     -0.21079664300395
  F   0.48957253904385     -1.20143546275120     -1.69085635766346
  H   -1.42880810710910      0.43345346284778     -1.03621690295794
  H   0.97675885797139      0.72630589685116     -1.41536617016905
  N   1.62139157074355     -0.43104881755340      0.19460593568034
  O   1.56562996272395     -1.53685346685149      0.71675969924723
  O   2.40876117216879      0.47568063110341      0.44358262035075
  N   -0.56528284471878      1.18247908329094      0.80502640346298
  H   -1.39711286600256      1.27715444514343      1.37284123729307
  H   -0.36683090666537      2.07809815513638      0.37532552241709
  C   -1.31281624606310     -1.05073629748122      0.40499105707893
  N   -1.83384573562030     -1.97658314029291      0.90292225615775
