13
Coordinates from ORCA-job run
  C   0.57464811065990     -0.11760572870100     -0.90790986488463
  C   -0.76428055490905      0.19966416028408     -0.24475238538835
  F   0.42217598962997     -1.09461309219184     -1.82729276981083
  H   -1.47518648644174      0.24735677777023     -1.07627434954358
  H   0.99611471275608      0.78109768351867     -1.36117846331645
  N   1.57215192113735     -0.58980913100317      0.12774795734782
  O   1.75882625963739      0.20416206941964      1.04652221868558
  O   2.10009263605690     -1.67824359909005     -0.02551985600475
  N   -0.73006568592103      1.50150688045005      0.39105172373347
  H   -0.12023880808036      1.47991145058933      1.19847718873827
  H   -1.66041207189492      1.76520906531319      0.68991858667942
  C   -1.17345046976314     -0.92479807157739      0.62383064522734
  N   -1.50137555286736     -1.77483846478176      1.36537936853672
