12

C	0.0	0.0	0.0
C	-0.30078	-0.158174	-1.530165
F	1.372699	0.0	0.0
H	0.576074	0.324056	-1.985709
H	-0.38426	0.947077	0.376232
C	-0.425165	-1.126907	0.835401
N	-0.470643	-2.066449	1.540971
C	-1.44401	0.507754	-2.170235
N	-2.017436	1.102651	-3.010913
C	-0.224216	-1.566692	-1.93144
N	-0.0796	-2.67517	-2.293567
Cl	-2.952695	0.0	0.0
