12

C	0.0	0.0	0.0
C	-0.411345	0.336246	-1.467827
F	1.372177	0.0	0.0
H	0.555329	0.441127	-1.981115
H	-0.370457	0.756215	0.68815
C	-0.408298	-1.34409	0.433181
N	-0.455452	-2.458869	0.802819
C	-1.056575	1.645048	-1.596048
N	-1.348652	2.765703	-1.793906
C	-1.120483	-0.716182	-2.199142
N	-1.492808	-1.55728	-2.92924
Cl	-2.93524	0.0	0.0
