12

C	0.0	0.0	0.0
C	-0.526953	-0.143985	-1.431635
F	1.369899	0.0	0.0
H	-1.641477	-0.140815	-1.300502
H	-0.382049	0.93308	0.417007
C	-0.413227	-1.138625	0.840861
N	-0.520193	-2.089537	1.520651
C	-0.078403	-1.389139	-2.049704
N	0.272963	-2.392025	-2.550009
C	-0.109952	1.004605	-2.234054
N	0.207778	1.937784	-2.872123
Cl	-3.262059	0.0	0.0
