14

C	-0.601818	-0.011223	-1.403609
C	0.0	0.0	0.0
Br	0.183825	1.575269	-2.422912
H	1.09477	0.0	0.0
H	-0.356024	-0.920549	0.474549
C	-0.201253	-1.178235	-2.187097
N	0.042936	-2.137857	-2.819184
N	-2.01186	0.062171	-1.31288
H	-2.445967	0.239639	-2.209276
H	-2.224846	0.797633	-0.644055
N	-0.559185	1.153189	0.723449
H	-0.548332	0.936495	1.712317
H	0.085554	1.926173	0.595761
Cl	3.465307	0.0	0.0
