14

C	-0.575559	0.006288	-1.414214
C	0.0	0.0	0.0
Br	-0.090245	1.638113	-2.37257
H	1.092561	0.0	0.0
H	-0.313843	-0.967887	0.431402
C	-0.044398	-1.117883	-2.203374
N	0.25688	-2.078357	-2.811239
N	-2.032809	-0.038196	-1.346249
H	-2.416416	-0.011771	-2.285189
H	-2.291136	-0.930996	-0.93333
N	-0.465056	1.153354	0.745225
H	0.257002	1.432384	1.393878
H	-1.320248	0.963612	1.244768
Cl	3.454611	0.0	0.0
