14

C	-0.482266	-0.016453	-1.439324
C	0.0	0.0	0.0
Br	-2.608142	-0.394824	-1.266741
H	1.093921	0.0	0.0
H	-0.3129	-0.954175	0.445666
C	-0.508062	1.288344	-2.092005
N	-0.4994	2.302647	-2.684726
N	0.145681	-0.96511	-2.211128
H	0.377797	-1.822686	-1.736754
H	-0.189733	-1.081245	-3.154182
N	-0.494997	1.167182	0.701727
H	-1.285661	0.942687	1.287257
H	0.249004	1.549735	1.267664
Cl	3.421455	0.0	0.0
