15

C	-0.170403	-0.034328	-1.52999
C	0.0	0.0	0.0
F	-0.042295	1.345711	-1.926689
H	1.094469	0.0	0.0
H	-0.417922	0.922034	0.405852
N	0.898286	-0.812032	-2.035518
H	1.020052	-0.645075	-3.025162
H	1.754652	-0.582671	-1.498044
C	-1.522102	-0.456846	-2.072513
H	-2.300004	0.217368	-1.698205
H	-1.518078	-0.406966	-3.167064
H	-1.744953	-1.479256	-1.76567
C	-0.550668	-1.163203	0.658864
N	-1.003796	-2.100926	1.203821
F	2.654581	0.0	0.0
