15

C	-0.193338	0.198073	-1.518357
C	0.0	0.0	0.0
F	-0.094555	1.580551	-1.746074
H	1.092074	0.0	0.0
H	-0.323771	-1.009755	0.275123
N	0.897508	-0.416473	-2.230624
H	0.712485	-1.408931	-2.317979
H	1.739292	-0.307225	-1.634114
C	-1.543403	-0.220934	-2.063908
H	-1.706364	-1.291626	-1.915288
H	-1.58296	0.004014	-3.131362
H	-2.33363	0.330592	-1.550662
C	-0.657575	0.979262	0.834787
N	-1.21247	1.759323	1.518208
F	2.647736	0.0	0.0
