16

C	0.0	0.0	0.0
C	-0.218144	0.136652	-1.577609
Cl	1.771279	0.0	0.0
H	0.282099	-0.753986	-1.960692
N	-0.435428	1.166587	0.852827
O	-0.499684	0.954938	2.053989
O	-0.551833	2.255412	0.307118
C	-0.482914	-1.25632	0.543423
N	-0.570608	-2.342095	0.990792
N	0.323158	1.29081	-2.237301
H	-0.154069	2.109326	-1.882205
H	1.310268	1.370997	-2.039225
N	-1.621113	0.000827	-2.127761
O	-1.950023	-1.13601	-2.452691
O	-2.232284	1.025128	-2.386876
F	-2.21666	0.0	0.0
