16

C	0.0	0.0	0.0
C	-0.248557	-0.109167	-1.592605
Cl	1.760307	0.0	0.0
H	0.49854	0.554837	-2.018731
N	-0.447741	1.373301	0.473177
O	-0.469101	2.256302	-0.375643
O	-0.636268	1.513691	1.670046
C	-0.511969	-1.025803	0.888665
N	-0.661714	-1.89832	1.662648
N	-1.502832	0.067655	-2.192529
H	-1.576289	1.036517	-2.473733
H	-2.199318	-0.08588	-1.403279
N	0.247209	-1.494178	-1.9876
O	1.131399	-1.544169	-2.843959
O	-0.323819	-2.463679	-1.498285
F	-2.49425	0.0	0.0
