16

C	0.0	0.0	0.0
C	-0.551126	0.354257	-1.454574
Cl	1.745934	0.0	0.0
H	-1.199796	1.209093	-1.318543
N	-0.427214	1.048752	1.020453
O	-0.501653	2.201136	0.623278
O	-0.53723	0.664495	2.175389
C	-0.470384	-1.311901	0.422944
N	-0.595259	-2.448591	0.696332
N	-1.245877	-0.676739	-2.144737
H	-2.053761	-0.798987	-1.519307
H	-0.686753	-1.521253	-2.180566
N	0.583701	0.829593	-2.331597
O	0.849067	2.03094	-2.298462
O	1.166039	-0.001863	-3.024856
F	-2.421201	0.0	0.0
