16

C	0.0	0.0	0.0
C	-0.548646	-0.014301	-1.496293
Cl	1.759639	0.0	0.0
H	-1.181233	0.858239	-1.579618
N	-0.424962	1.266286	0.730893
O	-0.49411	2.2856	0.062489
O	-0.542733	1.177529	1.943178
C	-0.456566	-1.17124	0.736418
N	-0.596798	-2.202485	1.283538
N	-1.261408	-1.172372	-1.91006
H	-0.713086	-2.008582	-1.742824
H	-2.065271	-1.126355	-1.268379
N	0.590879	0.205579	-2.464552
O	1.172791	-0.782744	-2.903515
O	0.859027	1.369591	-2.75738
F	-2.422517	0.0	0.0
