15
Coordinates from ORCA-job run
  C   0.76441518275782      0.63666801740354      0.01982525041809
  C   -0.69470691849793      0.27839576642682      0.32619830529206
  F   0.85832475608871      0.93545375277941     -1.33780725185759
  H   -0.76035109053532      0.06539421947046      1.40041487329063
  H   1.02563572259365      1.55330046905014      0.55854232494242
  C   1.74882468010724     -0.46596490573450      0.33889310185287
  H   1.67573441327559     -0.76243470738880      1.38812243473456
  H   1.57185600328208     -1.33784825949038     -0.29169227200140
  H   2.76388193290816     -0.11339232478633      0.14981131110896
  C   -1.20070486809130     -0.92990653173938     -0.46869346742974
  H   -2.26426181831140     -1.08721538472583     -0.28436595904470
  H   -1.05475014241881     -0.76211134812569     -1.53580787087557
  H   -0.66853268781153     -1.83562526827904     -0.17589052872276
  C   -1.54095835700019      1.44702393124202      0.06424340387687
  N   -2.22240680834678      2.37826257389757     -0.15079365558470
