15
Coordinates from ORCA-job run
  C   0.76334316901283     -0.39949734856943      0.14646446235441
  C   -0.65083887711664      0.18793089216421      0.09674556884930
  F   0.82722735293607     -1.18850292928795      1.29577523638430
  H   -0.76912116490794      0.81964207768453      0.98577653850017
  H   0.90617929967986     -1.07258057362984     -0.70629183505510
  C   1.85990820525284      0.63669045369481      0.21313146726615
  H   1.87935347802788      1.24366657426663     -0.69361747937726
  H   1.70661197355588      1.29028541320497      1.07486965466808
  H   2.82612057306194      0.14188992411367      0.32266268350320
  C   -1.72759045322801     -0.90059845496793      0.09768513238647
  H   -1.62225456500078     -1.51530901253643      0.99110791393893
  H   -1.62593841597401     -1.53921229175848     -0.78255731443347
  H   -2.72493754084430     -0.45844635763450      0.08841141945082
  C   -0.77664602266636      1.04534796470398     -1.08266392532365
  N   -0.87141701178925      1.70769366855176     -2.04749952311234
