15
Coordinates from ORCA-job run
  C   0.74867507180170     -0.30642553771661      0.33078958923399
  C   -0.65777932111344      0.18963304616695     -0.02090751712860
  F   0.71594023200282     -0.67365267886420      1.67710548768059
  H   -0.85364530217038      1.06845723979655      0.60536623601599
  H   0.96546343059543     -1.21706080159513     -0.23874811098221
  C   1.83313335768193      0.72725523248958      0.14069808348486
  H   1.60403124570918      1.62379536334501      0.72144834549327
  H   2.78674829909838      0.32581554374475      0.48702983319168
  H   1.93090020450134      1.00118356975543     -0.91131941018952
  C   -1.72684947656296     -0.87405600445415      0.24503974932023
  H   -1.69292593907264     -1.16953952098570      1.29319652360277
  H   -2.72166123617624     -0.48734126975728      0.01880089771190
  H   -1.55083883785346     -1.75556967011167     -0.37530850246520
  C   -0.68434180590544      0.61637015344979     -1.42056261397691
  N   -0.69684992253622      0.93113533473667     -2.55162859099287
