15
Coordinates from ORCA-job run
  C   0.62746128870806      0.16210838822114      0.83837260943913
  C   -0.80737866133257      0.27121016869071      0.31639191961900
  F   0.89872362039382      1.32399514821343      1.55777157652830
  H   -1.43307882904230      0.51954082405894      1.18119328656627
  H   0.66136785121165     -0.66622234654451      1.55526902509964
  C   1.68633803738580      0.00035252342747     -0.22612340728212
  H   1.55425474027692     -0.93066638869840     -0.78041877853923
  H   2.67030332551155     -0.01899466974364      0.24487943247745
  H   1.65367720809149      0.83924567056529     -0.92373585511566
  C   -1.30353006603076     -1.03542706438603     -0.31052994038678
  H   -0.75194554842219     -1.27238170421858     -1.22101829623542
  H   -2.36057429354022     -0.95669484540555     -0.56800858748531
  H   -1.18416584985224     -1.85960507325441      0.39698327944901
  C   -0.91936265318974      1.37910630802130     -0.63559831852380
  N   -0.99209017016926      2.24443306105285     -1.42542794561048
