16
Coordinates from ORCA-job run
  C   -0.50192756511633     -0.05179432151778     -0.10101224123143
  C   0.73667479226172      0.43874198530083      0.15015719901090
  C   -1.69371484542902      0.83831609610844     -0.31426062558129
  H   -2.08153220328127      0.71024056983721     -1.33055526720001
  H   -2.49972892847510      0.55418630782558      0.37029889872836
  H   -1.46705968662834      1.89383964475262     -0.16380250183603
  C   -0.80421562878543     -1.52244099874869     -0.16793244230504
  H   -1.36548818050409     -1.83452795206836      0.72009161820885
  H   -1.44326575162288     -1.72857166499109     -1.03163182192926
  H   0.08246300411770     -2.14856692647358     -0.24948982300356
  C   0.93255928048243      1.86150826616869      0.16745366064816
  N   1.13731345542956      3.02050786783492      0.18928066188048
  C   1.99327010931090     -0.36141162437977      0.39172129444548
  H   1.77530961081773     -1.39529974590304      0.65351137826288
  H   2.56533328827203      0.07924744674810      1.21125763332332
  H   2.63400924915040     -0.35297495049410     -0.49508762142182
