16
Coordinates from ORCA-job run
  C   -0.51067426091496     -0.03111753343214     -0.05463903636587
  C   0.75557255962805      0.44400766355000      0.03152006681042
  C   -0.82772839228408     -1.49154072013393      0.10277112083011
  H   -1.27027649303842     -1.68129540829345      1.08756503122880
  H   0.04299949933057     -2.13608377590889     -0.01066408647188
  H   -1.57135122355825     -1.79393361131029     -0.64009127612758
  C   -1.69901014649229      0.85576716455746     -0.28991179262496
  H   -2.44911277069818      0.69233544969439      0.49097942425639
  H   -2.17492754649982      0.60375512280713     -1.24364168169965
  H   -1.43943626568928      1.91449877391186     -0.30467616246106
  C   0.99348176682336      1.84561248430605     -0.16222204680282
  N   1.22664477060960      2.98909892700747     -0.31738002680139
  C   1.98872843805245     -0.39475979285818      0.28055287114631
  H   2.78263600195917      0.21663288100404      0.71159495803265
  H   1.78242980705363     -1.21161913483168      0.97226040037059
  H   2.36902425571843     -0.82035849006983     -0.65301776332005
