16
Coordinates from ORCA-job run
  C   0.44593146395039      0.33218033120760      0.42750262596474
  C   -0.98124707834568     -0.18572815066172      0.15537939518671
  Cl  0.73386869868530      0.23473427114762      2.18291705307781
  H   -1.67322757550024      0.44452387599730      0.72412076212506
  C   1.51774170145532     -0.40483770575059     -0.32972243268684
  H   1.38732657774046     -0.24472063870209     -1.40230865409557
  H   1.42211755580887     -1.46679486474017     -0.10974751649931
  H   2.50201977384109     -0.04479622013894     -0.03880741845890
  N   0.48648195638971      1.82365176049816      0.09052179894681
  O   -0.56020981563661      2.45108686762034      0.22189683671628
  O   1.56843138866265      2.28642953362398     -0.24795825171619
  N   -1.04762296717561     -1.60623397017089      0.48645824585834
  H   -1.84862960682163     -2.02792302413484      0.03329829437696
  H   -1.16279980900009     -1.71023315858876      1.48729059348232
  C   -1.27801261259793     -0.00341664626398     -1.26907384879951
  N   -1.51116965145602      0.12207773905699     -2.41276748347872
