16
Coordinates from ORCA-job run
  C   0.44247419265194      0.39055592913487      0.43208452548902
  C   -0.83942365143458     -0.44624224058503      0.29007947058673
  Cl  0.36974210809152      1.29205499607198      1.95884279543826
  H   -0.80139729786182     -1.13795087630855      1.13895516826822
  C   1.69488730323263     -0.45442134029969      0.37815868178839
  H   2.56984767497253      0.17876227701809      0.51439527374514
  H   1.74407006229998     -0.96752869184794     -0.58190771397507
  H   1.66135778930108     -1.19669466988473      1.17744231134811
  N   0.52448927607733      1.42482729997840     -0.68937361539687
  O   1.54408933629553      2.09778027909923     -0.73681915692362
  O   -0.42443288953330      1.49396399901931     -1.46762763935561
  N   -0.80279862473093     -1.23368711251938     -0.92932634108130
  H   -1.13278981059220     -0.67711716975027     -1.70740500304137
  H   -1.39963224872589     -2.04535282609425     -0.83551139283436
  C   -2.06300948759632      0.36014562352362      0.46347791151930
  N   -3.08647373244750      0.92090452344435      0.59553472442503
