16
Coordinates from ORCA-job run
  C   0.42009588816545      0.33438379377086      0.45239269754425
  C   -0.97474266560270     -0.23487860007908      0.12141718073578
  Cl  0.66572460731334      0.18108661751636      2.21045251927851
  H   -1.70825731666937      0.34058803527602      0.69617503631099
  C   1.54374342638775     -0.32442548176394     -0.30142427155409
  H   1.43365892915019     -0.13046808953750     -1.37066064863066
  H   2.50260474049742      0.06866487997690      0.02897388932838
  H   1.49152991576223     -1.39705235229088     -0.12285135987562
  N   0.39984006332619      1.83814027819015      0.17319678849038
  O   1.46297417579567      2.35942975881935     -0.13876792364120
  O   -0.67437214577595      2.41399049231796      0.31732548109664
  N   -0.98544461753405     -1.66927798975296      0.39323115889467
  H   -1.75407198340884     -2.10690569768670     -0.09929836188948
  H   -1.12233446237705     -1.81956776586365      1.38543126165197
  C   -1.24454587078134     -0.00697212506294     -1.30184934003626
  N   -1.45840268424892      0.15526424617003     -2.44474410770427
