16
Coordinates from ORCA-job run
  C   0.37474375093557      0.43243054537135      0.45600406636584
  C   -0.82825169220754     -0.49811866862639      0.23113591524095
  Cl  0.10522698975849      1.36421913878289      1.94210126745591
  H   -0.81595571445484     -1.16409624245197      1.10109992532339
  C   1.68270978277113     -0.32134987572314      0.53635372022737
  H   1.85084071493484     -0.85428059268062     -0.39913573314748
  H   2.49626851501512      0.37657831374595      0.72621203967713
  H   1.63117904949156     -1.04277407027934      1.35355527978922
  N   0.48251983226065      1.44171868559834     -0.68598676506932
  O   -0.39799193977871      1.42422677402358     -1.54345848339940
  O   1.45439058203774      2.18327272952263     -0.66731753686243
  N   -0.63100323417252     -1.30996346896739     -0.95627722576852
  H   -1.17230136828026     -2.16202962883049     -0.88780713085861
  H   -0.93265450654354     -0.79894890731817     -1.77594320097483
  C   -2.11604839004880      0.22106829024694      0.27478785944008
  N   -3.18467237171889      0.70804697758582      0.29467600256069
