16
Coordinates from ORCA-job run
  C   0.43566278089128      0.36913357188611      0.48360030145362
  C   -0.96437516002975     -0.23137560843976      0.23855482020438
  Cl  0.76842435471106      0.34272546846670      2.22295092437446
  H   -1.65807785614914      0.29833108114424      0.89349555900559
  C   1.53220267057173     -0.32842049325811     -0.27683204847323
  H   1.56927601112935     -1.36766627293913      0.05051034489143
  H   2.49195965632153      0.14149301101158     -0.07309115642780
  H   1.34036182236910     -0.27776228110842     -1.35113949554087
  N   0.36423938141173      1.84614167008358      0.09267677709986
  O   -0.66313976943939      2.43832179746206      0.40780409619795
  O   1.33392313976059      2.33118420523717     -0.47736084039361
  N   -0.96248747014053     -1.64265083470745      0.57362136219062
  H   -1.87984747518217     -1.93107032280780      0.88520367240833
  H   -0.70782408266565     -2.20831362576600     -0.22582657436049
  C   -1.35635312038527      0.03900673316619     -1.15770934580738
  N   -1.64294488317447      0.18092190056903     -2.28845839682286
