16
Coordinates from ORCA-job run
  C   0.38235574859672      0.38199477980868      0.31318565466578
  C   -0.72790785562631     -0.45328576153995     -0.34127870883123
  Cl  -0.25144798979994      1.21050322239828      1.73478892229044
  H   -0.27559968696097     -0.91004613018668     -1.22631889717388
  C   1.61584204088356     -0.41818911543891      0.67486627526407
  H   1.99956650001457     -0.92528863675780     -0.21143657370749
  H   2.38487147841718      0.24837260386120      1.06899380854827
  H   1.36709887310087     -1.15337975995567      1.44080334655368
  N   0.78012767905305      1.40781390573441     -0.75680603647302
  O   1.17316147740521      0.89447818392641     -1.79977734905205
  O   0.70920672090323      2.59924918339602     -0.51311291722078
  N   -1.79763915265286      0.41355514312197     -0.78865407563696
  H   -2.39930925968085     -0.07449589247749     -1.43948499160975
  H   -2.35755624202444      0.73068740578162     -0.00669362185954
  C   -1.12993277693401     -1.53731081186222      0.57354101909936
  N   -1.47183755469504     -2.41465831980982      1.27638414514308
