16
Coordinates from ORCA-job run
  C   0.33874440620902      0.45693720822320      0.25832459090733
  C   -0.67102924026919     -0.56866664671828     -0.27808752831984
  Cl  -0.39388682648787      1.39406135370554      1.55991376504346
  H   -0.16315324642717     -1.08692209192339     -1.09651949559745
  C   1.64414689031582     -0.15621919629153      0.71924942362903
  H   1.46377372498298     -0.80508163850855      1.57691626733414
  H   2.33640640211330      0.63227260282365      1.01945476633004
  H   2.08777553961455     -0.73368203798761     -0.09292945884700
  N   0.64028820794002      1.36948367424810     -0.93812296495666
  O   1.09966886023225      0.76799411177346     -1.90408573520606
  O   0.44602551007017      2.56897439894448     -0.85241202255847
  N   -1.82066193306697      0.11501510375139     -0.83173781614384
  H   -2.42025039331016      0.46823545952547     -0.09595644603610
  H   -2.36027605025701     -0.51384857079420     -1.41249312478921
  C   -0.97071785889691     -1.55802227656533      0.77314200986364
  N   -1.25585399276287     -2.34853145420633      1.59434376934697
