16
Coordinates from ORCA-job run
  C   0.43003593987727      0.33553690267304      0.44548282870976
  C   -0.98109718216066     -0.19600368303163      0.11890843153860
  Cl  0.64915225894118      0.24613848478973      2.21104527539966
  H   -1.69752737662299      0.42855938767023      0.66360335908401
  C   1.53785761345124     -0.39370234291884     -0.26471441373680
  H   2.50668428844068     -0.01832127191830      0.05767744820484
  H   1.44585011406728     -0.24681335083719     -1.34275840781739
  H   1.44800172181459     -1.45436579541287     -0.03634376860660
  N   0.45603060091181      1.82611030102565      0.10202082330397
  O   1.50380877791274      2.28137755381170     -0.33902146217975
  O   -0.57281515169054      2.45771595154647      0.32160973070315
  N   -1.04926704460509     -1.61744559061990      0.44226122190524
  H   -1.83065941884841     -2.04342329073940     -0.04034842903282
  H   -1.19898748374221     -1.72560215847009      1.43812181553949
  C   -1.22602186607627     -0.00824465763243     -1.31481550992877
  N   -1.42004579167058      0.12748356006383     -2.46472894308660
