16
Coordinates from ORCA-job run
  C   0.44074711508917      0.37066004673951      0.47898655249812
  C   -0.97275472368298     -0.19806395913946      0.23564330423398
  Cl  0.75642502868956      0.38283330205443      2.22164568490881
  H   -1.65740191938789      0.36671399885258      0.87058286878110
  C   1.52514082745494     -0.37686145786778     -0.25094685269943
  H   1.53234277241784     -1.40681059846414      0.10640559684183
  H   1.34417540966507     -0.35233008541072     -1.32805975892482
  H   2.49504529096874      0.07382700060183     -0.05178095529268
  N   0.41270661840133      1.83778872261245      0.04724413002436
  O   -0.59940786295914      2.46653366717011      0.34003705184394
  O   1.39816317131592      2.27957044793697     -0.53091610305034
  N   -1.01268770489320     -1.59961258252835      0.60688927102665
  H   -0.75893700620004     -2.19174676065588     -0.17358820635621
  H   -1.94291849907174     -1.85638715415373      0.90810004556668
  C   -1.34474811167522      0.04622014001388     -1.17091671799533
  N   -1.61489040613244      0.15666527223830     -2.30932591140659
