16
Coordinates from ORCA-job run
  C   0.45534235761961      0.38561667561666      0.42319594939654
  C   -0.84217797847409     -0.43124087155068      0.30813573388959
  Cl  0.42092348310202      1.29623850583038      1.94594669964616
  H   -0.80165147106485     -1.11564352602325      1.16281323756503
  C   1.69292800854107     -0.47983540243740      0.35416000794294
  H   1.71614314482679     -1.00155939917931     -0.60223617871896
  H   1.66212497819526     -1.21434620460176      1.16068330682380
  H   2.57999726543936      0.14063104247161      0.46943257727839
  N   0.53705224625197      1.41174541347784     -0.70607388479010
  O   -0.41725991620034      1.48295770084352     -1.47744912227170
  O   1.56234934301206      2.07483070673471     -0.76664942819779
  N   -0.83962982973084     -1.23025914296190     -0.90403073751035
  H   -1.17401301158149     -0.67608466217087     -1.68184955829164
  H   -1.44670170785719     -2.03188985833430     -0.79193528759422
  C   -2.04911674561714      0.39763764953740      0.49226936544982
  N   -3.05731016646232      0.98820137274736      0.61158731938249
