16
Coordinates from ORCA-job run
  C   0.41222448861431      0.39160010581393      0.25857678547606
  C   -0.76084125188901     -0.44395755325251     -0.27477526410470
  Cl  -0.14081159890839      1.42921251568926      1.57265150760811
  H   -0.35481005293242     -1.03393548055332     -1.10152295191183
  C   1.59891793873367     -0.43668564600602      0.70389816634469
  H   2.41609061472482      0.22168039756671      1.00362464492960
  H   1.31838731099986     -1.05353151934882      1.55822504534921
  H   1.93284991495433     -1.07361140858359     -0.11633591892242
  N   0.85476601613721      1.24908753250886     -0.93481645383803
  O   1.19253788459702      0.58627457892089     -1.91073512858343
  O   0.86726649937777      2.46343576042632     -0.83957177753220
  N   -1.78235941283117      0.42871241537271     -0.81373542165540
  H   -2.30555625390711      0.87548555286003     -0.07062683959501
  H   -2.42643102310247     -0.09546935768883     -1.39182457300103
  C   -1.21359851424818     -1.37821023343667      0.77205955522235
  N   -1.60863256032020     -2.12908766028895      1.58490862421410
