16
Coordinates from ORCA-job run
  C   0.36061469393161      0.35090405525793      0.21831088447146
  C   -0.85064458758769     -0.50470711146573     -0.22970758182005
  Cl  -0.15534743799597      1.50720542117022      1.45208096441875
  H   -0.48164597620849     -1.16770923951138     -1.01755736313590
  C   1.53901964683263     -0.46291698942543      0.71179431684835
  H   1.86252743310439     -1.15211399702633     -0.07350106449212
  H   1.25289921884032     -1.03247545776673      1.59601604403770
  H   2.36295314639509      0.20360610843719      0.96925390532431
  N   0.86572460486454      1.13830551621475     -0.99674001207879
  O   1.56464008173568      2.11689683611239     -0.78339137281016
  O   0.59669179957206      0.66777696459440     -2.10092256977790
  N   -2.00302131982028      0.18921849065175     -0.74877217307154
  H   -1.77882235841342      0.62730882321330     -1.63175516751764
  H   -2.34238121489593      0.88248030044733     -0.09453506536425
  C   -1.24632521809967     -1.34680715062812      0.90750578122510
  N   -1.54588251225492     -2.01897257027557      1.82192047374267
