16
Coordinates from ORCA-job run
  C   0.36938558677248      0.47285660123302      0.17487431015722
  C   -0.70932712926152     -0.55632571435758     -0.19354405012674
  Cl  -0.33350565388245      1.74592570609736      1.17203292632942
  H   -0.21342792156904     -1.29166653612316     -0.83368390056009
  C   1.57763095586582     -0.12868066897625      0.86108155119317
  H   2.00459775401624     -0.91356053192334      0.23526650149727
  H   1.28485139905468     -0.54517782670105      1.82540416182745
  H   2.32866099206249      0.64492921228784      1.03000174829122
  N   0.82903526938472      1.05430273462881     -1.16899550021441
  O   0.75416821839863      2.25346465648331     -1.37025144746093
  O   1.27086761543798      0.20757362900770     -1.93956550611746
  N   -1.75074294333997      0.07856053814322     -0.97311976980351
  H   -2.31880200244306     -0.61777121529399     -1.43809616541509
  H   -2.35017099754955      0.64368176347042     -0.38416192127395
  C   -1.16581773386024     -1.24697425686699      1.02651823013931
  N   -1.57540340908718     -1.80113809110943      1.97823883153713
