16
Coordinates from ORCA-job run
  C   0.40525031795123      0.31137772189786      0.44178044949502
  C   -1.04643794181969     -0.18776311749985      0.19529659523288
  Cl  0.76200773107004      0.13401349146168      2.17413370519086
  H   -1.69192540899289      0.41330395097949      0.84112365416446
  C   1.45475657977582     -0.38530912558836     -0.38337208191924
  H   2.43963829617830      0.02513370783650     -0.16823524083560
  H   1.24873361395574     -0.25657376997181     -1.44718924899283
  H   1.46057959445834     -1.44699324398299     -0.13410862446374
  N   0.40269388964880      1.81336215253439      0.15388536247035
  O   1.27507127441177      2.25201599526312     -0.58713868301494
  O   -0.49367612054961      2.46062067103900      0.68409155387345
  N   -1.30241415263425     -1.58318446683671      0.45898434857872
  H   -1.13146667940135     -1.80337251298652      1.43129287370913
  H   -0.75028324234052     -2.18989204937864     -0.13265424098089
  C   -1.39254804710275      0.11521738349878     -1.19992188612055
  N   -1.63997970460900      0.32704321173406     -2.32796853638711
