16
Coordinates from ORCA-job run
  C   0.45454422261093      0.42319598122627      0.38728438193248
  C   -0.81277339128111     -0.44616433347797      0.35208803163905
  Cl  0.42889907595196      1.41439421132043      1.85943516398518
  H   -0.71359410312599     -1.09749931843457      1.22760681863489
  C   1.72119520278176     -0.39940833056576      0.32802501793634
  H   2.58789034652750      0.25695677100576      0.38017483822832
  H   1.73591735527470     -0.97299613689547     -0.59839529742824
  H   1.74130082650780     -1.08717908998467      1.17508793226215
  N   0.46107308789429      1.39086924534101     -0.79500751235870
  O   1.47536358688474      2.05605610382850     -0.94918267090514
  O   -0.54017910978508      1.42319130772510     -1.50704235681614
  N   -0.81853113867510     -1.28580033862087     -0.83266114297447
  H   -1.38268541029025     -2.11004378254104     -0.67112400470331
  H   -1.20859605143238     -0.77463930552927     -1.61413684222769
  C   -2.04726570004185      0.33660987861647      0.55279208233536
  N   -3.08155879980198      0.87245713698607      0.70305556045987
