18

C	0.0	0.0	0.0
C	-0.372709	-0.021855	-1.509867
Cl	1.801916	0.0	0.0
H	0.346699	-0.70224	-1.987225
C	-0.527507	1.21773	0.728637
H	-1.623092	1.1861	0.668206
H	-0.151829	2.144055	0.289856
H	-0.226605	1.178056	1.779414
C	-0.484578	-1.278165	0.662262
H	-0.082088	-1.336836	1.677955
H	-0.164699	-2.157482	0.098931
H	-1.577879	-1.250625	0.700714
C	-0.10349	1.309016	-2.107904
N	0.066711	2.352899	-2.62226
N	-1.714653	-0.519584	-1.739464
H	-2.054064	-0.186784	-2.634486
H	-2.43447	-0.222902	-1.013399
H	-3.564736	0.0	0.0
