18

C	0.0	0.0	0.0
C	-0.594298	-0.009284	-1.402398
Cl	1.806107	0.0	0.0
H	-1.697542	-0.009163	-1.165754
C	-0.469892	1.250345	0.720843
H	-0.127983	2.146077	0.20342
H	-1.568535	1.209687	0.720564
H	-0.094806	1.24934	1.747993
C	-0.470187	-1.238715	0.741709
H	-0.108744	-1.216091	1.773038
H	-1.570082	-1.206162	0.730163
H	-0.110709	-2.15384	0.264389
C	-0.274338	-1.244693	-2.133984
N	-0.028691	-2.191068	-2.788404
N	-0.266379	1.188499	-2.167537
H	0.646805	1.085078	-2.594544
H	-0.952041	1.301787	-2.903999
H	-3.231624	0.0	0.0
