18

C	0.0	0.0	0.0
C	-0.578353	-0.031352	-1.421123
Cl	1.80236	0.0	0.0
H	-1.679338	-0.104582	-1.207246
C	-0.483281	1.249287	0.712311
H	-0.141269	1.241876	1.75026
H	-1.583098	1.213915	0.679244
H	-0.109635	2.15764	0.234164
C	-0.469123	-1.234657	0.750641
H	-1.568579	-1.201671	0.742254
H	-0.111422	-2.149296	0.272162
H	-0.103416	-1.211482	1.780711
C	-0.154838	-1.234602	-2.145083
N	0.177763	-2.196896	-2.731545
N	-0.347378	1.138253	-2.258245
H	0.604685	1.465925	-2.133492
H	-0.983101	1.866352	-1.956325
H	-3.217037	0.0	0.0
