16

C	0.0	0.0	0.0
C	-0.599896	-0.143938	-1.402155
Br	1.948647	0.0	0.0
H	-1.701791	-0.11333	-1.267404
C	-0.364961	1.305833	0.584971
N	-0.597767	2.296569	1.174733
N	-0.474457	-1.133317	0.745167
H	-0.17137	-1.045362	1.70905
H	-1.503013	-1.085754	0.722016
N	-0.232511	-1.458096	-2.014756
O	0.869562	-1.529735	-2.554842
O	-1.059591	-2.357059	-1.925405
N	-0.22977	0.915247	-2.385289
O	-0.609769	0.710066	-3.53396
O	0.362295	1.912051	-1.985039
Cl	-3.450472	0.0	0.0
