16

C	0.0	0.0	0.0
C	-0.596528	-0.19451	-1.401101
Br	1.948612	0.0	0.0
H	-1.697555	-0.12643	-1.28139
C	-0.369055	1.32629	0.532761
N	-0.612885	2.341963	1.074003
N	-0.49438	-1.102718	0.778591
H	-1.521368	-1.027288	0.744516
H	-0.196645	-0.988783	1.741476
N	-0.272833	-1.55258	-1.938509
O	-1.159543	-2.395897	-1.875774
O	0.855839	-1.71043	-2.401519
N	-0.184114	0.796923	-2.433403
O	0.357549	1.833601	-2.064077
O	-0.487694	0.510189	-3.587297
Cl	-3.450849	0.0	0.0
