16

C	0.0	0.0	0.0
C	-0.555699	0.140166	-1.437152
Br	1.96051	0.0	0.0
H	-1.642342	0.310191	-1.321674
C	-0.353832	1.222727	0.740424
N	-0.565259	2.203479	1.352244
N	-0.496479	-1.130284	0.71917
H	-1.517283	-1.016387	0.769736
H	-0.267633	-1.97649	0.213219
N	-0.401365	-1.075389	-2.293122
O	0.29615	-2.011071	-1.907757
O	-1.013409	-1.026518	-3.354186
N	0.05458	1.272748	-2.199759
O	0.927565	1.01303	-3.023486
O	-0.358678	2.389621	-1.90288
Cl	-3.419039	0.0	0.0
