16

C	0.0	0.0	0.0
C	-0.402934	-0.030846	-1.573003
Br	1.958011	0.0	0.0
H	-1.443409	-0.306682	-1.73379
C	-0.409025	1.258882	0.657469
N	-0.747242	2.259737	1.187154
N	-0.195752	-1.221786	0.909129
H	-0.128538	-2.023824	0.27959
H	-1.19862	-1.211725	1.136127
N	0.265134	-1.058292	-2.342839
O	0.974208	-0.744351	-3.289934
O	0.024666	-2.199492	-1.947848
N	-0.354546	1.296895	-2.224651
O	0.480761	2.121744	-1.875554
O	-1.169119	1.434084	-3.140282
Cl	-2.35746	0.0	0.0
