17

C	0.0	0.0	0.0
C	-0.44709	-0.084862	-1.448733
F	1.416137	0.0	0.0
H	-1.538156	-0.010153	-1.446675
H	-0.17204	-1.081875	-1.83036
C	-0.45473	1.287856	0.650004
H	-0.105306	2.138372	0.064312
H	-1.546601	1.293986	0.688252
H	-0.051609	1.351295	1.665262
C	-0.462113	-1.215265	0.773443
H	-0.069094	-2.128756	0.317038
H	-1.554775	-1.241184	0.770095
H	-0.103372	-1.160057	1.805102
N	0.127173	1.009002	-2.236409
H	-0.304422	1.018641	-3.151837
H	1.116049	0.829893	-2.360154
Cl	-3.941631	0.0	0.0
