15
Coordinates from ORCA-job run
  C   0.48310064770463     -0.47561217725251     -0.41089303538284
  C   -0.87686293767431      0.21556388297608     -0.15072743671331
  Cl  0.36440632967641     -1.36839645200203     -1.95957309213950
  H   -1.61393600263801     -0.58820550312663     -0.05134017197039
  C   0.82833700558336     -1.45121627707387      0.70604516061663
  H   0.05298121258648     -2.21801248320143      0.76472006094694
  H   1.78369962410976     -1.93313868615367      0.49610299608831
  H   0.88047671147831     -0.91524719216575      1.65275620438311
  C   1.51368680860642      0.55507551679310     -0.53911372091138
  N   2.32038370521860      1.40860257763928     -0.58390094073957
  C   -1.27049059579425      1.05734455747209     -1.29713227643992
  N   -1.60622015401657      1.79478262090504     -2.14802173736672
  N   -0.80626863374599      0.94196811861954      1.10615910849060
  H   -0.31502960834313      1.82028550644243      0.97659464507685
  H   -1.73926411275171      1.15520599012832      1.43732423606121
