15
Coordinates from ORCA-job run
  C   0.45549708369174     -0.52078977636605     -0.41790789094920
  C   -0.74830075881697      0.46004525176292     -0.39410874285673
  Cl  -0.14134798870549     -2.05749090775456     -1.14071101872026
  H   -1.06085532267092      0.60467397875345     -1.43903368565933
  C   1.01548343443315     -0.79752216231668      0.96801284853922
  H   0.21561617294534     -1.16825470434752      1.60657114270508
  H   1.41916881494863      0.12540530657958      1.39106557640753
  H   1.81473375095970     -1.53639704573603      0.90399244205908
  C   1.48267787806639      0.01639190675430     -1.30985813901219
  N   2.30912843825938      0.47196215787276     -2.01024219163103
  C   -0.28559903510580      1.75507681596206      0.11662765064930
  N   0.06943313049581      2.79333177314106      0.53446902291612
  N   -1.79485539864017     -0.05394600194888      0.47715752832350
  H   -2.31019286126357     -0.78001171467280     -0.00518662373811
  H   -2.44058733859723      0.68652512231640      0.72115208096701
