15
Coordinates from ORCA-job run
  C   0.47827452238621     -0.54705026479176     -0.44474635062660
  C   -0.76470229071785      0.38619244639841     -0.46919489477546
  Cl  0.00397762381319     -2.09377770049931     -1.21048493883333
  H   -1.10863658918386      0.42531348700511     -1.50719661185627
  C   0.96346543106835     -0.81285376680037      0.97236341118993
  H   1.24986119491367      0.12654410967604      1.45304628173836
  H   1.82917763191389     -1.47500249989456      0.95211814721760
  H   0.16400305350776     -1.29543929258882      1.53494133442241
  C   1.53771898328792      0.04912939627353     -1.25920858475477
  N   2.39087120612374      0.54697051032045     -1.89593184546299
  C   -0.35045509786669      1.74410683813921     -0.07094564197651
  N   -0.05765319861695      2.81521536112279      0.31408368867070
  N   -1.82274997858880     -0.15275994636602      0.36263236806121
  H   -1.78354337287344      0.22576670928320      1.29982156303045
  H   -2.72960911916715      0.05964461272213     -0.02929792604473
