15
Coordinates from ORCA-job run
  C   0.37703127962351     -0.61252454874883     -0.03157371304542
  C   -0.63558910481778      0.56204923084052     -0.09462247564569
  Cl  -0.42287574076829     -2.06647002433545      0.62219505107769
  H   -0.04695995220399      1.43719708959842     -0.41697514206840
  C   1.58376418893450     -0.26897216606758      0.83336167151308
  H   2.29202816769099     -1.09758153199148      0.82990755903371
  H   2.08259426641650      0.62364162066292      0.44686091960346
  H   1.25959881599476     -0.08929087837640      1.85969049048524
  C   0.79131132917912     -0.88340585918336     -1.40964875313040
  N   1.12634929945095     -1.03053434996035     -2.52634987411724
  C   -1.12745160756007      0.85454196857151      1.25454262576169
  N   -1.52156098920130      1.12238151809528      2.32730599168300
  N   -1.74284181570766      0.24145975717709     -0.97623187653886
  H   -2.54558734252150      0.82373484450877     -0.77709390930249
  H   -1.47081079450974      0.38477332920894     -1.94136856530937
