14
Coordinates from ORCA-job run
  C   0.99171863522551     -0.42930538786354      0.33240660339008
  C   -0.34013127923530      0.31344819810008      0.15389514998191
  F   1.10651835425194     -0.91581360042189      1.62431960382529
  H   -0.34890689915435      1.11924475270799      0.89602546231695
  H   1.03815727577064     -1.28496809481720     -0.35100271016281
  C   2.12577471290268      0.46685105969460      0.05815703747483
  N   2.99640230086269      1.21956214948595     -0.17221848736858
  C   -1.50104857905176     -0.63089072869314      0.41894878977330
  H   -1.42411363890318     -1.08570610412106      1.40682694977724
  H   -2.43847387687736     -0.07860118908610      0.34909880825545
  H   -1.52148213952986     -1.43133238238928     -0.32829860498049
  N   -0.47842889459007      0.91728061491723     -1.15926554929761
  H   0.24358050782209      1.60435544961657     -1.33812553637612
  H   -0.44856647949366      0.21587526286978     -1.88976751660946
