14
Coordinates from ORCA-job run
  C   1.14623666084080      0.17479443307978     -0.03427628437128
  C   -0.35111209307636      0.37311776718470      0.24296391790323
  F   1.31843136843152     -0.18626277722261     -1.36432868209409
  H   -0.43925497465254      0.66766362532482      1.29550919144249
  H   1.68476011893007      1.11642647384496      0.11399799352943
  C   1.74211517766505     -0.85847590844395      0.82364603669226
  N   2.18691721707086     -1.67158617935556      1.54372333699434
  C   -1.12735662438514     -0.91576950787252      0.01344463575916
  H   -2.18389578067877     -0.73125336668185      0.20616729451252
  H   -1.01817837326125     -1.24599869786609     -1.02195999330766
  H   -0.78106598167579     -1.71837733873361      0.66711252698456
  N   -0.92258140105387      1.43751500687422     -0.56802095868339
  H   -0.77548425261832      1.23109209699404     -1.54950725985645
  H   -0.48053106153627      2.32711437287369     -0.36747175550512
