14
Coordinates from ORCA-job run
  C   1.05972234746035     -0.40203908394494      0.39344818311777
  C   -0.25370163866218      0.30657895774331      0.06164017950187
  F   1.05504478674389     -0.84999442641565      1.70576865127637
  H   -0.28089723757264      1.22568387977805      0.65635559463961
  H   1.17978024977143     -1.27436088076800     -0.25764575376253
  C   2.20412246317851      0.50080043352276      0.20645707060103
  N   3.11672959799620      1.22977527033531      0.09659560990098
  C   -1.44653736092313     -0.56856901543850      0.42379214645470
  H   -1.42145239225732     -1.50022172165377     -0.15138607584782
  H   -2.37634693921406     -0.04687615671056      0.18650143404792
  H   -1.45114271972932     -0.82471991589962      1.48399296596571
  N   -0.16539483884321      0.66637722824429     -1.34932336238403
  H   -0.62813842885946     -0.02576736977631     -1.92527093951655
  H   -0.59278788908905      1.56333280098363     -1.52992570399503
