14
Coordinates from ORCA-job run
  C   1.22978675959229     -0.01031281061025      0.05078242334700
  C   -0.24515358551092      0.39927635132844      0.04268137958134
  F   1.50332523028262     -0.87381575792634     -0.98976188940666
  H   -0.43193300542954      0.89758730173483      1.00775762947346
  H   1.86578383342333      0.87093131959580     -0.08028160774116
  C   1.58090728696055     -0.67186490464495      1.31915497858611
  N   1.83039228466807     -1.18414253314994      2.34493244331675
  C   -1.14151403352281     -0.82476394116294     -0.06215571769274
  H   -2.19013184259570     -0.52793357966143      0.01684984662035
  H   -0.93456542727352     -1.54163837177055      0.73455546354135
  H   -0.98573772608509     -1.31190652350348     -1.02511552854842
  N   -0.45525074528451      1.27346074530014     -1.10571170860060
  H   -0.19481165082176      2.22701008715575     -0.88539378751390
  H   -1.43209737840302      1.27611261731492     -1.36929392496289
