16

C	-0.457705	0.048703	-1.446671
C	0.0	0.0	0.0
F	-1.826323	0.186568	-1.527302
H	1.094043	0.0	0.0
H	0.015595	0.847091	-2.017695
N	-0.124157	-1.225574	-2.172984
O	-0.920998	-2.156834	-2.074127
O	0.937136	-1.242382	-2.786139
N	-0.471154	-1.173156	0.725431
H	-1.37563	-1.470299	0.382069
H	0.183034	-1.933269	0.593126
C	-0.472392	1.273743	0.694275
H	-1.562021	1.294939	0.781866
H	-0.139041	2.16783	0.159238
H	-0.038393	1.288582	1.693943
Cl	3.429818	0.0	0.0
