16

C	-0.549991	-0.051491	-1.407246
C	0.0	0.0	0.0
F	-0.076479	-1.143369	-2.072071
H	1.095048	0.0	0.0
H	-1.641677	-0.087102	-1.408064
N	-0.188218	1.167041	-2.220098
O	-0.914834	2.145332	-2.037692
O	0.761666	1.103878	-2.98583
N	-0.520029	-1.233763	0.627952
H	0.02708	-2.003934	0.256459
H	-0.26229	-1.180899	1.609776
C	-0.502111	1.206081	0.773548
H	-0.122695	1.142109	1.796903
H	-1.595326	1.23324	0.803808
H	-0.132701	2.138143	0.348656
Cl	3.466386	0.0	0.0
