16

C	-0.338899	0.007592	-1.488798
C	0.0	0.0	0.0
F	0.131284	1.121796	-2.104577
H	1.096146	0.0	0.0
H	0.034821	-0.881757	-1.998105
N	-1.837241	-0.002171	-1.68985
O	-2.412057	1.059201	-1.903429
O	-2.387044	-1.099355	-1.559948
N	-0.405098	-1.223586	0.683818
H	-1.288114	-1.576852	0.337021
H	0.306224	-1.930197	0.544432
C	-0.548718	1.228995	0.702775
H	-0.115514	1.264445	1.702375
H	-1.63865	1.180316	0.801673
H	-0.283838	2.14414	0.17064
Cl	3.416857	0.0	0.0
