16

C	-0.341707	0.014654	-1.48753
C	0.0	0.0	0.0
F	0.143606	1.121304	-2.104788
H	1.096135	0.0	0.0
H	0.015239	-0.880486	-1.99876
N	-1.841434	0.029312	-1.6825
O	-2.408406	-1.058037	-1.547053
O	-2.399921	1.099436	-1.895082
N	-0.408031	-1.224493	0.679169
H	0.296096	-1.936517	0.529897
H	-1.297205	-1.567584	0.337481
C	-0.545045	1.227884	0.707321
H	-0.281249	2.143617	0.175601
H	-1.634682	1.1801	0.810052
H	-0.107963	1.261244	1.705305
Cl	3.418721	0.0	0.0
