16

C	-0.207006	0.012128	0.008181
C	-0.465055	0.225011	-1.47115
Cl	1.521015	0.434875	0.326567
H	0.315033	-0.243453	-2.077505
H	-0.813415	0.712525	0.581195
C	-0.47963	-1.412574	0.43778
H	0.065658	-2.122447	-0.189487
H	-0.174362	-1.547348	1.477078
H	-1.551383	-1.591608	0.363062
N	-0.27243	1.716618	-1.81507
O	0.087837	1.943669	-2.974081
O	-0.56322	2.572093	-0.986847
N	-1.751245	-0.238437	-1.837808
H	-1.979471	0.005887	-2.791922
H	-2.478155	0.069304	-1.180226
Cl	-3.705989	0.387202	0.636085
