16

C	0.020106	-0.018019	0.034978
C	-0.572533	-0.031944	-1.365815
Cl	1.827589	0.091908	-0.055557
H	-1.65908	-0.165411	-1.236701
H	-0.30435	0.940036	0.440681
C	-0.401632	-1.146161	0.949073
H	-1.494112	-1.188127	0.938535
H	-0.0013	-2.10365	0.620642
H	-0.054556	-0.942895	1.964784
N	-0.079982	-1.266391	-2.121015
O	0.668393	-1.097911	-3.085238
O	-0.460846	-2.36372	-1.719945
N	-0.308645	1.175169	-2.06646
H	0.621597	1.163354	-2.463565
H	-0.987772	1.293839	-2.805655
Cl	-3.770574	0.117571	-0.486726
