15

C	-0.451754	0.000257	-1.460835
C	0.0	0.0	0.0
Cl	-0.20089	-1.701803	-2.029303
H	1.088152	0.0	0.0
H	-0.363806	-0.868834	0.543772
C	-1.887621	0.265586	-1.6076
N	-3.041694	0.446002	-1.736857
C	0.392438	0.909613	-2.343926
H	0.192503	1.946139	-2.078873
H	0.153613	0.738393	-3.394996
H	1.441112	0.687358	-2.138003
N	-0.435148	1.176365	0.738488
O	-0.638174	2.231568	0.119241
O	-0.476264	1.076421	1.968863
H	2.64064	0.0	0.0
