15

C	-0.449958	0.086138	-1.447188
C	0.0	0.0	0.0
Cl	0.010814	-1.402777	-2.350647
H	1.088434	0.0	0.0
H	-0.295648	0.910101	0.529796
C	-1.89307	0.28447	-1.612687
N	-3.027164	0.547989	-1.77526
C	0.327634	1.247311	-2.069803
H	0.030746	2.188886	-1.599313
H	0.13249	1.302767	-3.141926
H	1.389832	1.069271	-1.874278
N	-0.563884	-1.114585	0.775755
O	-1.429025	-1.832471	0.263762
O	-0.121202	-1.255032	1.914473
H	2.719027	0.0	0.0
