15

C	-0.40397	-0.036995	-1.450491
C	0.0	0.0	0.0
Cl	-2.21706	-0.17249	-1.631435
H	1.092764	0.0	0.0
H	-0.341086	-0.899241	0.511049
C	0.002618	1.135633	-2.229346
N	0.364646	1.974677	-2.96712
C	0.245979	-1.272744	-2.061598
H	-0.1423	-2.167889	-1.5721
H	1.321687	-1.194953	-1.871511
H	0.043697	-1.327672	-3.130658
N	-0.49423	1.136127	0.756082
O	-0.579229	2.231553	0.188143
O	-0.718458	0.954862	1.959078
H	2.603399	0.0	0.0
