15

C	-0.474691	0.080366	-1.437681
C	0.0	0.0	0.0
Cl	0.175939	-1.272799	-2.434625
H	1.088441	0.0	0.0
H	-0.300247	0.904832	0.533341
C	-1.936477	0.061765	-1.551912
N	-3.105854	0.169792	-1.619527
C	0.101477	1.375629	-2.013019
H	1.183862	1.348069	-1.858794
H	-0.319565	2.236452	-1.485231
H	-0.128658	1.462312	-3.076111
N	-0.516248	-1.123935	0.775483
O	-0.281816	-1.085982	1.984427
O	-1.094899	-2.052591	0.201401
H	2.650254	0.0	0.0
