15

C	-0.444681	0.096874	-1.460046
C	0.0	0.0	0.0
Cl	-0.237404	-1.57624	-2.126718
H	1.088927	0.0	0.0
H	-0.372135	-0.898227	0.48508
C	-1.868015	0.418962	-1.595811
N	-3.005736	0.690771	-1.709256
C	0.43037	1.035793	-2.285999
H	0.194157	0.935503	-3.346884
H	0.255334	2.060492	-1.957788
H	1.471777	0.770392	-2.089586
N	-0.431215	1.128634	0.809368
O	-0.58483	2.231745	0.263633
O	-0.524182	0.93782	2.028044
H	2.641605	0.0	0.0
