15

C	-0.532433	-0.034834	-1.425305
C	0.0	0.0	0.0
Cl	0.373156	1.071619	-2.528849
H	1.088235	0.0	0.0
H	-0.301573	-0.899964	0.536722
C	-0.311028	-1.394098	-1.934345
N	-0.242787	-2.485431	-2.365723
C	-2.019701	0.289903	-1.552402
H	-2.343542	0.173375	-2.588469
H	-2.594979	-0.388703	-0.916289
H	-2.183176	1.31807	-1.2352
N	-0.448625	1.124329	0.778685
O	-0.572124	2.229505	0.221375
O	-0.545548	0.954624	2.006708
H	2.517228	0.0	0.0
