12
Coordinates from ORCA-job run
  C   0.00555198028022      0.20615444427430     -0.35058660556978
  C   1.27989729069126     -0.31305821306470      0.25130990491236
  Cl  0.26192007352184      1.06536736827254     -1.84286942451892
  H   1.97105328973042      0.51147405945892      0.41395858504335
  H   1.06441814353522     -0.79943741638257      1.20159119449975
  H   1.72606213049919     -1.02865713509367     -0.44150374274743
  N   -0.96818641312102     -0.96585942392351     -0.53974046495052
  O   -1.30745240814238     -1.47821949994142      0.51992907531372
  O   -1.27937581771368     -1.30688286033634     -1.66705795336294
  N   -0.74225685607616      1.14237439014360      0.60181241585291
  O   -1.90866185445715      1.36717417557117      0.31413133378323
  O   -0.10296955874776      1.59957011102168      1.53902568174426
