12
Coordinates from ORCA-job run
  C   0.01600613926983      0.12988985089622     -0.38475716364134
  C   1.27401789592052     -0.22283597109029      0.35600657335989
  Cl  0.31574895960108      0.65403885306879     -2.01775671621249
  H   1.02311051659756     -0.58367599587969      1.35244318950864
  H   1.89762707014195      0.66991241952543      0.42815260400143
  H   1.81319164157072     -0.99738776840692     -0.18564043169853
  N   -0.96529744354413     -1.04278570220807     -0.44621614588045
  O   -0.51254065993232     -2.15282141996339     -0.20324351948259
  O   -2.11054835208649     -0.75715390049404     -0.76357828321287
  N   -0.74826391825810      1.19602747752817      0.41373388003367
  O   -1.13002447690779      0.79053546962520      1.50476434241852
  O   -0.87402737237281      2.31425668739859     -0.05290832919387
