18

C	-0.213269	-0.007439	-1.508905
C	0.0	0.0	0.0
F	-1.595134	0.013508	-1.832901
H	1.095779	0.0	0.0
C	0.446493	1.230945	-2.079799
H	0.416866	1.209812	-3.173345
H	1.479175	1.223095	-1.71827
H	-0.056263	2.123426	-1.710331
C	0.409228	-1.265663	-2.080904
H	1.439282	-1.294522	-1.715234
H	-0.127619	-2.154581	-1.741067
H	0.39314	-1.240808	-3.173495
C	-0.522705	-1.209721	0.634261
N	-0.942387	-2.168586	1.172435
N	-0.481411	1.224614	0.637047
H	0.096203	1.399303	1.450098
H	-1.441991	1.117973	0.941459
F	2.637111	0.0	0.0
