18

C	-0.341384	-0.008446	-1.497719
C	0.0	0.0	0.0
F	0.016581	1.281577	-1.962215
H	1.101747	0.0	0.0
C	0.58405	-0.991236	-2.189617
H	0.536161	-0.854462	-3.273954
H	0.298693	-2.020344	-1.950241
H	1.593213	-0.799541	-1.805379
C	-1.816374	-0.165909	-1.808614
H	-1.99121	-0.01914	-2.878766
H	-2.163572	-1.162856	-1.52602
H	-2.382754	0.577677	-1.242575
C	-0.504802	-1.216181	0.61951
N	-0.90613	-2.198186	1.127127
N	-0.595487	1.186718	0.654929
H	-0.240675	1.188454	1.607325
H	-0.132846	1.969021	0.201921
F	2.650023	0.0	0.0
