18

C	-0.211456	0.021847	-1.51427
C	0.0	0.0	0.0
F	-1.591831	0.162133	-1.825805
H	1.096549	0.0	0.0
C	0.531736	1.215496	-2.081389
H	1.55739	1.147034	-1.703068
H	0.513449	1.197728	-3.174465
H	0.07649	2.148994	-1.743379
C	0.303121	-1.26674	-2.118427
H	0.251886	-1.227936	-3.210271
H	-0.279414	-2.120807	-1.767107
H	1.341324	-1.372576	-1.791327
C	-0.55822	-1.205266	0.605909
N	-1.00894	-2.178062	1.088572
N	-0.474872	1.181339	0.715799
H	-1.29256	1.563779	0.256048
H	0.26749	1.867536	0.702328
F	2.639153	0.0	0.0
