13

C	-0.507861	-0.093597	-1.40839
C	0.0	0.0	0.0
F	-1.886757	-0.122115	-1.431133
H	1.090812	0.0	0.0
H	-0.125494	-0.961313	-1.940447
H	-0.355068	0.942027	0.432428
N	-0.118163	1.114563	-2.215347
O	0.57147	0.929982	-3.214487
O	-0.54138	2.198595	-1.821617
N	-0.451479	-1.199251	0.706986
H	-1.295208	-1.009973	1.230234
H	0.27465	-1.481015	1.35183
Br	3.585897	0.0	0.0
