13

C	-0.53523	-0.08765	-1.407636
C	0.0	0.0	0.0
F	-1.827104	-0.559675	-1.420003
H	1.094603	0.0	0.0
H	0.076155	-0.714846	-2.058924
H	-0.301541	-0.940429	0.482692
N	-0.551711	1.279912	-2.039639
O	-1.633125	1.82466	-2.218269
O	0.550624	1.731426	-2.31698
N	-0.499862	1.192139	0.674216
H	-1.299416	0.983947	1.255054
H	0.236025	1.572296	1.25227
Br	3.616903	0.0	0.0
