13

C	-0.395699	-0.033469	-1.468007
C	0.0	0.0	0.0
F	-0.056772	-1.222625	-2.030695
H	1.093371	0.0	0.0
H	0.023114	0.786828	-2.050477
H	-0.367668	-0.927218	0.449936
N	-1.893682	0.100818	-1.584656
O	-2.576453	-0.913944	-1.484309
O	-2.325891	1.250318	-1.695017
N	-0.449677	1.158477	0.750246
H	-1.402621	1.422543	0.537569
H	0.157468	1.944857	0.558393
Br	3.592994	0.0	0.0
