13

C	-0.554687	-0.047865	-1.403827
C	0.0	0.0	0.0
F	-0.453163	1.156095	-2.028842
H	1.100217	0.0	0.0
H	-1.599023	-0.373724	-1.405925
H	-0.340441	0.957042	0.405475
N	0.167163	-1.072562	-2.252076
O	0.668412	-0.7216	-3.308066
O	0.144614	-2.214412	-1.799294
N	-0.586814	-1.08205	0.805141
H	-0.144605	-1.943126	0.507914
H	-0.281353	-0.930504	1.761137
Br	3.628082	0.0	0.0
