19

C	-0.43043	-0.020515	-1.475376
C	0.0	0.0	0.0
Br	-0.048258	1.753869	-2.296322
H	1.096299	0.0	0.0
N	0.357815	-0.985272	-2.222815
H	1.337123	-0.782259	-2.004549
H	0.164841	-1.870888	-1.756857
C	-1.909437	-0.286752	-1.690389
H	-2.118548	-0.335166	-2.760303
H	-2.52513	0.494335	-1.239036
H	-2.153695	-1.248891	-1.230824
N	-0.344386	-1.339833	0.531661
H	-1.080785	-1.264767	1.224995
H	0.488661	-1.687678	1.000458
C	-0.536575	1.117632	0.874017
H	-0.260975	2.099628	0.489035
H	-0.098648	1.014909	1.871788
H	-1.630008	1.07474	0.97074
H	2.940725	0.0	0.0
