19

C	-0.4365	-0.033663	-1.47329
C	0.0	0.0	0.0
Br	-0.056553	1.730728	-2.312466
H	1.100567	0.0	0.0
N	0.345005	-1.006937	-2.214413
H	0.15492	-1.886638	-1.736435
H	1.325928	-0.80316	-2.001359
C	-1.918285	-0.301849	-1.678557
H	-2.532279	0.479221	-1.224352
H	-2.13706	-0.353405	-2.746126
H	-2.157228	-1.264141	-1.216798
N	-0.344733	-1.332707	0.545284
H	0.479669	-1.671376	1.034307
H	-1.094745	-1.25193	1.222794
C	-0.531546	1.126103	0.865313
H	-0.084415	1.035495	1.859959
H	-0.261029	2.103636	0.46708
H	-1.624479	1.082668	0.972781
H	2.939472	0.0	0.0
