19

C	-0.421243	0.026324	-1.475231
C	0.0	0.0	0.0
Br	0.06187	-1.716198	-2.315867
H	1.095896	0.0	0.0
N	-1.875643	0.099385	-1.60178
H	-2.125509	0.066076	-2.58624
H	-2.1627	1.006658	-1.24365
C	0.360563	1.078515	-2.252826
H	0.04055	2.075983	-1.931637
H	1.430226	0.965949	-2.039518
H	0.173028	0.988094	-3.326553
N	-0.489092	-1.153367	0.749504
H	-1.344275	-1.485169	0.317684
H	0.205291	-1.884968	0.664537
C	-0.456727	1.269006	0.722876
H	-1.543499	1.284512	0.868357
H	0.00663	1.248417	1.710642
H	-0.136934	2.188057	0.225445
H	3.002624	0.0	0.0
