16

C	-0.20003	0.105949	-1.508529
C	0.0	0.0	0.0
F	-0.075049	-1.20791	-2.046875
H	1.092215	0.0	0.0
H	-1.196959	0.42808	-1.831403
N	0.824945	0.969948	-1.958758
H	1.707844	0.696521	-1.489827
H	0.910046	0.94313	-2.965972
N	-0.637995	-1.23462	0.506827
O	0.025814	-2.019304	1.179736
O	-1.839959	-1.383215	0.259809
C	-0.557945	1.188794	0.75328
H	-0.341299	1.092072	1.82149
H	-1.640187	1.288048	0.615504
H	-0.057632	2.084703	0.383987
F	2.676094	0.0	0.0
