16

C	-0.207507	0.146981	-1.502826
C	0.0	0.0	0.0
F	-0.079444	-1.149758	-2.078116
H	1.092214	0.0	0.0
H	-1.206114	0.475121	-1.812814
N	0.813462	1.026708	-1.932441
H	0.892407	1.030779	-2.940309
H	1.698877	0.741423	-1.476611
N	-0.636894	-1.243157	0.485621
O	-1.82892	-1.409274	0.202948
O	0.016064	-2.013909	1.184921
C	-0.549994	1.169883	0.789141
H	-0.056624	2.075076	0.434517
H	-1.633995	1.269681	0.668835
H	-0.316849	1.046949	1.850375
F	2.674966	0.0	0.0
