16

C	-0.246199	-0.083903	-1.509614
C	0.0	0.0	0.0
F	-1.444279	-0.785492	-1.795172
H	1.0916	0.0	0.0
H	-0.466659	0.929	-1.877506
N	0.865128	-0.696353	-2.14518
H	1.694535	-0.607949	-1.538974
H	1.047377	-0.282683	-3.048372
N	-0.446789	-1.251709	0.65199
O	-1.219648	-1.173788	1.61593
O	-0.00918	-2.311825	0.2146
C	-0.605962	1.2161	0.653508
H	-0.381958	1.232789	1.720101
H	-0.157057	2.104487	0.201522
H	-1.692168	1.25464	0.528706
F	2.641062	0.0	0.0
