16

C	-0.502216	0.048303	-1.426058
C	0.0	0.0	0.0
F	-1.931154	-0.171436	-1.414287
H	1.094311	0.0	0.0
H	-0.410905	1.076932	-1.784531
N	0.143532	-0.819585	-2.331126
H	-0.370838	-0.865765	-3.200351
H	0.242277	-1.735277	-1.917549
N	-0.405078	-1.263899	0.647037
O	-0.269356	-2.319379	0.015811
O	-0.806659	-1.237292	1.813693
C	-0.493942	1.183795	0.803838
H	-1.584686	1.209756	0.884982
H	-0.06222	1.163818	1.802957
H	-0.145601	2.093312	0.307961
F	2.541968	0.0	0.0
