16

C	-0.199916	0.174806	-1.500335
C	0.0	0.0	0.0
F	-0.038355	-1.105961	-2.101973
H	1.090068	0.0	0.0
H	-1.199699	0.492311	-1.815804
N	0.811111	1.080718	-1.902849
H	1.697732	0.790396	-1.452689
H	0.894014	1.101455	-2.910836
N	-0.638716	-1.24683	0.471955
O	-1.793104	-1.469858	0.091706
O	-0.028876	-1.957453	1.267827
C	-0.547726	1.156859	0.810896
H	-0.329736	1.00501	1.870508
H	-1.629184	1.27	0.679603
H	-0.043689	2.065591	0.483932
F	2.672796	0.0	0.0
