17

C	0.0	0.0	0.0
C	-0.515457	-0.011458	-1.46144
F	1.392654	0.0	0.0
H	-1.63354	0.078889	-1.295787
N	-0.486905	1.101128	0.760472
H	-0.323276	1.964312	0.253523
H	-1.513213	0.956498	0.765577
C	-0.443794	-1.291221	0.656218
H	-0.153876	-1.234196	1.706414
H	-1.534815	-1.357871	0.579542
H	0.04224	-2.147499	0.186375
C	-0.164059	-1.214885	-2.196569
N	0.067289	-2.225011	-2.750935
N	-0.010724	1.170192	-2.217623
O	0.835013	1.001723	-3.095218
O	-0.460196	2.270155	-1.896058
H	-2.986041	0.0	0.0
