17

C	0.0	0.0	0.0
C	-0.444588	0.012181	-1.502301
F	1.38033	0.0	0.0
H	0.188063	0.752487	-2.027505
N	-0.255658	1.362724	0.572304
H	0.307192	1.513949	1.406778
H	-1.249375	1.296679	0.79714
C	-0.373833	-1.304397	0.796192
H	-1.443684	-1.431612	0.78424
H	0.103322	-2.197846	0.370776
H	-0.084734	-1.130506	1.842238
C	-1.896891	0.351038	-1.540614
N	-3.092961	0.475094	-1.919504
N	-0.066951	-1.325727	-2.074421
O	1.068878	-1.460682	-2.564928
O	-0.96653	-2.176222	-2.184983
H	-1.92838	0.0	0.0
