17

C	0.0	0.0	0.0
C	-0.373749	0.017478	-1.510373
F	1.379124	0.0	0.0
H	0.452251	0.558432	-1.980018
N	-0.510484	1.22048	0.538151
H	-0.291914	1.232507	1.531478
H	-1.54582	1.068414	0.463732
C	-0.425866	-1.262388	0.724935
H	-1.516607	-1.319378	0.653486
H	0.060903	-2.147177	0.307857
H	-0.129623	-1.163762	1.774243
C	-1.626515	0.655421	-1.942509
N	-2.235097	1.308526	-2.717983
N	-0.278273	-1.372318	-2.087849
O	0.859715	-1.834901	-2.170978
O	-1.305957	-1.958059	-2.409416
H	-2.861546	0.0	0.0
