13

C	0.0	0.0	0.0
C	-0.560233	-0.610184	-1.278767
Cl	1.790289	0.0	0.0
H	-0.274855	0.029062	-2.11978
H	-0.306069	-0.595131	0.863454
H	-0.063631	-1.575045	-1.420754
C	-0.445369	1.377774	0.209113
N	-0.800439	2.478235	0.411728
C	-2.072671	-0.784784	-1.190954
H	-2.462221	-1.192202	-2.125354
H	-2.614818	0.140692	-0.99985
H	-2.357315	-1.46726	-0.38971
Br	-5.378894	0.0	0.0
