13

C	0.0	0.0	0.0
C	-0.384911	0.106418	-1.486258
Cl	1.792072	0.0	0.0
H	0.247161	0.876995	-1.938201
H	-0.373167	-0.926364	0.435958
H	-1.425035	0.404217	-1.538919
C	-0.414084	1.108348	0.866298
N	-0.639742	1.990927	1.605576
C	-0.195537	-1.242523	-2.18157
H	0.846493	-1.583613	-2.129331
H	-0.840708	-1.98784	-1.707065
H	-0.485735	-1.217762	-3.236537
Br	-3.299585	0.0	0.0
