13

C	0.0	0.0	0.0
C	-0.530856	0.05162	-1.427886
Cl	1.792378	0.0	0.0
H	-0.047321	-0.759608	-1.981909
H	-0.325469	-0.918369	0.489102
H	-1.601357	-0.159498	-1.347062
C	-0.414508	1.14551	0.812711
N	-0.614327	2.10204	1.463623
C	-0.316148	1.393992	-2.110332
H	0.731218	1.705825	-2.094325
H	-0.919672	2.160217	-1.620627
H	-0.638122	1.336624	-3.152637
Br	-3.734484	0.0	0.0
