14

C	0.0	0.0	0.0
C	-0.574725	0.023111	-1.409554
F	1.349608	0.0	0.0
H	-0.416669	1.022485	-1.828582
H	-1.663103	-0.128336	-1.30695
N	-0.569979	0.914792	0.913102
H	-1.577262	0.709352	0.942477
H	-0.468838	1.85619	0.546381
N	-0.289387	-1.427021	0.587379
O	-1.456001	-1.700256	0.808763
O	0.683565	-2.145847	0.789134
C	0.030304	-0.966163	-2.296065
N	0.517182	-1.755017	-3.016155
Cl	-3.833768	0.0	0.0
