14

C	0.0	0.0	0.0
C	-0.49895	0.273589	-1.4035
F	1.388512	0.0	0.0
H	-0.136111	-0.512778	-2.06537
H	-1.59635	0.24297	-1.382828
N	-0.519718	0.859121	0.951621
H	-1.540407	0.864355	0.835264
H	-0.29602	0.519881	1.879144
N	-0.252938	-1.514346	0.33805
O	-0.269162	-2.324886	-0.581354
O	-0.317536	-1.785037	1.532864
C	-0.017555	1.566645	-1.874822
N	0.366022	2.588898	-2.303106
Cl	-3.526125	0.0	0.0
