14

C	0.0	0.0	0.0
C	-0.526973	-0.375132	-1.372707
F	1.373725	0.0	0.0
H	-0.482772	0.534064	-1.977846
H	-1.582311	-0.651771	-1.266456
N	-0.52059	1.20896	0.44854
H	-1.543367	1.149449	0.356019
H	-0.28741	1.326608	1.427918
N	-0.269139	-1.170945	0.998423
O	-0.593984	-2.265966	0.55631
O	-0.070684	-0.899857	2.180565
C	0.254131	-1.41598	-2.028715
N	0.880275	-2.217961	-2.612656
Cl	-3.523881	0.0	0.0
