16
Coordinates from ORCA-job run
  C   -0.83347193747917     -0.01029357995611     -0.43391233604010
  C   0.70044840398214      0.06608747928189     -0.64349194090791
  Cl  -1.55411077938862     -0.74806861925383     -1.90555426683694
  H   0.86414429739285      0.57070805385490     -1.60204691714353
  C   -1.24271178960129     -0.83739645423013      0.77852150868645
  H   -0.85801593441706     -1.85344944704754      0.67776212170011
  H   -0.85312587182429     -0.38805443560834      1.69416926327669
  H   -2.33019773091887     -0.87716904949373      0.84680585267052
  C   -1.35429380915192      1.35332717881129     -0.32217238647266
  N   -1.74717655111412      2.45484098053929     -0.20532033740677
  C   1.24407143548446     -1.28894317102851     -0.75413290321288
  N   1.69768605635551     -2.37107329260429     -0.79823926866124
  C   1.42415692191920      0.83815284413369      0.46565086350770
  H   2.48496672012778      0.91188339655523      0.22060363355446
  H   1.33703296353220      0.33088736369878      1.42710808452616
  H   1.02159760510119      1.84856075234740      0.55424902875995
