16
Coordinates from ORCA-job run
  C   -0.79492750774264     -0.13857907879722     -0.23062327376080
  C   0.68382716960512      0.31016489308383     -0.34783635807493
  Cl  -0.94486320427514     -1.86136736658283     -0.71190797463099
  H   0.68401168327873      1.38688097935637     -0.13233391657980
  C   -1.33710011455953      0.02585774856758      1.18550893302781
  H   -1.20005733485232      1.05826398497588      1.51852574642031
  H   -2.40122470640096     -0.21092919824944      1.20260849822652
  H   -0.82266031194303     -0.64985209883931      1.86805004879470
  C   -1.59840688952936      0.65784524810997     -1.16109320166579
  N   -2.24144784772604      1.33981720098847     -1.87000546245184
  C   1.15303280471797      0.14790500248004     -1.72608201900362
  N   1.56454610975809      0.01189845796617     -2.81740751323671
  C   1.63063079948981     -0.39354850833188      0.62753246581457
  H   2.65354905121352     -0.06363230668711      0.43990342114038
  H   1.58969337340614     -1.47507724212889      0.49578072392233
  H   1.38039692555963     -0.14564771591163      1.65937988205787
