16
Coordinates from ORCA-job run
  C   -0.78257371437399     -0.20723069437891     -0.21844579570183
  C   0.64799010621173      0.37308740695150     -0.35423782333043
  Cl  -0.78544567397282     -1.93248934556160     -0.71386250849900
  H   0.55600632653164      1.44305352931639     -0.12508525302304
  C   -1.31466420108806     -0.10342947741284      1.20719699636478
  H   -2.35181743174984     -0.43826106766950      1.23822558595070
  H   -1.26905266640161      0.93517532766206      1.54618775783552
  H   -0.72904092518626     -0.73271573075978      1.87669807334927
  C   -1.66941623005391      0.52090433594689     -1.12885104151344
  N   -2.38334586213653      1.14642872966548     -1.82176911911424
  C   1.10521651573662      0.26912257470843     -1.74213588526376
  N   1.50509478742933      0.18689742154206     -2.84313342078084
  C   1.67087677490526     -0.25390523009550      0.59634593631351
  H   1.72561247406477     -1.33298641397725      0.45051471827192
  H   1.41716101622955     -0.04226285634226      1.63539146824599
  H   2.65639870385412      0.16961149040481      0.39696031089490
