16
Coordinates from ORCA-job run
  C   -0.79450674757959      0.09375364676010     -0.16458069626212
  C   0.72298522180367     -0.14426293691787     -0.36537431533196
  Cl  -1.42362005290186      0.88462594877311     -1.65254813937274
  H   0.81554933382676     -0.74201846895117     -1.28019319377491
  C   -1.56281501758730     -1.20638388177349      0.04523233388462
  H   -1.37931694910677     -1.87676763022776     -0.79717107587638
  H   -2.63200931926042     -1.00116970285895      0.10539693472596
  H   -1.24016520518632     -1.68910389776311      0.96966467539960
  C   -1.01152537398353      1.00509664975183      0.95965691787189
  N   -1.17581839050935      1.71409177166170      1.88241837738589
  C   1.22760123049470     -0.94877444146301      0.75073548534079
  N   1.64097021046459     -1.57725258179672      1.65283909693743
  C   1.54674784772970      1.13853181491638     -0.50109410469117
  H   1.19778825907520      1.72680331594899     -1.34941844327045
  H   2.59567994131760      0.88453556114787     -0.66149436653976
  H   1.47345501140293      1.74129483279210      0.40593051357331
