16
Coordinates from ORCA-job run
  C   -0.79195231682123     -0.23236024661152     -0.15019349902359
  C   0.63073192523278      0.31042139681083     -0.43792678804823
  Cl  -0.81780936928950     -2.01313871631990     -0.37538039907832
  H   0.54869737078421      1.40360486981698     -0.37466465516330
  C   -1.25728374512849      0.09129600881952      1.26588685741559
  H   -0.64338052797940     -0.43601013187453      1.99536600771429
  H   -1.19200234582093      1.16853683165974      1.44149871965440
  H   -2.29304548481500     -0.22397457826054      1.39453250081314
  C   -1.72054566339600      0.35427058222350     -1.11920112717311
  N   -2.46800666034995      0.87147900473493     -1.86417015705224
  C   1.02681064360812     -0.01255746210372     -1.81077991609908
  N   1.38402668276067     -0.27455695163074     -2.89824277022182
  C   1.69490124409518     -0.16773119678885      0.55322701880261
  H   1.74134363414116     -1.25681712592165      0.57698068931132
  H   1.48843469833607      0.20697916345660      1.55611573479752
  H   2.67107991464230      0.21055855198934      0.24595178335084
