16
Coordinates from ORCA-job run
  C   -0.84362507304873     -0.01577053205899     -0.41559934814518
  C   0.68556565123911      0.04096934157633     -0.66067598882864
  Cl  -1.60242541582240     -0.79337632424039     -1.84673302047366
  H   0.83228519326429      0.51940092139545     -1.63537731243005
  C   -1.23229578989469     -0.79998290698709      0.83159680980876
  H   -0.85289692799365     -1.82028909064531      0.75794885253511
  H   -0.82410136447319     -0.32125169740973      1.72376491088646
  H   -2.31832823031231     -0.83339861051911      0.92192670011752
  C   -1.35084870926289      1.35527996936540     -0.33545587219614
  N   -1.73290611841864      2.46262250711504     -0.24099556806517
  C   1.21679607193895     -1.32080650059754     -0.74894030037046
  N   1.66638200166070     -2.40523253672005     -0.77792619797154
  C   1.44015992206066      0.83466349524798      0.41215759776405
  H   2.49490254318198      0.89664587077654      0.13942012804124
  H   1.37421711997403      0.35029168867159      1.38704123612587
  H   1.04511912590678      1.84923440502988      0.48684737320182
