16
Coordinates from ORCA-job run
  C   -0.77364518582192     -0.15279093196506     -0.28647851391140
  C   0.61710639853094      0.52196060203720     -0.17630156898535
  Cl  -0.68404295335337     -1.54301295103654     -1.41877959576213
  H   0.46607885404526      1.40948671271551      0.45240138655017
  C   -1.28279509157355     -0.64932655000190      1.06282047918785
  H   -2.29834078912601     -1.03117752416204      0.95564021725156
  H   -1.28928249202557      0.17306272206665      1.78329294837853
  H   -0.64925752815326     -1.45473549549012      1.43295126037941
  C   -1.71913409920452      0.81735060564864     -0.84364721168275
  N   -2.47937867896188      1.62012702814763     -1.24215953866709
  C   1.05415222969430      0.99594550437810     -1.49171225709717
  N   1.44201409176660      1.36876973891358     -2.53543884994368
  C   1.69347505946553     -0.36171583715617      0.45911482628253
  H   1.81064854282881     -1.29138824928404     -0.09816900618161
  H   1.44677438004562     -0.59080938953558      1.49609017286808
  H   2.64762726184302      0.16725401472413      0.44837525133306
