12

C	0.0	0.0	0.0
C	-0.465224	-0.364543	-1.401287
F	1.381617	0.0	0.0
H	0.407348	-0.621078	-2.0156
H	-0.361752	0.981256	0.279082
H	-1.213069	-1.143103	-1.397152
C	-0.442452	-0.999453	0.982437
N	-0.521217	-1.842921	1.797692
N	-1.099844	0.783999	-2.105426
O	-0.740199	1.922301	-1.81824
O	-1.863054	0.506448	-3.024685
F	-2.346858	0.0	0.0
