12

C	0.0	0.0	0.0
C	-0.466618	-0.21134	-1.433242
F	1.381729	0.0	0.0
H	0.414027	-0.325484	-2.08089
H	-0.359262	0.94853	0.379963
H	-1.152196	-1.04084	-1.533333
C	-0.441384	-1.092784	0.878142
N	-0.515646	-2.005506	1.614403
N	-1.184586	0.973103	-1.979008
O	-1.991847	0.766963	-2.877718
O	-0.833182	2.087049	-1.600827
F	-2.336102	0.0	0.0
