12

C	0.0	0.0	0.0
C	-0.503052	-0.064251	-1.422308
F	1.377399	0.0	0.0
H	-0.259	0.85077	-1.961084
H	-0.375366	0.923461	0.435843
H	-1.616873	-0.180645	-1.251898
C	-0.460557	-1.122525	0.840782
N	-0.657714	-2.017926	1.572269
N	0.10617	-1.162594	-2.198101
O	0.424772	-2.19871	-1.615374
O	0.22623	-0.98932	-3.414395
F	-2.566384	0.0	0.0
