12

C	0.0	0.0	0.0
C	-0.514911	-0.061529	-1.418205
F	1.377848	0.0	0.0
H	-1.628165	-0.193762	-1.230847
H	-0.375656	0.922857	0.437771
H	-0.297223	0.862157	-1.952639
C	-0.451072	-1.117915	0.850453
N	-0.6302	-1.999092	1.605119
N	0.106697	-1.143345	-2.202406
O	0.393931	-2.196629	-1.634175
O	0.269855	-0.942559	-3.40996
F	-2.575474	0.0	0.0
