15
Coordinates from ORCA-job run
  C   -0.75612086619065     -0.43003298417092      0.32739284855141
  C   0.32556297219005      0.67278666739056      0.30493216722203
  Br  -1.64129068508209     -0.36464715743905      2.14223580776569
  H   -0.20058806190210      1.62499743673544      0.44859541701104
  C   -0.14836013936547     -1.75642414019505      0.23112693977889
  N   0.34905509314390     -2.81547936351574      0.11960505563556
  N   -1.67078129622820     -0.23747991142836     -0.73844534597743
  H   -2.34262054929488     -0.99261944375852     -0.80018272365365
  H   -2.16501234718898      0.64197135558551     -0.63803413158901
  C   1.08574182068688      0.68598387964466     -1.02706919989768
  H   1.61679062770617     -0.25667531801187     -1.17256773807442
  H   1.81868490388473      1.49459839493360     -1.01936756395284
  H   0.39320644296345      0.83234579622260     -1.85422072230282
  C   1.26365349956258      0.50935391731505      1.41570119567137
  N   2.07107858511460      0.39232087069211      2.26029799381187
