15
Coordinates from ORCA-job run
  C   -0.73085409125456     -0.48219131776885      0.02592981197493
  C   0.37666574002191      0.58390175681235     -0.13971369856247
  Br  -0.29850483373072     -1.60116311200811      1.65957850505898
  H   0.09690652495324      1.11779143740394     -1.05704615094367
  C   -0.68094451876582     -1.41843364380928     -1.09681570873732
  N   -0.63433394577128     -2.14452750683123     -2.01981858283273
  N   -2.00223914997876      0.13124471568812      0.08780110703625
  H   -2.07286358727123      0.76578820847107      0.87581986507939
  H   -2.75377961215469     -0.54603962921653      0.12619057278960
  C   1.79425869114518      0.03260154705608     -0.28550051587412
  H   2.47537689317586      0.85115831787469     -0.52406704810925
  H   2.12860634933415     -0.44301110574048      0.63529175966640
  H   1.83288076304212     -0.69493214909459     -1.09838890905375
  C   0.28014338198577      1.54001967575002      0.96420817683674
  N   0.18868139526885      2.30879280541280      1.84753081567101
