15
Coordinates from ORCA-job run
  C   -0.78961318812609     -0.34771114791830      0.31644728416270
  C   0.54762955989087      0.43177291540919      0.39942543781946
  Br  -2.26600537399337      0.84668429011276      0.81134776605311
  H   0.67303811749905      0.75596483609823      1.43824978518207
  C   -0.79115413841267     -1.42058826842966      1.32530916580766
  N   -0.76736693588570     -2.31569994791361      2.08850390379012
  N   -1.01645174881593     -0.80188893680975     -1.03231858707941
  H   -1.91278158630774     -1.27017069759667     -1.10253581378908
  H   -0.28782464081997     -1.46111870508806     -1.29446567100755
  C   0.62109033364855      1.63376222239819     -0.54497868597413
  H   -0.10764515921015      2.38848787264534     -0.25216435137968
  H   0.41822017016241      1.32362269558488     -1.56898805944647
  H   1.61830973067862      2.07418834177457     -0.49340558033334
  C   1.61754509670705     -0.52390124720217      0.09105136252698
  N   2.44400976298508     -1.31340422306495     -0.18147795633244
