15
Coordinates from ORCA-job run
  C   -0.68150907071721     -0.53430571410914      0.14511038091323
  C   0.36101562504029      0.59705509483522      0.02145035782618
  Br  -0.05514105109515     -1.90850707206529      1.39178462621265
  H   -0.09306543996024      1.33341546147902     -0.65784437558613
  C   -0.83233110212446     -1.19176925004313     -1.16394763943471
  N   -1.01416985077336     -1.65990953034939     -2.22792135307415
  N   -1.90768680624798      0.00479402249694      0.67733316316655
  H   -2.59403498122211     -0.72806571287640      0.81696563453250
  H   -2.29011154395214      0.69211596414332      0.03462617376059
  C   1.70474246584423      0.15953702104586     -0.56381543577900
  H   2.34999995713636      1.03123321466895     -0.68287943869255
  H   1.56409903384994     -0.30276768427092     -1.54257611769009
  H   2.20120558503961     -0.54935012457230      0.09871426837054
  C   0.53852566704890      1.25082581657692      1.31910247816983
  N   0.74746151213333      1.80469849304035      2.33289727730454
