15
Coordinates from ORCA-job run
  C   -0.80203496340240     -0.37116369732634      0.26012864002285
  C   0.48659326588270      0.47314222769649      0.43035882961682
  Br  -2.36877580815084      0.77240101206037      0.56171218065341
  H   0.49538592300427      0.85085110195518      1.45855602567781
  C   -0.85305846104679     -1.39943218944708      1.31344550494945
  N   -0.86926865017805     -2.26208055171650      2.11335702455695
  N   -0.88126390270378     -0.89121499673787     -1.08090998901535
  H   -0.09731088717322     -1.51634876709650     -1.24954457212384
  H   -1.74146512912677     -1.41138614787967     -1.21035155473291
  C   0.60066668437377      1.63272377722279     -0.56191460857795
  H   1.56595571217830      2.12532558226938     -0.43309359925620
  H   -0.18857007753219      2.36148137943136     -0.38164130502798
  H   0.51818193337531      1.26672084362343     -1.58420387519012
  C   1.62211418308878     -0.44252522949453      0.27188313722109
  N   2.51285017741091     -1.18749434456051      0.09221816122596
