15
Coordinates from ORCA-job run
  C   -0.62849585646179     -0.55480174168670      0.26230267922339
  C   0.31122490309109      0.61831691055686     -0.08862189263238
  Br  0.16427227633888     -1.67063105044693      1.66320679250230
  H   -0.23232600703372      1.20638169900863     -0.84272150355626
  C   -0.78369592134448     -1.41534519680969     -0.92240829332190
  N   -0.97233794435807     -2.05252847123974     -1.89340200042804
  N   -1.86909142250192     -0.03247701012677      0.77715502837091
  H   -2.48785312788682     -0.78359561979338      1.06102440098727
  H   -2.33335227155952      0.52151917783273      0.06350333776417
  C   1.65805463290976      0.19719153253080     -0.67881717653814
  H   1.51108516147365     -0.41466181140872     -1.57067468915741
  H   2.23876210140122     -0.36707534485674      0.05077714604122
  H   2.22535424543900      1.08602279311786     -0.95899266371729
  C   0.49395049252726      1.47425509516172      1.08474354408873
  N   0.70544873796546      2.18742903816007      1.99292529037344
