15
Coordinates from ORCA-job run
  C   -0.65872485213728     -0.55708399378756      0.36891200860832
  C   0.28414308861917      0.46298636082828     -0.33557126203347
  Br  -0.16404538146676     -0.67641451067583      2.26841189436807
  H   -0.03837944731523      0.45349053029259     -1.38647127495498
  C   -0.43445270268859     -1.87361548224322     -0.23475961686788
  N   -0.24484511354883     -2.89698099054728     -0.78068671648817
  N   -2.06214957599508     -0.25100425487436      0.31086895135705
  H   -2.24584700059284      0.66418281244127      0.70749843887381
  H   -2.39757361177934     -0.28781012590230     -0.64578894082412
  C   1.77550323027018      0.13309924515451     -0.27374352050621
  H   2.14736222668528      0.20401715551418      0.74758413949381
  H   2.33201554423387      0.83500290350746     -0.89728077657967
  H   1.95300013358427     -0.87648417118401     -0.64918614439549
  C   -0.00016328736467      1.79878271351055      0.18910571559326
  N   -0.24484325050417      2.86683180796572      0.61210710435566
