15
Coordinates from ORCA-job run
  C   -0.70913501528322     -0.53457696776385      0.30367865011157
  C   0.33182530548380      0.44273362181198     -0.31803092481989
  Br  -0.48904060378126     -0.54181724671820      2.25805365747830
  H   0.16107566391344      0.37177334629651     -1.40171986452076
  C   -0.41182788907584     -1.88425027554953     -0.18392253423231
  N   -0.15328800778030     -2.93782989206553     -0.63599771376557
  N   -2.08772459209905     -0.23320091896105      0.02966312397165
  H   -2.31814652050694      0.70442160788790      0.34034541923254
  H   -2.28535432309456     -0.32859364234906     -0.96079380114052
  C   1.79693421572214      0.11776248456074     -0.02698030159408
  H   2.44108718593911      0.78406213426300     -0.60348845889547
  H   2.02089333871314      0.24626024003102      1.03123380177267
  H   2.01845856886759     -0.91121476157054     -0.31665710559174
  C   -0.01270571631308      1.80715525429811      0.08218771706518
  N   -0.30405161070495      2.89931501582850      0.40142833492844
