15
Coordinates from ORCA-job run
  C   -0.80322237659357     -0.44386101641196      0.44621312863553
  C   0.29661915387135      0.65135728375146      0.34285944184599
  Br  -1.62393540900036     -0.28131477967978      2.23117883858629
  H   -0.21110954220611      1.60872123263244      0.51285974689325
  C   -0.18395801661332     -1.76745615920577      0.35084220485675
  N   0.34270270568103     -2.80950206895943      0.21500867503508
  N   -1.85739543169573     -0.35438809543138     -0.52329812240862
  H   -2.25732949516199      0.57589825907113     -0.55088641927362
  H   -1.54558665469303     -0.63966512344054     -1.44330208999472
  C   0.96649044694981      0.65152063079073     -1.03522235695320
  H   1.72860520524537      1.43142814247272     -1.07387776081775
  H   1.45125727410592     -0.30720396567103     -1.23189871869609
  H   0.23568306817726      0.85510041409493     -1.81902981545286
  C   1.30590033062797      0.48311971725829      1.38851437959385
  N   2.15427874130541      0.34624552872819      2.18903886815014
