16
Coordinates from ORCA-job run
  C   -0.53253652286867     -0.09733424426623     -0.34596743672204
  C   0.91863818202649     -0.43960408764799     -0.66287713062781
  F   -1.25606821158049     -0.41815487222764     -1.51190532491885
  H   0.98015748994855     -1.51973314873928     -0.82344594899928
  H   1.17297961648719      0.04472492457218     -1.61668897181667
  C   -0.72153566596305      1.38567097232668     -0.10084853573052
  H   -0.32587383858204      1.96355531041694     -0.94049800994927
  H   -1.78524452072814      1.61186616607710     -0.00286404688450
  H   -0.21591905979902      1.69130499406022      0.81698261005311
  C   -1.08226953634172     -0.94489841387381      0.78003993619512
  H   -1.05298264273630     -1.99921758065265      0.49493829345601
  H   -0.47940210173974     -0.80508311463850      1.67748175337235
  H   -2.11919163896041     -0.67445179199003      0.99131962182147
  N   1.79145488989406     -0.07063024761909      0.45113252396575
  H   2.63628374614163     -0.62596814906803      0.42954900869376
  H   2.07150981480167      0.89795328327013      0.36465165809136
