16
Coordinates from ORCA-job run
  C   -0.52830452744305     -0.06059177560909     -0.36049634520181
  C   0.93358653396035     -0.30781454641045     -0.71439740204773
  F   -1.26220825901271     -0.47586535166764     -1.48955128195920
  H   1.01758371032058     -1.34414420635511     -1.07214656453090
  H   1.18941510158693      0.34468974935668     -1.55406111551195
  C   -0.81849662700562      1.40796075968896     -0.14233299754334
  H   -1.86919932392073      1.55592038578330      0.11674728306141
  H   -0.18803113171092      1.79536619968254      0.65818424223410
  H   -0.60850439139918      1.96453001917668     -1.05877390832546
  C   -0.98001324896567     -0.91985204134589      0.80257402602515
  H   -2.05693027810890     -0.81127943446728      0.94646913756709
  H   -0.76717895802268     -1.97348985827932      0.60242677553576
  H   -0.47504834377998     -0.61862505300770      1.72221912974704
  N   1.80041562966434      0.00948082499124      0.42002096358288
  H   1.88172200886556     -0.79501391641378      1.02849596638563
  H   2.73219210497167      0.22972824487687      0.09462209098134
