16
Coordinates from ORCA-job run
  C   -0.35382087463415      0.08974107457904     -0.21454984292200
  C   1.17114675357696      0.16539727797920     -0.29804886561995
  F   -0.77738932378644     -0.54509931562310     -1.40479440555829
  H   1.55145554575467      0.67812617684184      0.59148119016119
  H   1.41942235091374      0.79315204232733     -1.16007516007941
  C   -0.97478701454306      1.47139059788867     -0.20716008483288
  H   -2.06348567616915      1.39520454236251     -0.24508727303048
  H   -0.63983739172348      2.03993807272055     -1.07748575472617
  H   -0.69540354898754      2.01839337334411      0.69660102716652
  C   -0.84625013783158     -0.76914439168569      0.93176111454898
  H   -1.93684222817876     -0.81918762008589      0.92108279321226
  H   -0.52544836898348     -0.35584786923309      1.89146912945463
  H   -0.46283729529176     -1.78629236721301      0.83983192020205
  N   1.87643151220718     -1.09788004219448     -0.44894003539363
  H   1.45776370335186     -1.62078239252054     -1.20816505795671
  H   1.80088199432499     -1.65610915948746      0.39107930537389
