16
Coordinates from ORCA-job run
  C   -0.48898020930188     -0.08748370705754     -0.36251568762685
  C   0.94500543843284     -0.41493295290892     -0.78817530262737
  F   -1.28657262402108     -0.43317848684145     -1.47221515268505
  H   0.97467999165664     -1.47382413707871     -1.06324121697698
  H   1.15670512388289      0.15151701557053     -1.70037589549234
  C   -0.70186645914683      1.39262904174121     -0.11594709781251
  H   -0.13608205311881      1.73668458919533      0.75244492621164
  H   -1.75991589131110      1.59081216465132      0.06733806664378
  H   -0.39150842569799      1.96861168496756     -0.99099801743193
  C   -0.96298132719762     -0.93904262295619      0.79809425092863
  H   -0.41008436361320     -0.70986695433859      1.71153504144614
  H   -2.02254469592865     -0.75433485878922      0.98663399681617
  H   -0.83577305041289     -1.99872730924781      0.56425763346674
  N   2.00418950975756     -0.15619580485129      0.17447246136311
  H   1.87277703181803     -0.69663622603523      1.01868206004206
  H   2.04295200420210      0.82296856397901      0.42300993373475
