14
Coordinates from ORCA-job run
  C   1.05831019820576     -0.27608071880200      0.13845978657118
  C   -0.37498527703068     -0.12466720465305      0.67581329976519
  Br  1.46100277171002     -2.17144135810991     -0.13585906600901
  H   -0.44540245653413     -0.71046998101342      1.59838232702633
  H   1.76329301722819      0.01994767729113      0.92410371002229
  N   1.20730386929555      0.41587154325813     -1.11626489743906
  H   2.15103312706217      0.31002737613091     -1.46751650690650
  H   1.02921192206359      1.40612736601919     -0.97630653685337
  C   -1.46242125959764     -0.56476790885457     -0.30698157636178
  H   -1.38019686535402     -0.00855022751004     -1.23932185347906
  H   -2.44860149736685     -0.39406483216160      0.12813106962935
  H   -1.35551765751680     -1.62702301436631     -0.52531491417913
  C   -0.54834666866496      1.28915092270993      1.03074150140042
  N   -0.65468322350020      2.43394036006161      1.27193365681313
