14
Coordinates from ORCA-job run
  C   0.91839563686146     -0.34495835019400     -0.21376712117031
  C   -0.39801728549531      0.05483403229211      0.45827396300845
  Br  0.65702411686850     -0.37315882525541     -2.21435717871768
  H   -0.18425943400624     -0.01748643216649      1.53224265198671
  H   1.13433647524548     -1.38890111800601      0.01586397246748
  N   1.98208788812840      0.47664044064071      0.21485159700194
  H   2.87295913534562      0.16257648800689     -0.14608424723983
  H   1.84205625766143      1.44584693613609     -0.04607670157930
  C   -1.58507858393030     -0.84752991740365      0.12233733558352
  H   -1.31667337069845     -1.89203399215969      0.29851360204772
  H   -1.88366861201975     -0.73451889678647     -0.91869988363189
  H   -2.43437477933416     -0.59751626907695      0.76057178134399
  C   -0.69358852418258      1.46183598262635      0.17866714747733
  N   -0.91119892044410      2.59436992134653     -0.04233691857812
