14
Coordinates from ORCA-job run
  C   0.99131343443672      0.21539005055757     -0.04949557627050
  C   -0.37466076816301     -0.17500074687101      0.52555696106659
  Br  2.37401953893036     -0.06703197767686      1.38592403589086
  H   -0.32381339786067     -1.22770863304062      0.83047706930708
  H   1.03396014337198      1.28990024384304     -0.23122898153163
  N   1.26283903547791     -0.49009120125470     -1.24432504098870
  H   1.34842243390387     -1.48562717582314     -1.07711291402883
  H   2.10994505395203     -0.16098434382713     -1.68814730622487
  C   -1.48791462449365      0.01429844082951     -0.51356749078998
  H   -1.52230743345941      1.05417256404646     -0.84579619627260
  H   -2.45527487449593     -0.23804428531885     -0.07574488370737
  H   -1.30391504928265     -0.61845003313588     -1.37967324958518
  C   -0.67673490475109      0.61559566288574      1.72020629384660
  N   -0.97787858756646      1.27458143478588      2.64392727928852
