15

C	-0.312788	-0.011276	-1.469485
C	0.0	0.0	0.0
Cl	-2.044942	0.237902	-1.903403
H	1.095791	0.0	0.0
H	-0.008712	-0.950806	-1.923489
N	0.47779	1.034816	-2.217086
O	0.315069	2.209297	-1.907693
O	1.214307	0.620795	-3.106946
C	-0.492744	-1.238356	0.568386
N	-0.888108	-2.237421	1.048554
C	-0.458023	1.210184	0.806907
H	-1.534944	1.390267	0.735965
H	-0.194476	1.038741	1.852657
H	0.07991	2.092679	0.466835
F	2.501764	0.0	0.0
