15

C	-0.534847	0.102435	-1.411989
C	0.0	0.0	0.0
Cl	0.264487	1.392318	-2.32832
H	1.094298	0.0	0.0
H	-1.609392	0.282022	-1.469663
N	-0.339924	-1.200822	-2.152441
O	-1.37757	-1.79459	-2.460989
O	0.801958	-1.580638	-2.364385
C	-0.535232	-1.196116	0.619562
N	-0.965838	-2.167897	1.125641
C	-0.366566	1.242874	0.812312
H	0.174406	2.096544	0.404061
H	-0.019174	1.100047	1.836625
H	-1.441263	1.459512	0.827512
F	2.511902	0.0	0.0
