15

C	-0.296839	0.048294	-1.475769
C	0.0	0.0	0.0
Cl	-0.014833	-1.488617	-2.294905
H	1.096196	0.0	0.0
H	0.336505	0.801729	-1.939262
N	-1.715758	0.495596	-1.745963
O	-1.849306	1.668845	-2.102236
O	-2.631229	-0.285115	-1.51168
C	-0.584445	-1.135952	0.677267
N	-1.044237	-2.027586	1.291235
C	-0.363269	1.31957	0.682949
H	-1.438914	1.521896	0.718162
H	0.026853	1.293542	1.701744
H	0.140294	2.136375	0.16136
F	2.517904	0.0	0.0
