15

C	-0.314345	-0.01362	-1.470104
C	0.0	0.0	0.0
Cl	-2.061045	0.100396	-1.896262
H	1.095788	0.0	0.0
H	0.065611	-0.919119	-1.935489
N	0.387272	1.105002	-2.198396
O	1.19745	0.768403	-3.056226
O	0.09069	2.257797	-1.902739
C	-0.477013	-1.24707	0.564202
N	-0.856323	-2.25327	1.042257
C	-0.479031	1.201967	0.806807
H	-0.254061	1.017042	1.859022
H	-1.551753	1.389189	0.700524
H	0.073326	2.086981	0.497361
F	2.503822	0.0	0.0
