15

C	-0.313906	0.004163	-1.469686
C	0.0	0.0	0.0
Cl	-2.056431	0.1761	-1.896972
H	1.095818	0.0	0.0
H	0.036537	-0.910099	-1.941366
N	0.422426	1.10286	-2.195128
O	0.180587	2.262568	-1.878979
O	1.198822	0.744165	-3.074932
C	-0.485965	-1.248812	0.551888
N	-0.873114	-2.257729	1.017701
C	-0.467671	1.197794	0.820128
H	-1.539744	1.392461	0.721939
H	0.089009	2.081311	0.514832
H	-0.237243	1.001986	1.869052
F	2.503405	0.0	0.0
