15

C	-0.533057	0.11729	-1.41519
C	0.0	0.0	0.0
Cl	0.302123	1.382052	-2.327131
H	1.094351	0.0	0.0
H	-1.602916	0.324268	-1.471999
N	-0.377857	-1.195463	-2.150543
O	0.746528	-1.573407	-2.442112
O	-1.429986	-1.801278	-2.365473
C	-0.540254	-1.194594	0.618865
N	-0.989714	-2.156407	1.12705
C	-0.362094	1.241025	0.818788
H	-0.008984	1.096454	1.841984
H	0.175536	2.097414	0.410686
H	-1.43808	1.455205	0.838665
F	2.517266	0.0	0.0
