13
Coordinates from ORCA-job run
  C   0.69228844718465     -0.14924915661755      0.57085586478739
  C   -0.27837073708138      0.14519669779008     -0.55570109024835
  F   0.36229053955460      0.70243632973251      1.64019472188624
  H   -0.06935431952823     -0.55163138958661     -1.37419843291244
  H   0.53620405655689     -1.15786195611219      0.97029966221197
  H   -0.05781001549487      1.15555595230079     -0.91907015925379
  N   2.04172349762272      0.06040185852466      0.18972514283363
  H   2.67549108009393     -0.67414754450530      0.45343375987865
  H   2.16862298978358      0.34120914444069     -0.76826046221049
  C   -1.73882993945863      0.05088620137762     -0.13322549608894
  H   -1.95426559459246      0.76768762862677      0.65850423797281
  H   -2.40352299361775      0.25700213946826     -0.97480432216913
  H   -1.97446701102304     -0.94848590543971      0.24224657331245
