13
Coordinates from ORCA-job run
  C   0.84749643334119     -0.48493419349092     -0.18390444869243
  C   -0.62228642076523     -0.56364983524336      0.16736497527514
  F   1.44785091901700     -1.69268368184174      0.24651754551616
  H   -1.00582671008945     -1.50796404374745     -0.22785958290366
  H   0.99728551569014     -0.46052967719780     -1.26710533469177
  H   -0.70489984294819     -0.62389373098420      1.25882483284742
  N   1.47215360209644      0.65026633889996      0.39158210887082
  H   1.39332142205263      0.62086244803619      1.40086947502867
  H   2.45171279709112      0.69169273843994      0.14279157754057
  C   -1.41778214261153      0.61780191116102     -0.37465629605579
  H   -1.33291592264909      0.67670120823593     -1.46310969044792
  H   -1.04868428222782      1.55664203044707      0.03769127151466
  H   -2.47742536799721      0.52068848728536     -0.12900643380186
