13
Coordinates from ORCA-job run
  C   0.78315655307795     -0.65292436355155      0.20668850047283
  C   -0.37360196683126     -0.33337431023578     -0.71989902196817
  F   0.30039696103095     -1.38068839644586      1.29400573481509
  H   -0.80024345500692     -1.28617498507491     -1.04597674922876
  H   1.49043667127157     -1.33522019270932     -0.28575410682430
  H   0.02367785758957      0.15649034806145     -1.61686447066059
  N   1.38518533137661      0.54104702137975      0.72671152565679
  H   1.53623619853891      1.21917776375886     -0.00740931914962
  H   2.26894661570019      0.33744776447793      1.17425643547945
  C   -1.44774154317553      0.52478103474009     -0.05927714483370
  H   -1.06100915555722      1.50262141209688      0.22726102065089
  H   -1.81373359847360      0.03613127676288      0.84403962670362
  H   -2.29170646954121      0.67168562673958     -0.73678203111353
