13
Coordinates from ORCA-job run
  C   0.71553215251558     -0.54521675599771      0.13560258795788
  C   -0.30766230384720      0.55548366344527     -0.06334411555884
  F   0.25302257005810     -1.36135603324975      1.18315240233512
  H   -0.27818714977406      1.19156580072663      0.82887049421885
  H   0.74866872124606     -1.21237500094779     -0.73330537875028
  H   0.01281503750564      1.16639361714980     -0.91377954725079
  N   2.00039990738402     -0.03753458077679      0.45477108315954
  H   2.06084096894884      0.96672462764771      0.47838819645851
  H   2.75837768855632     -0.44785412291618     -0.06279544391481
  C   -1.72119716694009      0.03240463829412     -0.28386178754717
  H   -1.76830433100579     -0.60751689442933     -1.16904234558659
  H   -2.42473733674578      0.85498785227079     -0.42852301093046
  H   -2.04956875790164     -0.55370681121676      0.57386686540904
