13
Coordinates from ORCA-job run
  C   0.87827863772455     -0.62381064784724     -0.11233894253944
  C   -0.60706244984843     -0.59116710559646      0.19290927784699
  F   1.34435889544791     -1.88162243715990      0.30374865290355
  H   -0.72078803832355     -0.63826381998559      1.28210549094414
  H   1.05543605541283     -0.59631568418500     -1.19262440094630
  H   -1.05471351971091     -1.50368206888498     -0.20856778543628
  N   1.62148890131557      0.40055069645389      0.52663959592804
  H   2.09877973364688      1.03317842408412     -0.09109300607308
  H   1.13046231965864      0.88631667499719      1.25925957201585
  C   -1.30075402966681      0.64051527184911     -0.37709315396519
  H   -0.89379768919165      1.56285522218908      0.04204766347231
  H   -2.37105561794005      0.62215280428115     -0.16288307788398
  H   -1.18163319852498      0.68829266980464     -1.46310988626660
