15

C	0.0	0.0	0.0
C	-0.265034	0.060714	-1.516739
Cl	1.771397	0.0	0.0
H	0.325729	-0.784981	-1.933165
C	-0.534094	1.125778	0.741688
N	-0.610002	2.130181	1.36587
N	-0.547328	-1.268178	0.562104
O	-0.572291	-2.206929	-0.248481
O	-0.580125	-1.363237	1.799815
N	0.151994	1.362837	-2.044707
H	1.120225	1.331344	-2.345283
H	-0.441404	1.589274	-2.831359
C	-1.676256	-0.196469	-1.881684
N	-2.655821	-0.171149	-2.543947
H	-1.95612	0.0	0.0
