15

C	0.0	0.0	0.0
C	-0.240345	0.070575	-1.57114
Cl	1.762363	0.0	0.0
H	0.545684	0.760468	-1.889533
C	-0.562676	1.16226	0.666484
N	-0.649679	2.211918	1.206249
N	-0.432763	-1.24082	0.738861
O	-0.510973	-1.134552	1.960737
O	-0.473708	-2.292834	0.107745
N	-1.484293	0.637512	-2.068228
H	-2.236383	0.263399	-1.478691
H	-1.593746	0.363714	-3.040347
C	0.110456	-1.208082	-2.23423
N	0.361379	-2.086919	-2.972856
H	-2.092681	0.0	0.0
