17

C	0.0	0.0	0.0
C	-0.616726	0.044001	-1.374785
Br	2.042456	0.0	0.0
H	-1.695979	-0.060082	-1.096433
H	-0.212554	-0.961398	0.467216
N	-0.446276	1.031661	0.831907
H	-0.202181	1.951634	0.501784
H	-0.184849	0.911944	1.797852
C	-0.184697	-1.128654	-2.241056
H	-0.30706	-2.074733	-1.704615
H	-0.810595	-1.17582	-3.137218
H	0.862012	-1.043339	-2.5508
C	-0.433146	1.378633	-2.081487
H	-0.951616	2.177149	-1.544306
H	-0.880996	1.330662	-3.078751
H	0.626082	1.638031	-2.194875
H	-3.527945	0.0	0.0
