17

C	0.0	0.0	0.0
C	-0.378726	0.057662	-1.527578
Br	1.978716	0.0	0.0
H	0.540941	0.028278	-2.117477
H	-0.240352	-0.993767	0.379545
N	-0.583774	0.939548	0.896073
H	-1.593697	0.688503	0.881229
H	-0.514144	1.870592	0.500416
C	-1.13248	1.333539	-1.890624
H	-0.55555	2.236831	-1.657552
H	-2.089695	1.343781	-1.361377
H	-1.326017	1.341748	-2.96929
C	-1.212749	-1.172039	-1.886277
H	-1.449688	-1.170463	-2.95674
H	-2.143691	-1.139599	-1.310541
H	-0.660749	-2.093463	-1.664522
H	-3.304099	0.0	0.0
