17

C	0.0	0.0	0.0
C	-0.308051	0.031162	-1.536197
Br	1.980836	0.0	0.0
H	0.541189	-0.434921	-2.04379
H	-0.245638	-0.990977	0.386094
N	-0.617604	0.959871	0.845453
H	-1.62254	0.707278	0.859311
H	-0.548348	1.881683	0.42972
C	-0.413016	1.466303	-2.044696
H	-1.333527	1.934846	-1.687871
H	0.44777	2.069436	-1.734674
H	-0.439702	1.469783	-3.138159
C	-1.548088	-0.78082	-1.89329
H	-2.431402	-0.443585	-1.3283
H	-1.391833	-1.840516	-1.656109
H	-1.736952	-0.702885	-2.97232
H	-3.597646	0.0	0.0
