14
Coordinates from ORCA-job run
  C   -0.24402345116419      0.01936410941878      0.53988542744651
  C   1.02029064989498     -0.03259730559236     -0.30809535571471
  Cl  -0.19814784463578     -1.25453822481760      1.79450207180926
  H   1.87055018285247      0.13062271727919      0.35587088909025
  H   0.96070069267760      0.83692245543336     -0.99135182147035
  N   -0.26205687599977      1.28463182635556      1.24612950280679
  H   -1.07696324413908      1.34055351959911      1.84610126813697
  H   -0.30048038205983      2.04403782761697      0.57475290264200
  N   -1.38338066915171     -0.29446995150737     -0.31678166232843
  H   -2.20610250443135     -0.48251010776132      0.24405745568442
  H   -1.57704019249244      0.51161425692239     -0.90288250669901
  N   1.14955727707673     -1.31163068111267     -0.97603865512966
  H   0.30519129084699     -1.49423586990523     -1.50269716475297
  H   1.93990507072536     -1.29876457192882     -1.60645235152105
