14
Coordinates from ORCA-job run
  C   -0.33351967272162      0.01429421283485      0.60065264425956
  C   0.88502008047692     -0.63770793608151     -0.04036959833467
  Cl  -0.56219204308025     -0.79429732276618      2.24486171962685
  H   0.68848502143631     -1.71387099712451     -0.15013865547527
  H   1.72678149110908     -0.51348514844664      0.64145010648092
  N   -0.05434772336470      1.39049168018428      0.84373622562354
  H   -0.87471464928643      1.89252614837424      1.15880039064304
  H   0.29957123211563      1.78191556393881     -0.02239918760330
  N   -1.47911430717028     -0.21665194994363     -0.23609550065945
  H   -2.28084698407535      0.29830101252116      0.10855895495190
  H   -1.72304448449554     -1.20093512628751     -0.24590628856607
  N   1.16730018663058      0.06639628619230     -1.28633665684173
  H   0.46334557646626     -0.16828264969292     -1.97378553627864
  H   2.07527627595939     -0.19869377370274     -1.64402861782668
