14
Coordinates from ORCA-job run
  C   -0.44655654610508      0.01745599760720      0.54924417221984
  C   0.85170454252329     -0.57920291036251      0.00324328451126
  Cl  -0.66331390783128     -0.71139334624550      2.23293197622012
  H   0.74005211446020     -1.67154411856294     -0.07138882449000
  H   1.65342157880605     -0.37715658007089      0.71643412895981
  N   -0.43730482614147      1.44741848210870      0.72068230134203
  H   0.16903761552273      1.69211101754672      1.49362196647042
  H   -0.03195936182175      1.82705648933824     -0.13085574447281
  N   -1.51361014242498     -0.30131337677012     -0.33008225300222
  H   -2.34839318549444      0.19289502601846     -0.04138922951289
  H   -1.69189113135644     -1.29702398021338     -0.36017562720205
  N   1.15503119896504      0.09578668392332     -1.25322176810333
  H   2.08179104488928     -0.15284421262035     -1.57331386514229
  H   0.48299100600885     -0.18424517169693     -1.95573051779789
