14
Coordinates from ORCA-job run
  C   -0.35531629408431      0.32041835555999      0.33147607183003
  C   0.93695142414841     -0.01697788696560     -0.39258306619744
  Cl  -0.43349506106948     -1.10390264211345      1.73871927031963
  H   1.76315534574407      0.03140862114422      0.32702774771033
  H   1.07316451758441      0.77639396875697     -1.13220267768066
  N   -0.29000159192424      1.56106988123624      0.98490928224002
  H   -1.18757822109382      1.84237308703235      1.35742913445094
  H   0.38842538847169      1.54322913685563      1.73407395254051
  N   -1.45038770264926      0.19579176695341     -0.51460846927453
  H   -2.33671812409582      0.20186170009104     -0.02926932368095
  H   -1.34282720784179     -0.64158692337802     -1.07495328393055
  N   0.80295832858430     -1.29015534441385     -1.08456998022474
  H   1.49774607959940     -1.36827299190588     -1.81438886295855
  H   0.93392311862645     -2.05165072885305     -0.43105979514402
