14
Coordinates from ORCA-job run
  C   -0.47943773034748     -0.03374442706696      0.33005191267832
  C   0.50451337685009     -0.53235185769155     -0.71965163688552
  Cl  0.01199887515625     -0.87244735172833      1.92396048285240
  H   0.14265269747370     -0.15319927457548     -1.68009590798317
  H   0.44099050172006     -1.62483758502953     -0.73630897413219
  N   -0.40278023492696      1.37271649114721      0.41612346087453
  H   0.56907024606810      1.66208860894864      0.42757088116643
  H   -0.90404140648570      1.73802241733124      1.21499340189000
  N   -1.80489586937376     -0.53342327285651      0.03983013767548
  H   -2.25546070717570      0.14826283789003     -0.56102623384855
  H   -2.34939005012475     -0.62339752238397      0.88770961808327
  N   1.83397270167791      0.01423937671890     -0.47145201786132
  H   2.39391076733550     -0.02760685647881     -1.31220010223110
  H   2.29989683215273     -0.53432158422489      0.24049497772141
