14
Coordinates from ORCA-job run
  C   -0.48305842889494      0.09059428072752      0.41047869859103
  C   0.42438753364237     -0.54200432130505     -0.64294333686780
  Cl  0.12355216495404     -0.63273923189222      2.04184903319857
  H   0.03027633563171     -0.22216068837451     -1.61266421137285
  H   0.32403741918301     -1.63300210694683     -0.57072685994845
  N   -0.37816228902409      1.48532356050611      0.34611705006350
  H   -0.86513316123773      1.93117940332687      1.11127540996443
  H   0.59370762417864      1.76269229906863      0.29456162116419
  N   -1.86891504430639     -0.27409348075663      0.35451277075261
  H   -2.26545886048861      0.09503818248344     -0.50155461933819
  H   -1.98781898389641     -1.27791691596792      0.39444734913609
  N   1.78742824722160     -0.04388453488850     -0.51167991486152
  H   2.25386903161960     -0.52443017277756      0.24735181057813
  H   2.30928841141721     -0.21359627320334     -1.36102480105973
