14
Coordinates from ORCA-job run
  C   -0.34805132428737      0.31457698649368      0.34478392161036
  C   0.90010910441298      0.02151707090801     -0.47038885980878
  Cl  -0.21354016805550     -1.03361968966940      1.82114464110517
  H   1.77764306640764      0.16103792760959      0.17249545702632
  H   0.92027361599059      0.78101003760745     -1.25639500450785
  N   -0.31304277064998      1.59031510577234      0.92918589676645
  H   0.42500706755266      1.65642256911702      1.61673509149768
  H   -1.19352196936370      1.83455601311465      1.36347346242934
  N   -1.49809195595200      0.07495526483506     -0.39713399989770
  H   -2.33972553291186      0.04897551829392      0.16149880669705
  H   -1.37945223436052     -0.78143483986448     -0.92561248604801
  N   0.79634422329912     -1.29302647713722     -1.08614616562029
  H   1.02886685145305     -2.00796759849520     -0.40860414112852
  H   1.43618202646489     -1.36731788858541     -1.86503662012122
