14
Coordinates from ORCA-job run
  C   -0.33206431721159     -0.00419801441987      0.73140683301042
  C   0.80949551497452     -0.63878036033386     -0.06842869173618
  Cl  -0.41799097892073     -0.89835936330408      2.29889259558662
  H   1.73280049739906     -0.49739400475054      0.49677334751349
  H   0.62316400490810     -1.71469961959175     -0.14899873053976
  N   -0.00018366629287      1.36277445591375      0.98440525229003
  H   -0.82520352506246      1.84087943074503      1.32746851229289
  H   0.28008457743519      1.77349590633832      0.09961753906243
  N   -1.64347376041577     -0.13169101433844      0.12432995954662
  H   -1.90762995200802     -1.10532566863530      0.02223345290784
  H   -1.59988064231677      0.30102957444358     -0.79279597425178
  N   0.89621289654999      0.03025635759074     -1.36939074145858
  H   0.52695416837394     -0.55617175142634     -2.10465526342190
  H   1.85671518258742      0.23918407176877     -1.60185809080213
