14
Coordinates from ORCA-job run
  C   -0.45944403909256      0.08321644267873      0.11156051736636
  C   0.78666646049941     -0.77621160077375     -0.13897077449315
  Cl  -1.44994658407127      0.07838122712566     -1.44760326888567
  H   1.34059148082999     -0.77326658353676      0.80623082154035
  H   0.47328900022258     -1.80664204156764     -0.33172921128349
  N   -1.19610653996785     -0.44375975286914      1.21009595087294
  H   -1.43613491992230     -1.41728255687196      1.06499848129769
  H   -2.04780315960555      0.08198496276391      1.36639009144917
  N   -0.06999585612042      1.46055193535891      0.31228799751996
  H   -0.84478926045940      2.08806580821298      0.13804407983591
  H   0.21859711574565      1.56006702197445      1.28000262953311
  N   1.66256040080613     -0.33904327139740     -1.20173395223593
  H   1.83089654778179      0.65281481552427     -1.07802778090558
  H   1.19261935335378     -0.44887640662223     -2.09154558161167
