14
Coordinates from ORCA-job run
  C   -0.35452469854230      0.05557344270444      0.41443034841238
  C   0.89516375093482     -0.73157029588862      0.01097934111423
  Cl  -0.76553160238731     -0.59894858233799      2.17857911502587
  H   1.67494780219555     -0.54973622519850      0.75515233168119
  H   0.66201415900892     -1.79863764205787      0.05581062443524
  N   -0.08779204254778      1.44337664859395      0.46784939938910
  H   -0.91722456776165      1.98253667094707      0.68380867927934
  H   0.61173886592435      1.64044059096556      1.17151010546441
  N   -1.43243713486361     -0.21684620672858     -0.46062742204562
  H   -1.68951633951348     -1.19395274132027     -0.40623283577233
  H   -2.25011812926766      0.33829007215009     -0.23957379162560
  N   1.39680123333213     -0.40060653388595     -1.30844139278631
  H   1.59624624473843      0.59210670600694     -1.33917669544531
  H   0.65923245874960     -0.56102590395027     -1.98406780712658
