14
Coordinates from ORCA-job run
  C   -0.35890670553448      0.04608956889429      0.55950587153066
  C   0.86086688486484     -0.70771981082356      0.00607253303509
  Cl  -0.65019353051733     -0.68127954133851      2.23703862997334
  H   0.66008336816046     -1.78022054896463      0.05613710287198
  H   1.71704307888445     -0.51521698469720      0.66105392552333
  N   -0.08927930006950      1.43772360038864      0.59722721527525
  H   0.70540456914395      1.64641807502246      1.18776465071244
  H   -0.90422414647626      1.93627720255732      0.93296993749533
  N   -1.59845476896345     -0.12110155021324     -0.15211979932009
  H   -1.48674390376077      0.23820896999803     -1.09250315983720
  H   -1.86985209528505     -1.09529816780878     -0.18311621744415
  N   1.21972331667989     -0.35476114763790     -1.35549656155439
  H   0.52973517416542     -0.69980109303378     -2.00966677619803
  H   1.26479805870782      0.65268142765686     -1.44486735206355
