14
Coordinates from ORCA-job run
  C   -0.46540396562735      0.04808224354002      0.34876279752228
  C   0.48137955348574     -0.65624403674282     -0.63347442119657
  Cl  -0.03221646834035     -0.64091467338926      2.02908365707645
  H   0.13772654136522     -0.37659713954156     -1.63506693174582
  H   0.33396757309202     -1.73350933411861     -0.51863614429891
  N   -0.31810011962114      1.45046577183341      0.28070179436014
  H   0.62658022441879      1.73623875501656      0.49721523117426
  H   -0.96329918577177      1.89543972823725      0.92154569726158
  N   -1.86117663124848     -0.24908270866313      0.17162242558167
  H   -2.14502060830345      0.07744788439669     -0.74556569912839
  H   -2.02771105019539     -1.24466194031334      0.24451483480338
  N   1.89669871881941     -0.36597021641954     -0.54089604906694
  H   2.09993776624945      0.58467433487458     -0.81711715632903
  H   2.23663765167730     -0.52536866871027      0.39830996398589
