14
Coordinates from ORCA-job run
  C   -0.49851072729187      0.01960358609691      0.30572004485089
  C   0.52059337039932     -0.62424297732414     -0.65060380221483
  Cl  -0.11078567051271     -0.68460349271458      1.98956066828987
  H   0.37131687401488     -1.70836154305432     -0.63933355472160
  H   0.25644128833372     -0.26556011527451     -1.65088768863867
  N   -0.41486591432679      1.44488285038835      0.47300704767287
  H   0.48864347361028      1.71853880505205      0.83425676458755
  H   -0.58382016914882      1.88845795389754     -0.42281706718356
  N   -1.80977685538335     -0.27573754452163     -0.12453685379726
  H   -2.48582431885595      0.12835486643766      0.51139213797017
  H   -1.96667086454066     -1.27090205309944     -0.21150550722481
  N   1.92158518181071     -0.35449456317532     -0.41526128287308
  H   2.12379289385657      0.63112768769169     -0.51606551796810
  H   2.18788143803467     -0.64606346040026      0.51607461125055
