14
Coordinates from ORCA-job run
  C   -0.30985309765812      0.24674166084859      0.43080413072325
  C   0.97899697262249     -0.07191804199046     -0.34700648464480
  Cl  -0.37440362147775     -1.00270939833129      1.81509377272968
  H   1.83184130079710      0.05156315943551      0.32762828877077
  H   1.05666554535470      0.69881369351753     -1.12091739792158
  N   -0.27050703624311      1.57902206699318      0.89475702227398
  H   -1.10698915682415      1.78967144095947      1.42453209039661
  H   0.55082084362647      1.76266787530944      1.45531669171831
  N   -1.54917561987698      0.07775227098277     -0.27765962615214
  H   -1.56082264440452      0.71104343271901     -1.06924726494271
  H   -1.66445792350159     -0.87633662798294     -0.59093524264686
  N   1.07789008706855     -1.37127502074901     -0.97375259787553
  H   0.36452692456443     -1.48897144155450     -1.68068942332543
  H   0.97646742595248     -2.10606507015730     -0.28592395910356
