14
Coordinates from ORCA-job run
  C   -0.41705657840848     -0.01588207667126      0.65873410321853
  C   0.81895133822858     -0.69815370714744      0.03381851292218
  Cl  -0.58588775447926     -0.77635794518058      2.29706924587912
  H   0.64663156575963     -1.77817475778566      0.00370258010904
  H   1.68010485161421     -0.53280398971759      0.68813182098863
  N   -0.27788817971272      1.40353829844675      0.85543476233215
  H   0.61049110090124      1.61752140705363      1.29051228570822
  H   -0.35273879968273      1.90233487783799     -0.02210421015007
  N   -1.64776507621027     -0.24701566759870     -0.05176242885883
  H   -1.75245670102010     -1.22912786904578     -0.27267655403509
  H   -1.68369757033351      0.29641045792551     -0.90493367121863
  N   1.16301502448968     -0.24912699666823     -1.30273504767366
  H   0.41441247592924     -0.42980399364670     -1.95786063991624
  H   1.38288430292448      0.73764196219807     -1.31633075930535
