16

C	0.0	0.0	0.0
C	-0.450615	0.149181	-1.468961
F	1.361916	0.0	0.0
H	0.389521	-0.290545	-2.021998
H	-0.391414	0.737092	0.697847
N	-0.336425	-1.344964	0.593305
O	-0.682726	-1.37682	1.770457
O	-0.126098	-2.32748	-0.11684
C	-0.526598	1.645939	-1.760581
H	-0.647446	1.79203	-2.835221
H	-1.407318	2.053765	-1.258906
H	0.368843	2.179331	-1.422677
N	-1.672892	-0.480701	-1.904115
H	-1.558864	-1.48642	-1.839695
H	-2.442658	-0.238361	-1.22772
H	-3.421712	0.0	0.0
