16

C	0.0	0.0	0.0
C	-0.322708	-0.065216	-1.511821
F	1.359551	0.0	0.0
H	-1.351987	0.116462	-1.612202
H	-0.43164	0.877479	0.438293
N	-0.32972	-1.224652	0.68638
O	0.612754	-2.20616	0.689762
O	-1.674778	-1.619947	0.403634
C	0.066938	-1.484486	-2.082109
H	-0.553033	-2.23737	-1.55241
H	1.152546	-1.66744	-1.894463
H	-0.118549	-1.502203	-3.142731
N	0.429806	1.027395	-2.197045
H	0.224393	0.992806	-3.218664
H	1.458622	0.767909	-2.092029
H	-2.101076	0.0	0.0
