14
Coordinates from ORCA-job run
  C   -0.66973644513362      0.34916967128987      0.09390509212151
  C   0.69059037016152      0.31219028294731      0.06851579599503
  C   -1.33065795362251      1.58950702909046      0.37224848296122
  N   -1.92133891576405      2.58383446209369      0.59523735884564
  C   -1.56354735085819     -0.82660846639255     -0.19570812948280
  H   -1.06457200087456     -1.77274594126719      0.00929387196772
  H   -2.46316745947908     -0.77303491553798      0.41967489851585
  H   -1.88024158766341     -0.81613541172422     -1.24335843148122
  C   1.50782483269187     -0.91486819025129     -0.23427697031840
  H   1.80924455544787     -1.41063324714886      0.69372693881518
  H   2.41786108761667     -0.63594760317343     -0.76801321664520
  H   0.95586025064492     -1.62608967961314     -0.84739209444964
  C   1.42899497086128      1.49728335631370      0.38912896848633
  N   2.08188564597130      2.44307865337363      0.64701743466880
