14
Coordinates from ORCA-job run
  C   0.68929050389355      0.29330708736838      0.06728580753105
  C   -0.67124897608291      0.33051515357562      0.09056641344532
  C   1.42065644864347      1.48734731369646      0.37761807950143
  N   2.07333931514313      2.43608330026485      0.62479450873986
  C   1.53659733753692     -0.91067542139605     -0.23671417322935
  H   2.05510012583486     -1.24314666263215      0.66690174765674
  H   0.95230489068725     -1.73933067459647     -0.63136087950405
  H   2.30090465310867     -0.64723279922526     -0.97135559894551
  C   -1.59283288706781     -0.82331482022957     -0.19234390400202
  H   -2.11211960578007     -0.66521017885279     -1.14206084617094
  H   -2.35502191957696     -0.88703142057259      0.58777559700599
  H   -1.06497041927512     -1.77378412497553     -0.23464160408284
  C   -1.32425088289826      1.57386904364721      0.38238587783750
  N   -1.90974858416670      2.56960420392790      0.61214897421683
