14
Coordinates from ORCA-job run
  C   0.65436705985405     -0.15173588965100      0.09789190758876
  C   -0.65574593187477      0.16025242571959     -0.09497735780736
  C   1.06440956986336     -0.62666546506734      1.38623465029287
  N   1.43953860842259     -1.01737559653206      2.43203983504629
  C   1.73664034958488     -0.04757610623622     -0.93988113243682
  H   2.18378672101237     -1.02978577266339     -1.11465579626160
  H   2.53080504029625      0.61641320058146     -0.58876624274793
  H   1.34540460642470      0.33599492870574     -1.88239231926028
  C   -1.73899689540668      0.04726097262658      0.94016272749270
  H   -1.34088593650480     -0.30973522164720      1.89015370231472
  H   -2.21346500263785      1.01954156612612      1.09722265149129
  H   -2.51281598962746     -0.64579589419240      0.59955286339562
  C   -1.06297647468031      0.63016287730482     -1.38618132712917
  N   -1.43006572472633      1.01904397492532     -2.43540416197910
