14
Coordinates from ORCA-job run
  C   0.67360033813580     -0.01704004457218      0.09107602431079
  C   -0.67428952865882      0.02392028033440     -0.09097113137385
  C   1.18325571540394     -0.06075509865896      1.43003662304811
  N   1.63802647155731     -0.10404499795957      2.51548755546013
  C   1.70004350994765     -0.01639733443934     -1.00639284876894
  H   2.33855607470556      0.86752264307316     -0.92425588497933
  H   1.22847338169937     -0.02126505742342     -1.98959158682781
  H   2.34341515398791     -0.89596967529432     -0.91933787945951
  C   -1.70041758730614      0.02009165774788      1.00719746555308
  H   -2.34467690162035      0.89954053913899      0.92570188960997
  H   -1.22777048216171      0.01920046649596      1.98972029634095
  H   -2.33828915725481     -0.86385290057748      0.91963682513099
  C   -1.18350038859622      0.06159411012161     -1.43059252454818
  N   -1.63542659983946      0.08845541201328     -2.51771482349640
