14
Coordinates from ORCA-job run
  C   0.68973777535079      0.28380208643329      0.10001207426102
  C   -0.66970904219479      0.33886603344804      0.05331897965238
  C   1.41845136677317      1.46970957263941      0.44644637615113
  N   2.06631865161854      2.41239418905266      0.72687243653227
  C   1.53662075876586     -0.93202146903632     -0.15475120011527
  H   0.96355140142824     -1.75519427947026     -0.57626242053994
  H   2.00312090777225     -1.26663402849546      0.77627245329115
  H   2.34159652220636     -0.68148372942957     -0.84955276979016
  C   -1.59219210603386     -0.80253065664278     -0.27292694627768
  H   -2.38797193147315     -0.85811776018582      0.47352375935304
  H   -2.06798858813931     -0.63521282112785     -1.24349030398445
  H   -1.07543507244987     -1.75969772426480     -0.29526394838801
  C   -1.32031318640882      1.59145897218311      0.30859631027655
  N   -1.90578745721539      2.59366161489635      0.50820519957798
