15

C	0.0	0.0	0.0
C	-0.552359	-0.356897	-1.380642
Br	1.947685	0.0	0.0
H	-0.282982	0.440972	-2.075066
H	-0.31315	1.0226	0.220955
C	-0.457424	-0.870478	1.075906
N	-0.781141	-1.525872	1.995616
C	-2.04739	-0.619942	-1.353082
H	-2.412517	-0.747506	-2.373765
H	-2.62626	0.184415	-0.891894
H	-2.277188	-1.517945	-0.778231
N	0.132187	-1.571183	-1.931725
O	0.495332	-1.516779	-3.105833
O	0.2413	-2.544489	-1.193174
Cl	-5.017517	0.0	0.0
