15

C	0.0	0.0	0.0
C	-0.565207	0.039308	-1.415239
Br	1.949949	0.0	0.0
H	-1.654223	0.169575	-1.248319
H	-0.31862	0.890307	0.539571
C	-0.411963	-1.205857	0.709927
N	-0.608467	-2.214594	1.27941
C	-0.285422	-1.176755	-2.263276
H	-0.774243	-1.073078	-3.230624
H	0.783802	-1.325221	-2.425658
H	-0.704404	-2.049545	-1.759301
N	-0.096628	1.30242	-2.068711
O	0.190716	1.26798	-3.265245
O	-0.074215	2.318198	-1.375787
Cl	-3.416355	0.0	0.0
