15

C	0.0	0.0	0.0
C	-0.355101	-0.103654	-1.519351
Br	1.945971	0.0	0.0
H	0.561169	-0.397384	-2.036181
H	-0.356173	0.945212	0.403389
C	-0.390277	-1.081292	0.900454
N	-0.500071	-1.883679	1.752725
C	-0.842208	1.212625	-2.085395
H	-0.189358	2.017217	-1.730093
H	-0.802672	1.193156	-3.175637
H	-1.861259	1.390981	-1.747764
N	-1.235499	-1.261773	-1.91417
O	-1.953956	-1.105985	-2.893612
O	-1.011684	-2.332709	-1.359609
Cl	-3.037119	0.0	0.0
