15

C	0.0	0.0	0.0
C	-0.565246	0.099067	-1.411597
Br	1.953575	0.0	0.0
H	-1.654859	0.217684	-1.238115
H	-0.318431	0.865778	0.578077
C	-0.408399	-1.235874	0.658764
N	-0.600727	-2.264016	1.193907
C	-0.282009	-1.077691	-2.312483
H	-0.691661	-1.974424	-1.844167
H	-0.777282	-0.936217	-3.271664
H	0.787241	-1.211234	-2.486854
N	-0.1038	1.391218	-2.010547
O	-0.074369	2.374299	-1.272136
O	0.169174	1.412101	-3.210676
Cl	-3.414187	0.0	0.0
