18

C	-0.531157	0.034863	-1.43093
C	0.0	0.0	0.0
F	-0.044351	-1.072219	-2.133671
H	1.101271	0.0	0.0
C	-2.047642	0.002035	-1.528398
H	-2.409462	-0.949667	-1.135357
H	-2.362406	0.093047	-2.570488
H	-2.459813	0.822099	-0.941882
C	-0.0451	1.243988	-2.130412
N	0.242109	2.21395	-2.726535
C	-0.468332	-1.234668	0.745914
H	0.15132	-1.344763	1.641467
H	-0.324781	-2.12993	0.137686
H	-1.521376	-1.171394	1.048168
N	-0.461933	1.239627	0.660564
H	0.340344	1.86654	0.672286
H	-0.658204	1.026937	1.633051
H	2.911292	0.0	0.0
