18

C	-0.546093	0.002436	-1.428129
C	0.0	0.0	0.0
F	-0.037738	-1.100949	-2.11945
H	1.10135	0.0	0.0
C	-2.06161	-0.066847	-1.516285
H	-2.384675	0.008486	-2.557938
H	-2.398965	-1.025996	-1.117416
H	-2.49112	0.744346	-0.930605
C	-0.08097	1.213157	-2.143619
N	0.245513	2.173585	-2.737301
C	-0.466393	-1.217033	0.777926
H	-1.519467	-1.146343	1.077822
H	0.1537	-1.30605	1.675058
H	-0.321484	-2.124816	0.188746
N	-0.467281	1.253075	0.634807
H	0.299374	1.91315	0.540074
H	-0.554411	1.077857	1.628244
H	2.920979	0.0	0.0
