18

C	-0.355973	-0.007345	-1.493522
C	0.0	0.0	0.0
F	0.023529	1.228589	-2.036791
H	1.095468	0.0	0.0
C	0.384698	-1.084214	-2.260564
H	-0.0017	-2.074779	-2.01728
H	0.271905	-0.913017	-3.334096
H	1.437741	-1.018477	-1.969232
C	-1.821742	-0.087718	-1.690767
N	-2.989494	-0.161613	-1.79457
C	-0.496965	-1.247264	0.709511
H	-0.173858	-1.180309	1.749441
H	-1.591111	-1.327306	0.691323
H	-0.066743	-2.155833	0.281953
N	-0.463729	1.193104	0.694197
H	-1.430536	1.395733	0.457969
H	0.104413	1.972521	0.385884
H	2.973238	0.0	0.0
