18

C	-0.359313	0.06385	-1.48471
C	0.0	0.0	0.0
F	-1.745938	0.345142	-1.636539
H	1.097501	0.0	0.0
C	0.428173	1.139976	-2.202926
H	1.493861	0.9604	-2.017593
H	0.159256	2.111391	-1.784804
H	0.205679	1.137551	-3.272387
C	-0.154326	-1.23521	-2.152604
N	-0.014077	-2.265551	-2.698904
C	-0.566761	-1.219704	0.702132
H	-0.266131	-1.173054	1.749832
H	-0.179536	-2.147298	0.272944
H	-1.661519	-1.234266	0.65607
N	-0.403614	1.224406	0.694904
H	-1.218773	1.638374	0.260362
H	0.366004	1.883624	0.658918
H	2.913059	0.0	0.0
