18

C	-0.348406	-0.043888	-1.497194
C	0.0	0.0	0.0
F	-0.045592	1.20951	-2.050916
H	1.097542	0.0	0.0
C	0.473721	-1.075278	-2.24491
H	0.353489	-0.931513	-3.32164
H	0.163715	-2.088868	-1.985909
H	1.517885	-0.927337	-1.946988
C	-1.802386	-0.227278	-1.707321
N	-2.958518	-0.39611	-1.830265
C	-0.487351	-1.236579	0.734254
H	-1.582217	-1.301276	0.752489
H	-0.086139	-2.154292	0.29815
H	-0.127581	-1.168819	1.762085
N	-0.478529	1.199595	0.669655
H	-1.453847	1.372108	0.440504
H	0.065216	1.984447	0.331107
H	2.982981	0.0	0.0
