18

C	-0.44885	0.035221	-1.462949
C	0.0	0.0	0.0
F	0.101823	-1.048548	-2.149015
H	1.096208	0.0	0.0
C	-1.957211	-0.061966	-1.673006
H	-2.307226	-1.017877	-1.281325
H	-2.486981	0.746722	-1.16574
H	-2.186281	-0.011549	-2.740082
C	0.033772	1.272333	-2.116888
N	0.306648	2.270688	-2.670018
C	-0.504592	-1.240341	0.717509
H	-1.567545	-1.169754	0.972255
H	-0.328216	-2.139665	0.121399
H	0.062732	-1.331208	1.645696
N	-0.369311	1.215518	0.726491
H	-1.20648	1.660704	0.368818
H	0.401682	1.86904	0.648275
H	2.892888	0.0	0.0
