16

C	0.0	0.0	0.0
C	-0.473095	0.102903	-1.44539
F	1.393056	0.0	0.0
H	-1.504354	0.466826	-1.439057
H	0.16644	0.856359	-1.912616
N	-0.440692	1.196087	0.677147
H	-0.216831	1.107948	1.663469
H	-1.45859	1.205168	0.609484
C	-0.421198	-1.291286	0.676814
H	-0.024705	-1.299044	1.698514
H	-1.511677	-1.343432	0.712718
H	-0.018164	-2.147586	0.134192
N	-0.333659	-1.171197	-2.164812
H	-1.201815	-1.68402	-2.044886
H	-0.254336	-0.974663	-3.156169
Br	-3.908255	0.0	0.0
