16

C	0.0	0.0	0.0
C	-0.302742	0.198055	-1.501973
F	1.402929	0.0	0.0
H	0.044157	-0.711225	-2.00742
H	0.370068	1.006024	-1.805315
N	-0.466735	1.138238	0.745254
H	-1.472719	1.193869	0.59199
H	-0.343968	0.95824	1.736747
C	-0.458127	-1.33632	0.548045
H	-1.550407	-1.377152	0.522829
H	-0.125536	-1.444405	1.585816
H	-0.044148	-2.161643	-0.037485
N	-1.636517	0.519436	-1.954541
H	-1.901942	1.44257	-1.637481
H	-2.344366	-0.096617	-1.567277
Br	-4.322058	0.0	0.0
