16

C	0.0	0.0	0.0
C	-0.261145	0.051196	-1.528142
F	1.396123	0.0	0.0
H	0.161954	-0.867531	-1.951924
H	0.366131	0.875617	-1.897595
N	-0.487326	1.128576	0.736057
H	-1.470722	0.967923	0.941997
H	-0.43318	1.964202	0.162898
C	-0.490959	-1.276617	0.641408
H	0.01585	-2.132463	0.191447
H	-0.275357	-1.25281	1.711716
H	-1.571629	-1.370779	0.503191
N	-1.602107	0.238025	-2.040998
H	-2.251401	-0.416624	-1.61772
H	-1.960684	1.133314	-1.73322
Br	-4.212931	0.0	0.0
