16

C	0.0	0.0	0.0
C	-0.335621	0.285616	-1.471043
F	1.421888	0.0	0.0
H	0.201723	1.210927	-1.723204
H	0.126293	-0.507578	-2.069861
N	-0.470052	1.07163	0.808425
H	0.032855	1.922059	0.592114
H	-0.390238	0.86762	1.795523
C	-0.524323	-1.317529	0.502271
H	-0.175402	-1.500935	1.52261
H	-1.616435	-1.286325	0.497156
H	-0.17019	-2.132353	-0.133
N	-1.725306	0.427975	-1.835311
H	-2.222029	-0.450221	-1.761529
H	-2.205984	1.020583	-1.166485
Br	-4.663454	0.0	0.0
