16

C	0.0	0.0	0.0
C	-0.389995	0.206593	-1.462587
F	1.419499	0.0	0.0
H	-1.479989	0.260881	-1.506838
H	0.013125	1.183869	-1.759515
N	-0.453085	1.060843	0.855436
H	-1.454261	0.905084	0.996274
H	-0.375903	1.941511	0.352228
C	-0.436839	-1.332542	0.562663
H	-1.523381	-1.417448	0.501428
H	-0.123695	-1.389111	1.606816
H	0.0349	-2.146845	0.009965
N	0.092548	-0.796124	-2.411395
H	1.051235	-1.021448	-2.170101
H	-0.454803	-1.641004	-2.300864
Br	-3.909434	0.0	0.0
