16

C	0.0	0.0	0.0
C	-0.307182	0.25026	-1.490264
F	1.404604	0.0	0.0
H	0.30318	1.120394	-1.751011
H	0.113067	-0.605321	-2.032219
N	-0.464564	1.107635	0.791776
H	-1.46962	1.176781	0.638833
H	-0.346278	0.882503	1.774321
C	-0.45305	-1.35702	0.500542
H	-0.051908	-2.159008	-0.124868
H	-1.545346	-1.397292	0.496814
H	-0.09984	-1.506898	1.525738
N	-1.660178	0.482314	-1.939489
H	-2.0152	1.356651	-1.576261
H	-2.314057	-0.211096	-1.593405
Br	-4.343798	0.0	0.0
