14
Coordinates from ORCA-job run
  C   -0.62488703235236      0.21250481026703     -0.24481939977871
  C   0.69481486974172      0.82539760780239      0.22791275970871
  H   -0.68509831662413      0.34502394375369     -1.32967030711710
  H   0.78144939840217      1.86905708487679     -0.07808380939154
  H   0.83091755221743      0.72717288254993      1.30384754287364
  C   -1.71976284263254      0.96675189375046      0.36856279040575
  N   -2.58903053569124      1.56582457199570      0.88240260280274
  C   -0.72332564458709     -1.27663490242371      0.09795126146130
  H   -1.68843372803959     -1.67617807218219     -0.21590332705616
  H   -0.61646107422467     -1.43400221413239      1.17324875668530
  H   0.05916954270112     -1.83536812123518     -0.41853585975682
  N   1.81887486025373      0.09057861943518     -0.42241625413996
  O   2.63580909795223     -0.46545947508554      0.30674897665136
  O   1.82496385288321      0.08333137062784     -1.65124573334850
