14
Coordinates from ORCA-job run
  C   -0.63981709470973      0.18561652999284     -0.22853620836653
  C   0.68385810819927      0.85194613976653      0.15213126855682
  H   -0.74896050065746      0.25671714783555     -1.31534380827512
  H   0.73304424910081      1.87842961350122     -0.21423716596703
  H   0.86729411344475      0.81674997913385      1.22493874329100
  C   -1.72525685828540      0.94882107620276      0.39032488513579
  N   -2.58584508886612      1.55681624226693      0.90834606731616
  C   -0.68750114519755     -1.28425862079112      0.19793448899633
  H   -1.65578638368476     -1.72083695639966     -0.04982271198217
  H   -0.52923213514690     -1.38035918061536      1.27416517369344
  H   0.08447416397955     -1.85338802803599     -0.32302267313624
  N   1.79652327930679      0.10579287405560     -0.50491993141551
  O   1.75075602478288      0.02988744203265     -1.73058409998362
  O   2.65644926773388     -0.39093425894582      0.21762597213669
