14
Coordinates from ORCA-job run
  C   -0.54710420888980      0.00833099432399     -0.14468541194487
  C   0.97662528215313     -0.04933219260310     -0.14007222771128
  H   -0.86197835651808      0.47481232419001     -1.08218592452287
  H   1.33209573847996     -0.66133982183855     -0.97206163142804
  H   1.37490511001390     -0.42316502164567      0.80192736504963
  C   -1.01519341173891      0.85479946190849      0.95639874698124
  N   -1.38579614855972      1.50959092799986      1.85776487091621
  C   -1.13930593442235     -1.40077781915357     -0.03625846347402
  H   -0.82204848797630     -1.88646488985643      0.88868345785432
  H   -0.81436260490917     -2.00958515798514     -0.88294075498021
  H   -2.22914458352758     -1.35747805382580     -0.04237992214522
  N   1.56233146605105      1.31158026066954     -0.34376833388059
  O   2.46485166410781      1.65687375396933      0.41286242430005
  O   1.10312447573606      1.97215523384703     -1.27228419501437
