14
Coordinates from ORCA-job run
  C   0.77546896787061     -0.75412858585927     -0.26129385265298
  C   -0.47683161915260     -0.34182797909043      0.52828402197762
  H   0.45160265306962     -1.41331893074994     -1.07251540874611
  H   -0.89691715626371     -1.24070896823937      0.99515101464049
  H   1.43114446734774     -1.34089132042778      0.39880446889458
  N   1.40965237072426      0.42163266187407     -0.84559996721376
  H   1.91132525841521      0.93334518694581     -0.12890750342318
  H   2.08365712209332      0.14185701435198     -1.54658080414132
  C   -1.53216618938374      0.31703756494039     -0.36305091114891
  H   -1.10472744406730      1.18582654825504     -0.86107074161431
  H   -1.85969644817480     -0.39457493026949     -1.12506336779529
  H   -2.40249005509601      0.62456471199767      0.21933473388246
  C   -0.07489918916126      0.56289754245372      1.61070714737785
  N   0.28487726177864      1.30028948381758      2.45080116996285
