14
Coordinates from ORCA-job run
  C   1.04652409144828     -0.15507239138512      0.08114601818042
  C   -0.40884271718672     -0.17079107699786      0.57290020578262
  H   1.67537107166290     -0.61841592881031      0.84563166230178
  H   -0.68278943291008     -1.21683484309460      0.74751848644508
  H   1.37277840059073      0.89054250982215     -0.01563323822854
  N   1.15324550292125     -0.92843331424354     -1.15337755774605
  H   2.08093517626443     -1.32144441215200     -1.23920977845687
  H   1.00626034886095     -0.33262395058132     -1.95752518806101
  C   -1.36873111790522      0.43226834360449     -0.45430714189283
  H   -1.09098509299799      1.46550397425347     -0.67989607086703
  H   -1.33411762077392     -0.15790629395596     -1.37101134342248
  H   -2.39494712715534      0.42922159773124     -0.08340615497995
  C   -0.50102352404914      0.54419607390187      1.84844739332403
  N   -0.55267795877014      1.13878971190748      2.85972270762086
