16

C	-0.630647	0.106267	-1.375721
C	0.0	0.0	0.0
Br	0.063094	-1.323588	-2.51659
H	1.115741	0.0	0.0
C	-2.080668	-0.019278	-1.320678
N	-3.2386	-0.187439	-1.195312
N	-0.261935	1.396585	-2.118809
O	0.891029	1.771892	-1.997903
O	-1.133068	1.89482	-2.821124
N	-0.246051	-1.278541	0.596469
H	0.631167	-1.574073	1.022824
H	-0.945289	-1.200403	1.324197
N	-0.42783	1.104669	0.808697
O	-0.2068	1.026076	2.032258
O	-0.890774	2.122729	0.24519
H	2.330775	0.0	0.0
