16

C	-0.499236	0.002859	-1.421002
C	0.0	0.0	0.0
Br	-2.474047	0.155532	-1.511534
H	1.094035	0.0	0.0
C	0.068323	1.008422	-2.311593
N	0.514	1.721882	-3.134392
N	-0.120737	-1.345296	-2.093535
O	-0.685927	-1.607831	-3.14618
O	0.774016	-1.984213	-1.56325
N	-0.441362	-1.150876	0.718774
H	0.387442	-1.567906	1.13634
H	-1.053388	-0.852705	1.46872
N	-0.333282	1.256587	0.64469
O	-0.546467	1.243766	1.869273
O	-0.251945	2.290733	-0.03613
H	2.390374	0.0	0.0
