16

C	-0.490921	-0.043132	-1.424165
C	0.0	0.0	0.0
Br	-2.486543	-0.144212	-1.552596
H	1.090034	0.0	0.0
C	-0.076505	1.019644	-2.326359
N	0.210803	1.780709	-3.176805
N	0.083374	-1.352286	-2.007457
O	1.166711	-1.229557	-2.566845
O	-0.516582	-2.397837	-1.796694
N	-0.324744	-1.115776	0.795014
H	0.486183	-1.717227	0.886892
H	-1.147856	-1.623208	0.505038
N	-0.386689	1.279923	0.629487
O	-0.503901	1.317271	1.852861
O	-0.443095	2.272252	-0.111658
H	2.413495	0.0	0.0
