16

C	-0.628006	0.002059	-1.382703
C	0.0	0.0	0.0
Br	0.089819	-1.495067	-2.415747
H	1.088629	0.0	0.0
C	-2.076195	-0.140629	-1.322681
N	-3.234058	-0.307351	-1.198411
N	-0.276352	1.240795	-2.213396
O	0.862283	1.659184	-2.09317
O	-1.144362	1.656208	-2.97244
N	-0.264934	-1.229363	0.687253
H	0.603791	-1.497931	1.148572
H	-0.977933	-1.099462	1.393725
N	-0.441988	1.166892	0.730249
O	-0.926483	2.128721	0.096934
O	-0.216875	1.179998	1.952669
H	2.377079	0.0	0.0
