19

C	0.0	0.0	0.0
C	-0.48238	0.119725	-1.448691
F	1.390602	0.0	0.0
H	-1.577298	0.139247	-1.381467
C	-0.425535	1.177179	0.861431
H	-0.078242	1.005195	1.885624
H	0.018162	2.109352	0.506451
H	-1.514918	1.250929	0.858414
N	-0.445048	-1.277737	0.513004
H	-1.465873	-1.268592	0.44904
H	-0.212355	-1.327987	1.499992
N	0.008164	-1.041512	-2.214747
H	-0.703456	-1.273411	-2.898981
H	0.046925	-1.8224	-1.566833
C	0.003899	1.393412	-2.126204
H	-0.247142	1.348825	-3.189533
H	-0.467515	2.286631	-1.709402
H	1.090036	1.469657	-2.03921
Br	-3.938319	0.0	0.0
