19

C	0.0	0.0	0.0
C	-0.347291	0.101038	-1.50227
F	1.425213	0.0	0.0
H	0.211819	0.975942	-1.86259
C	-0.506213	1.168549	0.805688
H	-1.594439	1.112162	0.877468
H	-0.072357	1.138785	1.809921
H	-0.215097	2.109305	0.333553
N	-0.474999	-1.224381	0.545286
H	-0.506852	-1.206545	1.555242
H	0.090836	-2.000646	0.232927
N	-1.745364	0.298818	-1.818048
H	-2.329733	-0.386944	-1.346054
H	-2.086406	1.184927	-1.466003
C	0.146224	-1.128996	-2.258412
H	0.034557	-0.951553	-3.329462
H	-0.477441	-1.991055	-2.004946
H	1.191605	-1.357124	-2.036584
Br	-4.664932	0.0	0.0
