19

C	0.0	0.0	0.0
C	-0.302739	0.163875	-1.515847
F	1.399512	0.0	0.0
H	0.29794	1.034491	-1.814732
C	-0.469636	1.184524	0.81601
H	-0.100798	2.112853	0.372228
H	-1.560648	1.21422	0.868866
H	-0.065905	1.09088	1.826727
N	-0.456552	-1.211305	0.625647
H	-0.338345	-1.995676	-0.002368
H	-1.45361	-1.120764	0.809998
N	-1.671629	0.431037	-1.905331
H	-2.301614	-0.302054	-1.595088
H	-2.033145	1.255699	-1.44414
C	0.200935	-1.037709	-2.310793
H	-0.447523	-1.904203	-2.150978
H	1.225124	-1.303312	-2.043092
H	0.153923	-0.799152	-3.374092
Br	-4.386439	0.0	0.0
