19

C	0.0	0.0	0.0
C	-0.303471	0.847516	-1.270262
F	1.406734	0.0	0.0
H	0.209267	1.798723	-1.068822
C	-0.446568	0.670634	1.283101
H	-1.538165	0.691659	1.322797
H	-0.07506	0.09678	2.138229
H	-0.050106	1.687387	1.352381
N	-0.467868	-1.349264	-0.15948
H	-0.354323	-1.844175	0.720258
H	-1.472977	-1.296759	-0.324167
N	-1.680023	1.158632	-1.591554
H	-2.197405	1.518764	-0.798629
H	-2.193845	0.323483	-1.848639
C	0.342868	0.22172	-2.502019
H	-0.149723	-0.720423	-2.750107
H	1.401159	0.018623	-2.34311
H	0.222848	0.910486	-3.340483
Br	-4.336147	0.0	0.0
