19

C	0.0	0.0	0.0
C	-0.410307	0.148276	-1.469562
F	1.419579	0.0	0.0
H	-1.499941	0.043069	-1.467439
C	-0.440701	1.151873	0.874653
H	-1.522108	1.280697	0.793434
H	-0.182092	0.911069	1.907972
H	0.074653	2.06993	0.588637
N	-0.435742	-1.241353	0.56829
H	-1.427715	-1.134397	0.77776
H	-0.368617	-1.936638	-0.16958
N	0.15308	-0.997804	-2.195497
H	-0.276099	-1.056329	-3.110879
H	1.146692	-0.842626	-2.323383
C	-0.028594	1.495344	-2.078817
H	-0.259936	1.497397	-3.148866
H	1.043146	1.681091	-1.9562
H	-0.584098	2.315883	-1.620203
Br	-3.939228	0.0	0.0
