19

C	0.0	0.0	0.0
C	-0.284143	0.161147	-1.507063
F	1.414113	0.0	0.0
H	0.125101	-0.76728	-1.95208
C	-0.482679	1.153842	0.842935
H	-0.115033	2.0882	0.421743
H	-1.575469	1.169662	0.862025
H	-0.105785	1.027925	1.860333
N	-0.452124	-1.242325	0.54869
H	-0.423323	-1.967702	-0.15949
H	-1.418957	-1.142793	0.844027
N	0.423999	1.347462	-2.001372
H	1.420834	1.185789	-1.941785
H	0.18263	1.487112	-2.97529
C	-1.748177	0.274037	-1.867033
H	-1.860227	0.253118	-2.957054
H	-2.361766	-0.52022	-1.447929
H	-2.172603	1.206877	-1.498605
Br	-4.679866	0.0	0.0
