15

C	0.0	0.0	0.0
C	-0.471453	-0.429397	-1.434832
Cl	1.781783	0.0	0.0
H	0.426951	-0.515861	-2.053987
H	-0.265845	-0.800007	0.695626
N	-0.516089	1.295723	0.358941
H	-1.537746	1.141226	0.356551
H	-0.251326	1.484511	1.321813
N	-1.378697	0.489411	-2.107754
H	-2.238398	0.477693	-1.541831
H	-0.996858	1.429074	-2.035039
N	-1.059597	-1.75705	-1.305458
H	-1.922272	-1.606825	-0.774674
H	-1.356192	-2.023143	-2.240066
H	-3.15846	0.0	0.0
