15

C	0.0	0.0	0.0
C	-0.475002	-0.137149	-1.487441
Cl	1.818598	0.0	0.0
H	0.422003	-0.192676	-2.112004
H	-0.24219	-0.93099	0.51816
N	-0.509517	1.188309	0.624695
H	-0.258576	1.159794	1.609029
H	-1.533171	1.049838	0.576814
N	-1.291668	0.965014	-1.985013
H	-2.17132	0.898965	-1.46131
H	-0.853715	1.840656	-1.711451
N	-1.182485	-1.406125	-1.58993
H	-1.507487	-1.469588	-2.550696
H	-2.027227	-1.269354	-1.021212
H	-3.153099	0.0	0.0
