15

C	0.0	0.0	0.0
C	-0.514325	-0.018656	-1.445506
Cl	1.782308	0.0	0.0
H	-1.601068	0.093138	-1.318206
H	-0.277303	-0.945103	0.484251
N	-0.552233	1.166942	0.633088
H	-1.577656	0.996179	0.557565
H	-0.32783	1.142372	1.62255
N	-0.153694	-1.279495	-2.09345
H	-0.484584	-1.193124	-3.049474
H	-0.713812	-2.009649	-1.660392
N	-0.025814	1.062658	-2.279929
H	0.989367	1.032235	-2.262938
H	-0.30061	1.927143	-1.829113
H	-3.137111	0.0	0.0
