15

C	0.0	0.0	0.0
C	-0.498876	-0.012841	-1.440498
Cl	1.809476	0.0	0.0
H	-1.591566	-0.00628	-1.28597
H	-0.298965	-0.933171	0.482615
N	-0.526489	1.091999	0.756365
H	-0.459004	1.901383	0.143155
H	-1.537847	0.862595	0.81048
N	-0.028592	-1.200061	-2.175692
H	-0.025203	-1.993444	-1.54104
H	-0.727892	-1.413235	-2.883314
N	-0.120828	1.215766	-2.115705
H	-0.764496	1.389158	-2.87874
H	0.806698	1.082534	-2.506425
H	-3.187861	0.0	0.0
