15

C	0.0	0.0	0.0
C	-0.328977	0.113703	-1.528239
Cl	1.794592	0.0	0.0
H	0.186206	-0.751626	-1.971425
H	-0.281526	-0.998928	0.350878
N	-0.550141	1.092983	0.745453
H	-1.564671	1.050216	0.585163
H	-0.412971	0.92174	1.736916
N	0.232097	1.310681	-2.170745
H	-0.403496	2.061774	-1.930366
H	1.148628	1.531852	-1.798074
N	-1.736023	0.111728	-1.805634
H	-1.966473	-0.532793	-2.547831
H	-2.414609	-0.009962	-1.014268
H	-3.559054	0.0	0.0
