19

C	-0.36401	-0.01236	-1.500937
C	0.0	0.0	0.0
Cl	-0.021896	1.636613	-2.170875
H	1.090831	0.0	0.0
C	0.627533	-0.970669	-2.151363
H	0.363686	-1.99845	-1.882804
H	1.622707	-0.743596	-1.749921
H	0.598113	-0.878766	-3.240167
C	-1.809678	-0.321361	-1.852693
H	-2.485987	0.40686	-1.410588
H	-2.0841	-1.317603	-1.494449
H	-1.932084	-0.312128	-2.938736
N	-0.386787	-1.183175	0.722749
H	-1.212513	-1.646385	0.373408
H	0.408285	-1.80605	0.744803
N	-0.634241	1.168598	0.6843
O	-1.85876	1.114579	0.847929
O	0.067659	2.104161	1.049954
F	2.644231	0.0	0.0
