19

C	-0.345823	0.133121	-1.51629
C	0.0	0.0	0.0
Cl	-0.05295	-1.511478	-2.236778
H	1.091476	0.0	0.0
C	-1.794041	0.481178	-1.815519
H	-1.970352	0.459164	-2.894049
H	-2.022092	1.484109	-1.444985
H	-2.482247	-0.223573	-1.340901
C	0.659708	1.072791	-2.167182
H	0.611119	0.995255	-3.256868
H	0.441261	2.100771	-1.871696
H	1.650438	0.808009	-1.779494
N	-0.49963	-1.124336	0.724139
H	-1.397286	-1.449275	0.390699
H	0.184204	-1.862795	0.630934
N	-0.542931	1.246197	0.636421
O	-1.638913	1.177588	1.201418
O	0.096499	2.291336	0.512712
F	2.628106	0.0	0.0
