19

C	-0.397278	0.058404	-1.493251
C	0.0	0.0	0.0
Cl	-0.127424	-1.6373	-2.111038
H	1.099281	0.0	0.0
C	-1.864378	0.364966	-1.72468
H	-2.474216	-0.31828	-1.130176
H	-2.073016	1.395242	-1.428655
H	-2.119925	0.245757	-2.781048
C	0.581744	0.92854	-2.27241
H	0.506313	0.72097	-3.343556
H	0.36533	1.980637	-2.091799
H	1.58549	0.703592	-1.898234
N	-0.595599	-1.132314	0.700148
H	-0.638606	-0.869525	1.678134
H	0.087833	-1.877764	0.633832
N	-0.40078	1.2424	0.705736
O	-0.674828	1.170729	1.908687
O	-0.374744	2.312414	0.094211
F	2.59402	0.0	0.0
