19

C	-0.241213	0.146264	-1.500731
C	0.0	0.0	0.0
Cl	-2.0337	0.183855	-1.876982
H	1.097878	0.0	0.0
C	0.419417	1.389236	-2.071672
H	0.411467	1.338308	-3.163769
H	1.446151	1.378778	-1.692054
H	-0.070593	2.30724	-1.75474
C	0.377867	-1.087863	-2.141448
H	0.342085	-1.008905	-3.231478
H	1.414093	-1.108897	-1.787083
H	-0.12965	-1.992177	-1.813607
N	-0.522543	-1.213906	0.534287
H	-1.493952	-1.093598	0.796161
H	0.007914	-1.450553	1.363159
N	-0.492867	1.207249	0.763893
O	0.06113	2.28892	0.572367
O	-1.420684	1.04993	1.567737
F	2.618188	0.0	0.0
