19

C	-0.402632	0.012174	-1.465962
C	0.0	0.0	0.0
Cl	-2.223017	-0.183446	-1.647434
H	1.091929	0.0	0.0
C	-0.003906	1.300805	-2.156109
H	-0.181783	1.214632	-3.230788
H	-0.567385	2.154712	-1.779889
H	1.057668	1.459042	-1.951
C	0.270732	-1.185516	-2.109478
H	0.064846	-1.210275	-3.183296
H	1.341249	-1.077274	-1.908549
H	-0.079619	-2.10564	-1.644202
N	-0.506462	-1.13242	0.703458
H	-1.476488	-0.981243	0.953378
H	0.042457	-1.254856	1.544936
N	-0.446366	1.302637	0.651667
O	-1.52117	1.310015	1.266644
O	0.281557	2.28844	0.537646
F	2.616874	0.0	0.0
