14

C	-0.518676	-0.092201	-1.419887
C	0.0	0.0	0.0
F	-1.863906	-0.322641	-1.427118
H	1.092667	0.0	0.0
H	-0.00201	-0.885384	-1.955786
N	-0.271646	1.181567	-2.183584
O	-1.16613	2.019718	-2.18607
O	0.825068	1.270563	-2.725637
N	-0.375041	-1.249138	0.660861
H	0.338605	-1.465113	1.346469
H	-1.272111	-1.167061	1.12199
C	-0.509929	1.192854	0.689531
N	-0.945782	2.09169	1.307816
Br	3.400568	0.0	0.0
