14

C	-0.492282	-0.025013	-1.449752
C	0.0	0.0	0.0
F	-0.010524	1.028656	-2.146666
H	1.095452	0.0	0.0
H	-1.583903	-0.035297	-1.519608
N	-0.057085	-1.298058	-2.13691
O	0.915265	-1.264786	-2.87549
O	-0.758461	-2.28034	-1.884254
N	-0.4147	-1.133047	0.813038
H	-1.238898	-1.588742	0.445623
H	0.347824	-1.801369	0.832007
C	-0.50141	1.255674	0.576147
N	-0.94548	2.250449	1.01476
Br	3.408653	0.0	0.0
