14

C	-0.56079	-0.026393	-1.406134
C	0.0	0.0	0.0
F	-0.077295	0.988871	-2.176834
H	1.095583	0.0	0.0
H	-1.652378	0.000938	-1.413884
N	-0.198707	-1.314155	-2.104769
O	-0.924583	-1.612306	-3.055062
O	0.785342	-1.934528	-1.720386
N	-0.52267	-1.196477	0.68337
H	0.266775	-1.817829	0.815827
H	-0.878791	-0.952302	1.597785
C	-0.472878	1.224641	0.643439
N	-0.884977	2.181526	1.185811
Br	3.460458	0.0	0.0
