14

C	-0.439144	-0.109682	-1.454166
C	0.0	0.0	0.0
F	-1.764095	-0.453784	-1.542387
H	1.093646	0.0	0.0
H	0.163456	-0.851758	-1.978108
N	-0.26631	1.184352	-2.204412
O	-1.214259	1.963793	-2.206016
O	0.825202	1.349558	-2.737158
N	-0.377531	-1.188982	0.755135
H	0.37287	-1.865176	0.690122
H	-1.244164	-1.585898	0.419368
C	-0.548359	1.198342	0.641585
N	-1.001397	2.142912	1.171681
Br	3.39732	0.0	0.0
