14

C	-0.514053	-0.082933	-1.422806
C	0.0	0.0	0.0
F	-1.858061	-0.315999	-1.43575
H	1.092742	0.0	0.0
H	0.005531	-0.872401	-1.963229
N	-0.263294	1.199628	-2.170866
O	-1.191153	1.99982	-2.260999
O	0.873704	1.332978	-2.609342
N	-0.387704	-1.244554	0.659196
H	0.286721	-1.440281	1.385124
H	-1.308633	-1.170302	1.065997
C	-0.503504	1.201715	0.683379
N	-0.929203	2.109287	1.296506
Br	3.407841	0.0	0.0
