14

C	-0.510543	-0.045248	-1.422931
C	0.0	0.0	0.0
F	-1.872864	-0.173923	-1.443019
H	1.097188	0.0	0.0
H	-0.050994	-0.873524	-1.958192
N	-0.173326	1.207488	-2.187439
O	0.83192	1.15875	-2.889108
O	-0.925091	2.168369	-2.044746
N	-0.392119	-1.264454	0.622343
H	0.299806	-1.494373	1.324884
H	-1.299917	-1.1845	1.062339
C	-0.498763	1.174468	0.72875
N	-0.925141	2.049169	1.387314
Br	3.40323	0.0	0.0
