14

C	-0.435943	-0.125665	-1.452298
C	0.0	0.0	0.0
F	-1.767073	-0.446572	-1.536503
H	1.09368	0.0	0.0
H	0.154631	-0.885505	-1.963235
N	-0.238164	1.151304	-2.224078
O	0.857105	1.284427	-2.756743
O	-1.170914	1.947815	-2.242928
N	-0.37948	-1.178864	0.769047
H	0.380013	-1.847859	0.73198
H	-1.23684	-1.592082	0.428155
C	-0.550323	1.205918	0.623527
N	-1.00503	2.156577	1.140823
Br	3.396328	0.0	0.0
