14

C	-0.42784	-0.002097	-1.455994
C	0.0	0.0	0.0
F	0.265908	-0.917629	-2.157546
H	1.095201	0.0	0.0
H	-0.334277	0.977049	-1.934345
N	-1.89793	-0.377728	-1.563226
O	-2.227878	-1.188829	-2.41637
O	-2.651583	0.200754	-0.784939
N	-0.442122	-1.229632	0.644798
H	0.312771	-1.579528	1.220151
H	-1.258227	-1.071557	1.219815
C	-0.429063	1.226814	0.681313
N	-0.75168	2.197614	1.25889
Br	3.413009	0.0	0.0
