14

C	-0.409904	-0.164408	-1.449446
C	0.0	0.0	0.0
F	0.235895	-1.202577	-2.014441
H	1.093411	0.0	0.0
H	-0.241534	0.73802	-2.045036
N	-1.899332	-0.462211	-1.562443
O	-2.6349	0.104465	-0.758679
O	-2.260514	-1.203238	-2.4669
N	-0.455892	-1.140326	0.780957
H	0.282212	-1.40621	1.419993
H	-1.290343	-0.91445	1.305212
C	-0.419459	1.305876	0.525278
N	-0.745361	2.336142	0.986165
Br	3.415776	0.0	0.0
