14

C	-0.330422	0.243871	-1.475206
C	0.0	0.0	0.0
F	-0.014546	-0.860113	-2.197661
H	1.097309	0.0	0.0
H	0.17805	1.118903	-1.878265
N	-1.805634	0.483892	-1.660613
O	-2.163353	1.649051	-1.813236
O	-2.544969	-0.497505	-1.599466
N	-0.455519	-1.266303	0.535971
H	-1.35381	-1.526508	0.148613
H	0.228291	-1.969983	0.290715
C	-0.491886	1.127762	0.795881
N	-0.905055	2.03249	1.42049
Br	3.39739	0.0	0.0
