14

C	-0.406776	-0.154694	-1.461793
C	0.0	0.0	0.0
F	-1.681904	-0.635627	-1.584406
H	1.096102	0.0	0.0
H	0.281845	-0.832159	-1.97218
N	-0.344357	1.157572	-2.210334
O	0.683025	1.800811	-2.041123
O	-1.2883	1.451268	-2.936352
N	-0.374222	-1.166416	0.78918
H	-1.229191	-1.588725	0.454316
H	0.386822	-1.832366	0.764874
C	-0.577608	1.215985	0.582082
N	-1.078166	2.17419	1.04072
Br	3.404672	0.0	0.0
