16

C	0.0	0.0	0.0
C	-0.347022	-0.027623	-1.548894
Br	1.962631	0.0	0.0
H	-1.405155	-0.262558	-1.601497
C	-0.403971	1.264162	0.620375
N	-0.498394	2.315198	1.148963
C	-0.870873	-1.078701	0.592432
N	-0.867259	-2.147234	1.12956
C	0.448238	-1.004595	-2.393827
H	0.486312	-1.967336	-1.878771
H	1.463846	-0.663487	-2.592938
H	-0.076268	-1.142815	-3.342425
N	-0.278953	1.336551	-2.175606
O	0.824065	1.855314	-2.3366
O	-1.347452	1.843095	-2.514042
H	-2.043912	0.0	0.0
