16

C	0.0	0.0	0.0
C	-0.360074	-0.050787	-1.548102
Br	1.962028	0.0	0.0
H	-1.415365	-0.295679	-1.579676
C	-0.623803	1.15588	0.641788
N	-0.632685	2.20741	1.195794
C	-0.498382	-1.245905	0.591169
N	-0.544712	-2.334546	1.052736
C	0.437069	-1.009847	-2.412241
H	1.453283	-0.666512	-2.593628
H	-0.084565	-1.113981	-3.368801
H	0.473181	-1.988132	-1.927661
N	-0.307143	1.316322	-2.162252
O	0.742579	1.952878	-2.112429
O	-1.334729	1.695273	-2.728912
H	-2.105142	0.0	0.0
