16

C	-0.47975	0.005191	-1.454849
C	0.0	0.0	0.0
Cl	-2.281305	0.521294	-1.509198
H	1.089798	0.0	0.0
C	0.214153	1.042069	-2.227111
N	0.720491	1.800261	-2.968379
N	-0.237416	-1.241934	-2.060033
H	-0.318344	-1.197221	-3.065653
H	-0.821657	-1.964583	-1.663036
N	-0.453366	-1.184336	0.7814
O	0.136655	-1.36331	1.839205
O	-1.372974	-1.882089	0.345267
N	-0.468321	1.221777	0.722728
O	-1.198967	1.089302	1.698979
O	-0.072567	2.277578	0.244365
Cl	3.11674	0.0	0.0
