16

C	-0.544955	-0.032123	-1.432558
C	0.0	0.0	0.0
Cl	0.017155	1.540576	-2.207316
H	1.088044	0.0	0.0
C	0.100273	-1.085283	-2.22636
N	0.526693	-1.871636	-2.987774
N	-1.948522	-0.237692	-1.470464
H	-2.278218	-0.320123	-2.423381
H	-2.418745	0.518432	-0.98899
N	-0.484804	-1.220121	0.726722
O	-0.104924	-2.284048	0.258345
O	-1.209075	-1.069601	1.705883
N	-0.478739	1.174829	0.789629
O	0.217021	1.484119	1.747451
O	-1.538176	1.71806	0.470035
Cl	3.137826	0.0	0.0
