16

C	-0.542173	0.104881	-1.4319
C	0.0	0.0	0.0
Cl	0.500815	-0.866827	-2.502956
H	1.109734	0.0	0.0
C	-1.918107	-0.404494	-1.589144
N	-3.029944	-0.725725	-1.800933
N	-0.418804	1.493149	-1.83553
H	-1.256099	2.000871	-1.579711
H	-0.271614	1.548447	-2.8333
N	-0.440041	-1.243621	0.704627
O	-0.537725	-1.188546	1.925897
O	-0.609387	-2.239603	0.008741
N	-0.522666	1.134828	0.814687
O	-1.711007	1.423407	0.634589
O	0.234024	1.673922	1.606947
Cl	3.159191	0.0	0.0
