16

C	-0.600291	0.165477	-1.422813
C	0.0	0.0	0.0
Cl	0.433363	1.313959	-2.321358
H	1.10265	0.0	0.0
C	-0.493342	-1.132522	-2.10724
N	-0.461199	-2.162039	-2.672258
N	-1.970062	0.611053	-1.5336
H	-2.028854	1.552884	-1.16485
H	-2.547107	-0.008374	-0.974329
N	-0.51191	-1.263938	0.616596
O	0.291669	-2.003308	1.166648
O	-1.729053	-1.457345	0.528666
N	-0.428721	1.092864	0.926245
O	-0.537542	0.803836	2.113416
O	-0.57674	2.212665	0.443609
Cl	3.156	0.0	0.0
