15

C	-0.249519	-0.035226	-1.529936
C	0.0	0.0	0.0
Cl	0.250026	1.555011	-2.201031
H	1.097283	0.0	0.0
C	0.643862	-1.117226	-2.129935
H	1.645074	-0.930309	-1.725891
H	0.293115	-2.101105	-1.807325
H	0.625247	-1.066532	-3.219556
C	-1.661285	-0.220924	-1.871046
N	-2.789461	-0.411586	-2.141951
C	-0.459912	-1.239683	0.603651
N	-0.821428	-2.257227	1.069976
C	-0.57783	1.151236	0.664825
N	-1.029439	2.082242	1.223335
F	2.493565	0.0	0.0
