15

C	-0.207022	0.033968	-1.523299
C	0.0	0.0	0.0
Cl	-1.951734	0.238412	-1.981716
H	1.098594	0.0	0.0
C	0.629073	1.167381	-2.106716
H	0.612259	1.136213	-3.197155
H	1.638148	1.019574	-1.706796
H	0.229359	2.124206	-1.764705
C	0.228343	-1.246277	-2.08701
N	0.565444	-2.254145	-2.588329
C	-0.559194	-1.176996	0.633034
N	-0.993825	-2.1422	1.144857
C	-0.467511	1.22394	0.623177
N	-0.817043	2.231784	1.117839
F	2.483238	0.0	0.0
