15

C	-0.209382	0.034546	-1.522616
C	0.0	0.0	0.0
Cl	-1.954085	0.24622	-1.979102
H	1.098566	0.0	0.0
C	0.628649	1.165109	-2.107261
H	0.610681	1.133431	-3.198041
H	0.230289	2.123366	-1.767587
H	1.639223	1.018033	-1.708044
C	0.218216	-1.248631	-2.08357
N	0.565224	-2.278253	-2.531119
C	-0.558479	-1.174603	0.637648
N	-0.993482	-2.134185	1.160006
C	-0.465099	1.225446	0.622345
N	-0.814607	2.233975	1.115675
F	2.482479	0.0	0.0
