15

C	-0.203975	0.035298	-1.523349
C	0.0	0.0	0.0
Cl	-1.951429	0.206881	-1.985736
H	1.098555	0.0	0.0
C	0.609914	1.187147	-2.099096
H	0.185801	2.134441	-1.760836
H	0.603496	1.15608	-3.188951
H	1.61844	1.06202	-1.692797
C	0.257086	-1.234408	-2.088949
N	0.62502	-2.247419	-2.556023
C	-0.553438	-1.179524	0.633651
N	-0.979144	-2.141169	1.159842
C	-0.472085	1.221631	0.624014
N	-0.826635	2.227698	1.118873
F	2.480452	0.0	0.0
