15

C	-0.365645	0.028681	-1.501275
C	0.0	0.0	0.0
Cl	0.314587	-1.447482	-2.26757
H	1.096607	0.0	0.0
C	-1.864544	0.05934	-1.773715
H	-2.057371	0.063265	-2.848153
H	-2.297502	0.9576	-1.326704
H	-2.326626	-0.824818	-1.330211
C	0.276097	1.190268	-2.1256
N	0.691285	2.141031	-2.676904
C	-0.534562	-1.180583	0.648378
N	-0.953805	-2.145549	1.17523
C	-0.481874	1.206267	0.645963
N	-0.857756	2.200442	1.151083
F	2.430247	0.0	0.0
