15

C	-0.364768	0.022748	-1.501391
C	0.0	0.0	0.0
Cl	0.317552	-1.455162	-2.262088
H	1.096484	0.0	0.0
C	-1.863481	0.050831	-1.774675
H	-2.297901	0.949948	-1.330659
H	-2.324542	-0.832266	-1.328366
H	-2.055796	0.050838	-2.849224
C	0.275771	1.182973	-2.129352
N	0.689653	2.131758	-2.685107
C	-0.534922	-1.177757	0.65305
N	-0.954948	-2.139959	1.184207
C	-0.483989	1.207881	0.641961
N	-0.879229	2.189124	1.157709
F	2.430858	0.0	0.0
