15

C	-0.364761	0.02142	-1.501439
C	0.0	0.0	0.0
Cl	0.315357	-1.457299	-2.261014
H	1.096563	0.0	0.0
C	-1.863654	0.051644	-1.774251
H	-2.296009	0.95227	-1.331609
H	-2.056242	0.050374	-2.848782
H	-2.326075	-0.829895	-1.326543
C	0.277068	1.180313	-2.130229
N	0.691467	2.12898	-2.685666
C	-0.534773	-1.177026	0.654764
N	-0.956953	-2.137478	1.187458
C	-0.483087	1.209075	0.640389
N	-0.879318	2.194868	1.146484
F	2.430434	0.0	0.0
