12
Coordinates from ORCA-job run
  C   -0.62966150648426     -0.26108282990885      0.08752030093464
  C   0.63115773891072      0.27251808819823      0.01847990923580
  N   -0.93071214947609     -1.59335976412167      0.38655429551423
  H   -1.67332843803673     -1.97195227743539     -0.18505138208481
  H   -0.11917508469609     -2.19776147725365      0.38510861902467
  C   -1.73886258870087      0.63264416694533     -0.02323525799140
  N   -2.62741225720100      1.39463162821506     -0.15887809918282
  C   1.73814975550617     -0.63037838535770      0.04635930016347
  N   2.62178623153123     -1.40977916039521      0.03399836088718
  N   0.93752990485234      1.63610499572133      0.05179532691764
  H   0.12507511938674      2.23195773959061     -0.04274179668223
  H   1.66445327440785      1.89745727580191     -0.59990957673638
