12
Coordinates from ORCA-job run
  C   -0.63045222611086     -0.23335255556593      0.15413620659895
  C   0.62070436400642      0.23301095606296     -0.15673490472795
  N   -0.93246866281550     -1.52244239724616      0.61014732016522
  H   -0.15148027279494     -2.16208944691932      0.54235592386792
  H   -1.75865224339571     -1.91174101376750      0.17736234537330
  C   -1.71150063929920      0.69920566256411      0.11734560331152
  N   -2.57051400993966      1.50408992105028      0.06288425463399
  C   1.70450239079671     -0.69666782778614     -0.12345613081684
  N   2.56604655280597     -1.49798823120050     -0.06663671130295
  N   0.92040454542048      1.52221297334132     -0.60209948655181
  H   1.78389830856755      1.88801364360731     -0.22477316641101
  H   0.15951189275875      2.17874831585956     -0.49053125414032
