12
Coordinates from ORCA-job run
  C   -0.58118153012017     -0.28836733459671      0.25921280305988
  C   0.63647602918353      0.28539459940242      0.01741021607488
  N   -1.40425163142596     -0.61378133448485     -0.82638222755304
  H   -1.45085869091268      0.14703647960581     -1.49630304812781
  H   -2.32748448305549     -0.91711409059741     -0.55275513137349
  C   -0.98406318103156     -0.65408724232330      1.57384675842534
  N   -1.35521616552897     -0.97352531961996      2.64609878019016
  C   1.49637971257884      0.68226137850761      1.07924294305210
  N   2.23426064900024      1.03371424873516      1.92792383605934
  N   0.99174997277559      0.58633072656016     -1.30388809427002
  H   1.94537889235350      0.90383657282865     -1.39993813315645
  H   0.79881042618312     -0.19269868401756     -1.92546870238088
