12
Coordinates from ORCA-job run
  C   0.57794460851601      0.30635803339129     -0.08886732598842
  C   -0.64557876411827     -0.27059483610552      0.10806507468327
  N   0.67260775245710      1.70320955619560     -0.33598435141055
  H   1.08784941732335      2.19261470217089      0.44740759250648
  H   1.22454389043069      1.89235381652696     -1.16307819033591
  C   1.73486801558524     -0.53138126890113     -0.02385680713027
  N   2.67795249799785     -1.23848464599261      0.01917755443808
  C   -1.82075219737619      0.54930093875598      0.00979832591447
  N   -2.83098092942625      1.14618046438242     -0.07254811512209
  N   -0.86142639138808     -1.57435795400763      0.49261204614287
  H   -1.74343526123392     -1.97426331052643      0.21437195592323
  H   -0.07359263876752     -2.19893549588980      0.39290224037884
