12
Coordinates from ORCA-job run
  C   -0.63560153897611     -0.26230681431757     -0.00154075066141
  C   0.64054068352998      0.22830849247940      0.09811340305020
  N   -0.97364509187264     -1.59302671798440     -0.26642516693581
  H   -0.18446156601132     -2.15758031512511     -0.55338016736506
  H   -1.74762395083426     -1.68753357680732     -0.90954424033973
  C   -1.71488092400926      0.61614583796156      0.32307390039052
  N   -2.57911063080460      1.38091648942240      0.56122770434192
  C   1.71548153517545     -0.62310826605546     -0.30296613999716
  N   2.57261670960070     -1.33980364253715     -0.67704577366366
  N   0.99641084018129      1.44823842505094      0.68080570471034
  H   0.20326064293560      2.04250347206586      0.88511344514036
  H   1.70701329108518      1.94624661584684      0.16256808132948
