12
Coordinates from ORCA-job run
  C   -0.59524756518647     -0.26409913268562     -0.03223240401706
  C   0.66025386849275      0.24152717130294     -0.22584602502669
  N   -1.11110271952657     -0.24025054847604      1.29441458465803
  H   -1.60534896661781      0.62490531337454      1.48602504706481
  H   -1.73964567842111     -1.01532214066223      1.45985380166146
  C   -1.35843614130421     -0.80375897589453     -1.10740909656552
  N   -2.03152382279070     -1.28408964582108     -1.94764266214496
  C   1.23754624801748      0.28556793172305     -1.53482421222692
  N   1.74875981721939      0.31835275008592     -2.59480693879062
  N   1.37539257054780      0.81791467565910      0.80114304038130
  H   1.04247015555449      0.51358898441684      1.70853939913548
  H   2.37788223401495      0.80466361697710      0.69178546587070
