12
Coordinates from ORCA-job run
  C   0.58413911054387     -0.17912368233154     -0.35771604099080
  C   -0.53849896565593      0.33775882967551      0.22567623793069
  N   1.21961289218039     -1.31461234241225      0.14287045126299
  H   0.56823640994250     -2.07361027814625      0.29579958793376
  H   2.04830567080004     -1.60723674486085     -0.33806549282766
  C   1.23772990876562      0.66160485072803     -1.31795730854088
  N   1.69953017887721      1.37162551280617     -2.13260795930906
  C   -1.23162743815797      1.41001717645418     -0.42520964657696
  N   -1.81913340158095      2.33248521500129     -0.86644059045637
  N   -1.23225836556131     -0.35758771903344      1.20691365135541
  H   -0.61723531439072     -0.78804393149140      1.88387984271157
  H   -1.91980068576276      0.20672311361056      1.68285726750731
