12
Coordinates from ORCA-job run
  C   -0.46033812096971     -0.45122985740706      0.09272347011298
  C   0.67324539520953      0.30367871188478     -0.02736238631743
  N   -1.69856676434082      0.17471937741895     -0.22619612313744
  H   -2.36588820151416     -0.49237543267125     -0.59067899800528
  H   -2.10495700038739      0.62971976345212      0.58467672939287
  C   -0.41239493953590     -1.81277409305398      0.50906588820627
  N   -0.44032153664558     -2.94790044033940      0.82619340693638
  C   1.95351402742793     -0.24230966689303      0.30593484459958
  N   3.02208452067436     -0.67007170486215      0.55324574279111
  N   0.62230894109364      1.63708735116334     -0.37199913407923
  H   -0.24243278410176      1.86906669106113     -0.84677806732435
  H   1.45474646308989      2.00238930024655     -0.80882537317547
