12
Coordinates from ORCA-job run
  C   0.61198200580751      0.13764162027513     -0.17534112188375
  C   -0.70900348036938     -0.19697936370317     -0.06448289806569
  N   1.30408275841286      0.47026963895124      1.02408509680998
  H   2.28012511908449      0.21002208978411      0.96968977537736
  H   1.24527848689001      1.46405487697611      1.22140067857613
  C   1.27746919175000      0.14819180461364     -1.43510119246360
  N   1.89078666700572      0.15335754651665     -2.44181535042209
  C   -1.48445850292632     -0.50741348934468     -1.22694812480260
  N   -2.14448445007934     -0.78235563328806     -2.16224205540539
  N   -1.37027688278308     -0.14956565104366      1.14315799643851
  H   -2.17262130696478     -0.75544868349699      1.22182592014548
  H   -0.72787960582769     -0.18977475624031      1.92577127569568
