12
Coordinates from ORCA-job run
  C   0.66263691626778      0.24765177391506      0.01897665910887
  C   -0.59433317805328     -0.28793694950843     -0.02137707217992
  N   0.99958494562648      1.45404468966785      0.58874476143594
  H   0.23154961389187      2.08279974211198      0.77688489201016
  H   1.81979241052180      1.90374276485096      0.21421825177186
  C   1.76254263729746     -0.53068341876289     -0.47852504499728
  N   2.71393203053340     -1.09176761814593     -0.88307967286414
  C   -1.68154386030100      0.51409880211495      0.44742972376260
  N   -2.56575681630765      1.19584319252579      0.82742397845316
  N   -0.78750095448933     -1.61098019979044     -0.50469221108673
  H   -1.49629516439413     -1.63732263657552     -1.22703663856990
  H   -1.06360858059341     -2.24049014240336      0.23903237315536
