12
Coordinates from ORCA-job run
  C   -0.57541826213042     -0.29737147818687      0.13007065043872
  C   0.63107989965727      0.26674330967459     -0.17788804292453
  N   -0.77976573543369     -1.69022097667337     -0.06737656616549
  H   -1.14743271747395     -2.12815206152355      0.76785315083774
  H   -1.42057444852992     -1.86670741586525     -0.83175643195565
  C   -1.60534843180039      0.55586247444395      0.63597765829260
  N   -2.43684166287221      1.27314696860879      1.06642351800962
  C   1.68997174127499     -0.58014132381285     -0.65129719183872
  N   2.61335317175293     -1.20653936285643     -1.02359845404607
  N   0.90829038929916      1.61468625656204     -0.16565210308936
  H   0.24800256548775      2.19511151213786      0.33212132250105
  H   1.87268349076848      1.86458209749111     -0.01487751005993
