12
Coordinates from ORCA-job run
  C   0.66926542258826      0.08168872029627     -0.18135621952417
  C   -0.67382056668336     -0.15936240167461     -0.09159080311460
  N   1.35835490270750      0.50750904567587      0.96089952245131
  H   2.31716046753156      0.76605840242837      0.78064030392461
  H   0.85960410764244      1.24806180223996      1.44318008215632
  C   1.39672763004598     -0.18788960162090     -1.37401453273981
  N   2.03905780274576     -0.39985358090357     -2.33902653654685
  C   -1.43788699691191     -0.55276848178945     -1.22551633273104
  N   -2.11006168978824     -0.87618419790732     -2.13786199889373
  N   -1.32589109690058      0.08598590274364      1.12312514202353
  H   -2.28735143580476     -0.22080144145615      1.13408202883284
  H   -0.80715854717266     -0.29344416803210      1.90843934416159
