12
Coordinates from ORCA-job run
  C   0.57183624647169      0.32577503294726     -0.05924364862173
  C   -0.63954835696495     -0.29186883941373      0.08176758389050
  N   0.63766868801178      1.74172279240233     -0.17265495606291
  H   1.18930474033168      2.01891849731870     -0.97473001048080
  H   1.04249519668759      2.16143606435049      0.65563366522904
  C   1.74508353540777     -0.49131909947116     -0.07179109894083
  N   2.70006092469134     -1.18318178332402     -0.09453261717027
  C   -1.83181087374798      0.50856695912691      0.05678800278442
  N   -2.85588606960502      1.08640074022133      0.02598683037851
  N   -0.82875934131046     -1.63003957963103      0.34171573343479
  H   -1.70289034446274     -2.01978124317390      0.02693579192809
  H   -0.02855434551071     -2.22662954135319      0.18512472363117
