12
Coordinates from ORCA-job run
  C   -0.56924947596784     -0.28859393498992      0.28277536970818
  C   0.64954569769225      0.25440846837587     -0.01702115377393
  N   -1.53470261577956     -0.38296734592684     -0.72713895507400
  H   -2.35908896407742     -0.89498630735816     -0.44988786287586
  H   -1.14155273316900     -0.75228218061015     -1.58662075129733
  C   -0.91151414435429     -0.66062240768950      1.61267402078814
  N   -1.22324798294886     -0.95496216710917      2.71034585471139
  C   1.68668014380603      0.33666680256475      0.95340071399973
  N   2.56643540276219      0.39441191558750      1.73532883394742
  N   0.91057453983443      0.64311240472247     -1.33683272883466
  H   1.78661759457667      1.13201640051557     -1.44707689786155
  H   0.13950253762540      1.17279835191759     -1.72994644343752
