12
Coordinates from ORCA-job run
  C   0.64660565566771     -0.04984129574182     -0.05720992414822
  C   -0.71647973499753     -0.11641603830857     -0.14009898159811
  N   1.19719874312103      0.79675155701407      0.94797426201333
  H   2.07598104545678      0.43194875498107      1.29222427991812
  H   1.35589705873438      1.73458064462065      0.59451323377240
  C   1.48778582377933     -0.79919238108481     -0.92954386650508
  N   2.23898384900283     -1.40561912514816     -1.60612198907717
  C   -1.35093538785377     -0.92142774316779     -1.13942494811914
  N   -1.90544330294432     -1.58743128047395     -1.93617248553035
  N   -1.52984995770283      0.65438528865875      0.66068472045627
  H   -1.04689152492379      0.97597016451939      1.49155648484308
  H   -2.45485226733982      0.28729145413117      0.82161921397487
