12
Coordinates from ORCA-job run
  C   0.57332075392347      0.31085753699932     -0.10794681310854
  C   -0.63924001882489     -0.27532212753175      0.12579779195675
  N   0.64776532583484      1.70693274682809     -0.36671611773218
  H   1.07558156107775      2.20510673286620      0.40445474716639
  H   1.18044518091090      1.89577550891283     -1.20646363060494
  C   1.73901680454564     -0.51588621180724     -0.06666571336927
  N   2.68760441302030     -1.21642342596203     -0.04193125798675
  C   -1.82410136745586      0.53336551213662      0.05402404489282
  N   -2.84281111348977      1.11855954560110     -0.00522349717418
  N   -0.83354077490985     -1.57796864902338      0.52530189088859
  H   -0.04439910165544     -2.19756626788284      0.40679075680430
  H   -1.72064166297709     -1.98643090113691      0.27757779826700
