12
Coordinates from ORCA-job run
  C   -0.60207419500693     -0.24073048351010     -0.05854333254293
  C   0.68530856897836      0.19972860119630     -0.19189117810289
  N   -1.20834976818280     -0.10749091865128      1.22284342201232
  H   -1.67868901833054      0.78643423492237      1.32020922499251
  H   -1.87996904934637     -0.84512104358152      1.39073916956733
  C   -1.31117402590207     -0.82121003421505     -1.14942453870201
  N   -1.94506553951178     -1.32995512230752     -2.00331156103410
  C   1.35398224407090      0.13182106357858     -1.45563238645205
  N   1.93647224942805      0.07271764869524     -2.47691620935880
  N   1.35150541302198      0.81574634453333      0.84519791099049
  H   0.94163961055173      0.58668155958735      1.74323790566573
  H   2.35741351022947      0.75137814975230      0.81149157296442
