12
Coordinates from ORCA-job run
  C   -0.69760199465410     -0.23588956273552     -0.06880709972840
  C   0.59623875062656      0.19320896776628     -0.17473433802850
  N   -1.28947362360728     -0.45914719168517      1.15515477188080
  H   -0.81467320465344      0.03916267809116      1.89878247335683
  H   -2.29519174881615     -0.38564688508117      1.16968951312506
  C   -1.45402084513386     -0.57342738575966     -1.23629894436932
  N   -2.10666423591404     -0.84219083136872     -2.17841281908098
  C   1.22703644513664      0.36484645470041     -1.44043871667404
  N   1.80068123619576      0.54978417575056     -2.45373293001234
  N   1.29122956595708      0.47493698949571      1.03609097644784
  H   1.77715361144718     -0.34512221945477      1.38411937333707
  H   1.96528604341563      1.21848481028088      0.90858773974597
