12
Coordinates from ORCA-job run
  C   0.62366027103082      0.09557077669750     -0.15483880330050
  C   -0.70601985073625     -0.21123961002379     -0.06936398320802
  N   1.22930460720085      0.69754461726874      0.98580088418914
  H   2.19863814291205      0.42125879682525      1.07403303715806
  H   1.18708193031532      1.71020779799022      0.93491295379306
  C   1.37956261241174     -0.17562515562304     -1.33177362202062
  N   2.06403223963488     -0.38923956086897     -2.26769750273711
  C   -1.39568161499494     -0.78632982404117     -1.18436361278153
  N   -1.98257319303697     -1.27336543122474     -2.08102811092768
  N   -1.45558431149234      0.11157925178755      1.04004314614847
  H   -0.87462863226496      0.26355498484962      1.85612886389463
  H   -2.26779220098020     -0.46491664363718      1.19814674979210
