12
Coordinates from ORCA-job run
  C   0.65879624071597      0.15668069882446     -0.17856537375754
  C   -0.66102843136990     -0.19312564060289     -0.10274504075717
  N   1.34756789539776      0.46645264949789      0.99971867349928
  H   0.80147965337766      1.07473921790470      1.60108834873767
  H   2.27272197283620      0.83735495441423      0.84082420339636
  C   1.37221548929475      0.11059283679333     -1.40881199209263
  N   2.00128553661554      0.08372103757305     -2.40492897608289
  C   -1.42476006471800     -0.47946280812878     -1.26830127888978
  N   -2.09726564806672     -0.71816813493376     -2.20620988671729
  N   -1.29434690897938     -0.17122305681862      1.14695981400829
  H   -2.23852147555304     -0.52700667451889      1.12654921226910
  H   -0.73914425955085     -0.63955508000472      1.85542229638662
