12
Coordinates from ORCA-job run
  C   -0.67401737323572     -0.13282260536664     -0.11057233904270
  C   0.67493271213754      0.08385640652961     -0.16853701645703
  N   -1.31624937220330     -0.06254020351069      1.13302061877688
  H   -2.31997000654759     -0.15002285008398      1.07318266947988
  H   -1.04946898401697      0.77214551148187      1.64469219965703
  C   -1.41673714474058     -0.52261654463162     -1.25955045211119
  N   -2.07140349980169     -0.85036496503481     -2.18307326958714
  C   1.37866900381927      0.07067325933899     -1.40533602963007
  N   1.99943766245805      0.06947156944857     -2.40695603027533
  N   1.35844136898758      0.42981491414679      1.00249292750574
  H   2.36197986844500      0.44103714480549      0.89575793178322
  H   1.07438576469841     -0.15063163712357      1.78487878990072
