12
Coordinates from ORCA-job run
  C   -0.63327865387605     -0.25667142152421     -0.06609458894075
  C   0.63452641711076      0.23638811424606     -0.21979004621246
  N   -1.20631794407033     -0.22968298728775      1.21805014028201
  H   -2.12425381243543     -0.64289707718326      1.25334771562107
  H   -0.59651908119625     -0.66106704548873      1.90346118847457
  C   -1.39180660098380     -0.73382739084657     -1.16929060445634
  N   -2.07074054177627     -1.11828868613956     -2.05299889961292
  C   1.31436439016741      0.15099519994157     -1.46716863456280
  N   1.90380410165534      0.06438396923154     -2.48293497876485
  N   1.32835614468659      0.71726769186787      0.88908026224882
  H   2.13197591582858      1.28232585018702      0.65419937479431
  H   0.71188966488946      1.19307378299601      1.53913907112933
