12
Coordinates from ORCA-job run
  C   0.59504620755291      0.22015282999320     -0.14974754607113
  C   -0.68677641802350     -0.25273001169013     -0.09926715301770
  N   1.24499816803272      0.47912982531994      1.08990914528001
  H   1.91447382496825      1.23265144046241      1.00530448845033
  H   1.72540951744289     -0.34446866596103      1.43714085951701
  C   1.25737947675245      0.45607540276872     -1.38876944717453
  N   1.85358335963360      0.69263480333862     -2.37792105497763
  C   -1.39650163491732     -0.57207171843517     -1.30032605016732
  N   -2.01341665677001     -0.82518469554947     -2.27052245740624
  N   -1.30621249295729     -0.53835402344945      1.09824372633993
  H   -2.31390165736439     -0.50134117766326      1.08425951566981
  H   -0.87408169435031     -0.04649400913437      1.87169597355745
