12
Coordinates from ORCA-job run
  C   -0.61762049149521     -0.29871065554162      0.04328156999534
  C   0.61227300561604      0.27744775410499     -0.14373790736029
  N   -0.85913407515240     -1.66955579907194      0.17287741394837
  H   -1.54129395227913     -1.88934737364800      0.88556879883524
  H   -0.01540582425604     -2.21624887239791      0.28818777863918
  C   -1.76719150850882      0.54656186059078     -0.03147488397966
  N   -2.68713146354369      1.28211696349591     -0.06373184311276
  C   1.76609219189137     -0.55078391062032      0.01188302857585
  N   2.69357475201970     -1.25647310529074      0.18557076011577
  N   0.83629181649489      1.57879749500441     -0.60273337678216
  H   1.58222857396004      2.05248827732941     -0.11208809574535
  H   -0.00268302474676      2.14370736604500     -0.63260324312953
