12
Coordinates from ORCA-job run
  C   0.62377655206312      0.27259122045047     -0.08106499691016
  C   -0.62416032718029     -0.27179033455542      0.08363967924595
  N   0.91172392304121      1.63788669330763     -0.17610020828580
  H   1.61749240826263      1.84845525257378     -0.86809918182124
  H   0.08942273878918      2.21317759113061     -0.30563577589445
  C   1.74228553520221     -0.61401589214809     -0.05213868830848
  N   2.63124942427043     -1.38728844142946     -0.03710098375124
  C   -1.74307402484587      0.61449686310028      0.05235375216786
  N   -2.63266434915730      1.38681282511141      0.03318836371709
  N   -0.91266440549288     -1.63737153045177      0.17691762441489
  H   -0.09013541732703     -2.21306092194235      0.30125462799511
  H   -1.61425205762539     -1.84889332514711      0.87278578743049
