12
Coordinates from ORCA-job run
  C   -0.59089475205499     -0.29458253933095      0.01999634180958
  C   0.65051573127617      0.27134686759343     -0.06416091990165
  N   -0.80217539846161     -1.61627428109158     -0.45923457636254
  H   -1.25653726323713     -2.19125352166296      0.23906548526399
  H   -1.36907931581679     -1.62078329031545     -1.29859620628591
  C   -1.64955583542678      0.48544060922576      0.58140649912112
  N   -2.50959271965733      1.13629503830104      1.05898646325662
  C   1.73363784936469     -0.51050853657027     -0.59205208408940
  N   2.67876981857774     -1.08539258898270     -0.99187864064545
  N   0.95317766858229      1.58130334123919      0.22985461542037
  H   0.25872701464957      2.08555658273858      0.76280857225651
  H   1.90300720220415      1.75985231885590      0.51480445015674
