12
Coordinates from ORCA-job run
  C   -0.60066790950292     -0.24246491866852     -0.05824330750451
  C   0.69398534354111      0.07555704009028      0.24517484563869
  N   -1.26003932585712      0.56229527286706     -1.03036473485697
  H   -1.12991040704379      0.19381872655543     -1.96693851519174
  H   -2.25240853834098      0.62588483717391     -0.84422471489655
  C   -1.27301227683919     -1.32782493270717      0.57410167191013
  N   -1.89608892145797     -2.19540303073860      1.07311982727972
  C   1.43746255240271     -0.70719110589030      1.18532968525715
  N   2.06736569798971     -1.31964758386974      1.96888121073342
  N   1.36529886857816      1.08488021406469     -0.40961631390856
  H   2.12146180182956      1.50814229696331      0.10627620168163
  H   0.72655311470072      1.74095318415964     -0.84349585614240
