12
Coordinates from ORCA-job run
  C   0.59203474128276      0.21105741341412     -0.16627864798125
  C   -0.68976683542011     -0.25635207602359     -0.07823597385346
  N   1.27142044638003      0.48732253048072      1.05418301660976
  H   2.26622712884043      0.32558638157199      0.96641497714693
  H   1.12525832125049      1.44675105075917      1.35107978501784
  C   1.23246662676152      0.40895321621157     -1.42351305329851
  N   1.83032414947821      0.57372648379237     -2.42618190262682
  C   -1.45291220666492     -0.52348556804679     -1.25962091776546
  N   -2.09825954021563     -0.77085943652931     -2.21260719872851
  N   -1.33173848211568     -0.38886074954094      1.13353526965893
  H   -0.67475838485875     -0.44081988097291      1.90319299176126
  H   -2.07029596471836     -1.07501936511641      1.16003165405927
