12
Coordinates from ORCA-job run
  C   0.62443947036189      0.22998043350696     -0.20950939220885
  C   -0.62816810416885     -0.29916180567282     -0.06402404842292
  N   1.26581479314520      0.76899930118080      0.91340283478723
  H   2.13915321399967      1.22644784249168      0.69655992823097
  H   0.64895965684597      1.38152131797550      1.43693103104880
  C   1.32736135326308      0.14940434944635     -1.44369551033897
  N   1.94600276213541      0.09699755658520     -2.44552589057487
  C   -1.34930557818324     -0.82084680117232     -1.17405846830160
  N   -1.98104119056049     -1.26064221035938     -2.06628706695692
  N   -1.25300995322264     -0.22954334110510      1.18667769735208
  H   -0.62090681421238     -0.49431609502304      1.93499524810239
  H   -2.11829960940360     -0.74684054785382      1.23453363728265
