12
Coordinates from ORCA-job run
  C   -0.65714020207680     -0.21042712872067     -0.10921224476193
  C   0.65710994231558      0.17345675803989     -0.16424694232851
  N   -1.39881336884492     -0.39905936445386      1.05841411312590
  H   -0.90840148887973     -0.23416111250358      1.92220719422219
  H   -2.31854198466700      0.01601966442186      1.05115507333629
  C   -1.35016873816180     -0.51266496637675     -1.32175322021930
  N   -1.96102526361597     -0.74789733053628     -2.30084453482794
  C   1.34673058338086      0.13388358923048     -1.41489693819940
  N   1.95562270960010      0.09082785375899     -2.42209247081150
  N   1.40225502153134      0.67186645236876      0.90632877462034
  H   0.91310465411711      0.75074793844066      1.78311768453482
  H   2.32026813530124      0.26640764633048      1.01182351130906
