12
Coordinates from ORCA-job run
  C   0.57920914929097      0.26629879367684     -0.25103831001316
  C   -0.58080124604091     -0.26352240350103      0.25378775971036
  N   0.83777701671873      1.62638840178997     -0.44421813507678
  H   0.15673484442590      2.23170162315945     -0.00396620440314
  H   1.78052572598088      1.89381012147757     -0.19757696263790
  C   1.57314745076810     -0.64607676846909     -0.71795531127958
  N   2.36082556170124     -1.44389932810042     -1.08026434864136
  C   -1.57846270838335      0.64675979188829      0.71668604971990
  N   -2.37487999992131      1.43758285733409      1.07513677686601
  N   -0.83837081177610     -1.62475943460574      0.44991676322890
  H   -0.14499339682820     -2.22736348278298      0.02567136946925
  H   -1.77171158593596     -1.89592017186694      0.17382055305750
