15

C	-0.367855	-0.032893	-1.472224
C	0.0	0.0	0.0
Cl	-2.089253	-0.498781	-1.806497
H	1.104338	0.0	0.0
H	0.248768	-0.789123	-1.964495
C	-0.1325	1.255297	-2.121411
N	0.034186	2.284169	-2.659593
C	-0.446857	-1.253536	0.723014
H	-0.177517	-2.147851	0.155696
H	0.077709	-1.305521	1.681189
H	-1.526709	-1.257529	0.896204
N	-0.54926	1.204777	0.6325
H	0.159962	1.931031	0.540999
H	-0.623001	1.025488	1.6293
H	2.87039	0.0	0.0
