11
Coordinates from ORCA-job run
  C   -1.21912480073398     -0.18984469074071      0.18056763005707
  C   -0.02776251150096      0.45316125559840      0.11257497532990
  H   -2.11989432411558      0.34101937056212      0.47371783008590
  C   -1.34461813031674     -1.57772369299466     -0.12310947510211
  N   -1.45444739806780     -2.72285565038549     -0.37272948154039
  C   -0.00260708537656      1.85038048495899      0.43721820727678
  N   0.05176371360992      2.99688670836558      0.69819631805655
  C   1.27676883939522     -0.17639734947372     -0.27822711793254
  H   1.68847678733897      0.32837654721263     -1.15600050807913
  H   2.00237729254154     -0.06969181463067      0.53220767174116
  H   1.14906761722594     -1.23531116847247     -0.50441604989319
