11
Coordinates from ORCA-job run
  C   -0.71908989802538     -0.88910078315349     -0.16494431710317
  C   0.11706118746535      0.15794654985668      0.03160418616965
  H   -0.35741971749816     -1.77832657557445     -0.67355202859531
  C   -2.07804880243595     -0.89537219169569      0.26615586717640
  N   -3.20271132105903     -0.92581186697204      0.61257256452400
  C   -0.35257143554500      1.33442028952587      0.70358118698334
  N   -0.69411080376037      2.31921861840245      1.25098753236829
  C   1.54795279401281      0.16242489835735     -0.42248697251716
  H   1.79904301286110     -0.77593999021949     -0.91871995208797
  H   1.72383914854221      0.98842199351775     -1.11617754192735
  H   2.21605583544243      0.30211905795507      0.43097947500928
