11
Coordinates from ORCA-job run
  C   -1.21637118279337     -0.20809688333442      0.18031120618066
  C   -0.03494090382815      0.45287615543286      0.11244722312565
  H   -2.12518680002916      0.30931128516876      0.47338747585536
  C   -1.32105301228591     -1.59783709504954     -0.12371523006743
  N   -1.41388634083954     -2.74429416691036     -0.37422063395225
  C   -0.03018739175885      1.84981056155137      0.43881779152743
  N   0.00818429242460      2.99660936072981      0.70120625243190
  C   1.27894760891581     -0.15708170772565     -0.27812074745096
  H   1.16671060149542     -1.21734578098503     -0.50603914344904
  H   2.00220572145352     -0.04082618274792      0.53291327360620
  H   1.68357740724564      0.35487445387012     -1.15498746780753
