11
Coordinates from ORCA-job run
  C   -1.13225734499832     -0.33791985986361      0.39706737570674
  C   -0.01353899914308      0.40845255171520      0.22839632458593
  H   -1.95156189057544      0.02200399595362      1.01223459876768
  C   -1.28594510872208     -1.61589597737627     -0.21711139604427
  N   -1.41924174971890     -2.67143727381636     -0.72093157133347
  C   0.04714791524360      1.68125378494262      0.88719928746768
  N   0.12861096873616      2.73082287848238      1.41374750733930
  C   1.17634691776694      0.01313805651898     -0.59554873437505
  H   2.07245833708692     -0.01455880817323      0.02951244950718
  H   1.02995020660619     -0.96685676742253     -1.05033268061746
  H   1.34803074771802      0.74999741903917     -1.38423316100426
