11
Coordinates from ORCA-job run
  C   -1.20057140861391     -0.22080808507249      0.25391837774322
  C   -0.03773074639958      0.45705425669230      0.09383065359723
  H   -2.10317302133626      0.29329545283740      0.57046563986640
  C   -1.29373764742197     -1.62408699218261      0.01689838856080
  N   -1.37697728367710     -2.78203541580398     -0.17767234111106
  C   -0.04404156855486      1.86749460240146      0.35597928343502
  N   -0.01552345856499      3.02576296894094      0.56338805730273
  C   1.26603377268303     -0.14695849982692     -0.33782619680697
  H   1.16301928379273     -1.21829334002874     -0.51222034485078
  H   1.61502570926133      0.33164252527313     -1.25637137000581
  H   2.02767636883157      0.01793252676951      0.42860985226921
