11
Coordinates from ORCA-job run
  C   -0.72809535122013     -0.89780103914149     -0.01767197827952
  C   0.11866184052450      0.15884664957134      0.00507528971398
  H   -0.34361765874042     -1.89074496433922     -0.23368306725275
  C   -2.12697684311652     -0.78229503359704      0.23205069112203
  N   -3.28396318458682     -0.70989114254693      0.43605350688157
  C   -0.38127042016783      1.47251864468540      0.28934637830406
  N   -0.74720572311548      2.56771764554901      0.51890717050800
  C   1.59158701333780      0.03739790228906     -0.25779912250172
  H   1.86419598454574     -0.99866801845934     -0.46272052416680
  H   2.16166135276384      0.39035269973116      0.60528521353624
  H   1.87602298977532      0.65456665625804     -1.11384355786509
