11
Coordinates from ORCA-job run
  C   -0.73428044747234     -0.89285323610496      0.00234163150848
  C   0.12005540558761      0.15799545030137      0.00374478240494
  H   -0.39907797283031     -1.85792017146501     -0.36819512510548
  C   -2.07843042485351     -0.80740748406327      0.46991161635334
  N   -3.19202306583066     -0.76090013131999      0.84844685048316
  C   -0.31303009074020      1.43391047995919      0.49437030159429
  N   -0.62355304465512      2.49844559026835      0.89007125644732
  C   1.53413604909670      0.06776915149454     -0.49190758677186
  H   1.75860381535110     -0.94099545009038     -0.84068301848622
  H   2.23345086536297      0.33136425470203      0.30549481830273
  H   1.69314891098375      0.77059154631812     -1.31359552673070
