11
Coordinates from ORCA-job run
  C   -1.09800817459854     -0.36745410674882      0.46186565887606
  C   -0.02327764192929      0.41853405341965      0.20788696631761
  H   -1.90716749563219     -0.01278700138827      1.09330676029621
  C   -1.21732302732479     -1.68058211449618     -0.08150005309404
  N   -1.32190195461430     -2.76472557839151     -0.52802196160196
  C   0.00369274260299      1.72574116979234      0.79837493088770
  N   0.05552276892352      2.80358314875119      1.26864424905497
  C   1.15006065260927      0.03466232405342     -0.64470989223389
  H   1.25662202207428      0.73711673521780     -1.47524395691881
  H   1.03133127627250     -0.97300158544519     -1.04382023195384
  H   2.07044883161657      0.07891295523557     -0.05678246963002
