11
Coordinates from ORCA-job run
  C   -0.70927639616801     -0.88028347156212     -0.24057487851216
  C   0.11603528465741      0.15452335013502      0.04580359939904
  H   -0.32540463637777     -1.74425128944447     -0.77585933373427
  C   -2.08630062967032     -0.90570847309405      0.12820787303510
  N   -3.22579089133597     -0.95168225205195      0.42000355090596
  C   -0.38610491701214      1.29677435301595      0.75285488084148
  N   -0.75456329102879      2.25321336874819      1.33216155548621
  C   1.56537850593872      0.18279855969230     -0.34374161003157
  H   2.19521914897866      0.28174992847762      0.54389830665421
  H   1.84209115268135     -0.72898163063928     -0.87462074249745
  H   1.76771666933686      1.04284755672278     -0.98713320154655
