11
Coordinates from ORCA-job run
  C   -1.13893466367346     -0.34501367614187      0.37223211703400
  C   -0.01261675734151      0.39843386302108      0.24530071810525
  H   -1.96045928198791     -0.00560796632496      0.99595536928447
  C   -1.29629158301936     -1.59472497858695     -0.29707943954765
  N   -1.43147985509569     -2.62694611990398     -0.84653420393630
  C   0.05352124537896      1.64014735279408      0.96076198093195
  N   0.13991824249787      2.66372053496911      1.53545171124985
  C   1.18085185857791      0.02992735248050     -0.58574516329418
  H   1.02902524321881     -0.92635227554785     -1.08703730903617
  H   1.36620079773203      0.80088483948079     -1.33799206119760
  H   2.07126475371234     -0.03546892623994      0.04468628040636
