11
Coordinates from ORCA-job run
  C   -1.08166490430064     -0.41438381706462      0.46154069739250
  C   0.00349806703859      0.37672724200721      0.27759245966960
  H   -1.83957330330076     -0.15454172599216      1.19451326030587
  C   -1.27784990570925     -1.61101810552146     -0.28928407929139
  N   -1.44503097980069     -2.60006892747312     -0.90536041500139
  C   0.11248633847309      1.56043871776823      1.08072417401336
  N   0.23124047972438      2.53927409105844      1.72362208339849
  C   1.10982173439012      0.11758472244990     -0.70218548186214
  H   1.19120085604669      0.95072030666913     -1.40489230740800
  H   2.06463621399466      0.03661060917708     -0.17641299756942
  H   0.93223540344381     -0.80234311307862     -1.25985739364749
