11
Coordinates from ORCA-job run
  C   -0.72250486461636     -0.90168724852790      0.03411543494943
  C   0.11789109603069      0.15961241212805     -0.00519126477182
  H   -0.32023835633926     -1.90957347048961     -0.01584061026474
  C   -2.13877860158347     -0.77208696246277      0.13657658504927
  N   -3.31003167990937     -0.69005823579285      0.22072707105762
  C   -0.40754997364547      1.49234837084240      0.06104281669558
  N   -0.79635022008718      2.60240441761844      0.11222922381069
  C   1.60855649327900      0.02390894040268     -0.11439925876341
  H   1.97070879330703      0.53114048954240     -1.01204708150587
  H   2.09668526961133      0.49029002784036      0.74495538413250
  H   1.89961204395305     -1.02629874110121     -0.16116830038926
