11
Coordinates from ORCA-job run
  C   -1.08164112679668     -0.40160514644979      0.46875748279695
  C   -0.00987905071960      0.39803683724997      0.24648832523011
  H   -1.86119787745528     -0.10362268443222      1.16347313278332
  C   -1.23576244120813     -1.65719926197504     -0.18973271426292
  N   -1.36919126770678     -2.69567865672434     -0.72757623835326
  C   0.05445811090046      1.64170985374098      0.95849465864212
  N   0.13457889499451      2.66808993863411      1.52929976082274
  C   1.12321056777479      0.08907218431983     -0.68714403445600
  H   0.97731764907997     -0.87572136511325     -1.17371667653298
  H   1.20244162264140      0.86565219807519     -1.45215428448258
  H   2.06766491849534      0.07126610267456     -0.13718941218750
