11
Coordinates from ORCA-job run
  C   -0.76316358982619     -0.86712294149820      0.05040999487490
  C   0.12444381839277      0.15402276537944     -0.00854496549966
  H   -0.40643429081519     -1.89272841592582      0.01534287741075
  C   -2.17141340405033     -0.67239214153677      0.15839625944343
  N   -3.33733116314112     -0.53699788073256      0.24776759426867
  C   -0.33850411102542      1.51057165818879      0.03739377614660
  N   -0.67265923075464      2.63898869413764      0.07163482283801
  C   1.60715864766694     -0.05135924366469     -0.12201011543013
  H   2.11949360302171      0.40822501152575      0.72691109052227
  H   1.84983042431699     -1.11440554383738     -0.14881076551684
  H   1.98757929621448      0.42219803796379     -1.03049056905800
