11
Coordinates from ORCA-job run
  C   -0.75729082256828     -0.86963204530225      0.08294631202220
  C   0.12358851279708      0.15447309071340     -0.01317529271616
  H   -0.39739075927100     -1.89410059137203      0.04665298260738
  C   -2.16227171648226     -0.67973400467314      0.23269346355482
  N   -3.32519798118788     -0.54724346501385      0.35811599040747
  C   -0.34405671162823      1.50950064244625      0.03160079639443
  N   -0.68340641772674      2.63644502587869      0.06352414820539
  C   1.60293823732168     -0.04600968383659     -0.17058082258652
  H   1.84990620679118     -1.10835260939779     -0.19373323943655
  H   2.13995390083892      0.42500364384430      0.65681225992148
  H   1.95222755111552      0.41864999671300     -1.09585659837393
