11
Coordinates from ORCA-job run
  C   -0.69776480632949     -0.88512787368299     -0.25643338181672
  C   0.11466658466711      0.15401856005199      0.05049780264716
  H   -0.49031045909237     -1.48853203040288     -1.13577722633029
  C   -1.83606821848946     -1.24344676338776      0.52371641824353
  N   -2.78063490683812     -1.55771084913438      1.15196113445462
  C   -0.15205341738992      0.95515801817261      1.20969793287737
  N   -0.33194128711059      1.63944343299866      2.15072600244276
  C   1.31347069000226      0.52987612530945     -0.77127737137442
  H   2.22036496306433      0.48180510688720     -0.16325103902640
  H   1.21690917012147      1.55538874626597     -1.13644290127554
  H   1.42336168739477     -0.14087247307787     -1.62441737084207
