11
Coordinates from ORCA-job run
  C   -1.10449675085327     -0.40954978498993      0.40894001235240
  C   -0.01004753475391      0.37877913593907      0.27491076375058
  H   -1.89837376328606     -0.14367747440846      1.10059133983963
  C   -1.26473494088732     -1.61064125910937     -0.34331535032023
  N   -1.40250514704231     -2.60317430469842     -0.96105766305818
  C   0.06041031087470      1.56757769901541      1.07478355430730
  N   0.14920881583025      2.54996828761299      1.71708992532992
  C   1.14423012133247      0.11134616016471     -0.64556418572923
  H   2.07071789121367      0.03158160521643     -0.07101350046778
  H   1.26361956381936      0.94019435059357     -1.34796761034434
  H   0.99297143375241     -0.81140441533600     -1.20639728566006
