16

C	0.0	0.0	0.0
C	-0.633257	-0.287768	-1.348727
F	1.352564	0.0	0.0
H	-1.741071	-0.2395	-1.076874
N	-0.574126	1.151293	0.515835
H	-0.317839	1.268442	1.489558
H	-1.612841	0.978261	0.462903
N	-0.228057	-1.250309	0.965552
O	0.410481	-2.271962	0.729412
O	-0.946538	-1.073763	1.944296
N	-0.336166	-1.59289	-1.906026
H	0.623308	-1.64036	-2.226126
H	-0.950768	-1.749454	-2.694458
C	-0.307292	0.823026	-2.254311
N	-0.058141	1.627516	-3.076831
H	-3.012111	0.0	0.0
