16
Coordinates from ORCA-job run
  C   -0.68889093442018     -0.40202753454705      0.19560011685031
  C   0.62930036472029      0.39033557712234      0.35601678323861
  H   -0.78011531071235     -1.04196281991248      1.08205389871514
  H   0.52511247435205      0.99168633548275      1.26769069722492
  C   -0.60479326084739     -1.28582937309152     -0.97057598477094
  N   -0.53682764543766     -1.98684646308330     -1.91031384312353
  C   -1.91577090489254      0.50873555276721      0.10092711670331
  H   -2.83046402694619     -0.08389730303307      0.04738373942637
  H   -1.86039475992207      1.13962635413390     -0.78788630042439
  H   -1.97048550694655      1.15063667280631      0.98363292303638
  C   0.79341021060949      1.32300967020296     -0.76263308318346
  N   0.92370517304689      2.06290280396527     -1.66522234936735
  C   1.85194386174022     -0.52145902536931      0.48830433448406
  H   1.71637033403489     -1.20390608197377      1.33094803544702
  H   2.75348496206317      0.06816076090409      0.66264705679301
  H   1.99441496955794     -1.11016512637430     -0.41957314104946
