16
Coordinates from ORCA-job run
  C   -0.80067953175966     -0.18754305969233      0.51021577907470
  C   0.70570710508939      0.16337744682105      0.64135809789789
  H   -1.31199171656478      0.21476271761735      1.39258771671579
  H   1.06761403848516     -0.27720527108291      1.57775885619933
  C   -0.94692151172084     -1.64520183958827      0.54791778557680
  N   -1.04418727173696     -2.81548909836023      0.55735241548720
  C   -1.45736568180507      0.38917359227335     -0.74759040687844
  H   -1.04160553551561     -0.05620614906399     -1.65193417662494
  H   -2.52956546875924      0.18701461962572     -0.73507565465253
  H   -1.31144523989232      1.47070800254063     -0.78332580800700
  C   0.83899554208047      1.61767822885030      0.76373291680276
  N   0.92989359275301      2.78612759456820      0.83965189853123
  C   1.56092755663243     -0.36244013422994     -0.51541046655086
  H   2.61602854169459     -0.16569267220201     -0.31851673474444
  H   1.42552745308643     -1.44089104127745     -0.62069630208557
  H   1.29806812793301      0.12282706320054     -1.45602591674191
