16
Coordinates from ORCA-job run
  C   -0.78087452078522     -0.00019364665809      0.30000761540631
  C   0.76537487185570     -0.08715492541462      0.32515354009039
  H   -1.06277920513908      1.04218529670879      0.49283459003252
  H   1.04417611108724     -1.14430144333871      0.23591380088663
  C   -1.33212973867662     -0.81558831071174      1.38655278262391
  N   -1.77535700232802     -1.50065566645706      2.23117481428942
  C   -1.37423365306926     -0.44901086187824     -1.03956842394115
  H   -1.02389998562141     -1.45132711423407     -1.29806524068596
  H   -1.09577940499282      0.24000367621153     -1.83727786137733
  H   -2.46333803584460     -0.47455200382662     -0.97962272908855
  C   1.25952374815845      0.39220678471429      1.61950764677213
  N   1.65826554944871      0.81328086666880      2.64068817277317
  C   1.41936199670412      0.70929347631020     -0.80879408561643
  H   1.18617345487659      0.26716349932353     -1.77775425708705
  H   2.50398623800995      0.71173449603205     -0.69041462791660
  H   1.07352957631638      1.74591587654968     -0.79933573716140
