16
Coordinates from ORCA-job run
  C   0.73310922596627     -0.07368462768731      0.39547320847987
  C   -0.80125975491435      0.06036794356785      0.23111604350686
  H   0.97337611229889     -1.14240508670167      0.45373458274126
  H   -1.05337226811100      1.12675628915483      0.28151876454371
  C   1.14123858018117      0.54008873465277      1.66279960562278
  N   1.45663728367271      1.06378686200400      2.66543282177751
  C   1.50746047367887      0.56012837164832     -0.76480074595878
  H   1.33316904604053      0.01337891118271     -1.69179201498028
  H   2.57853369904529      0.54167402974904     -0.55774882270251
  H   1.20580012811826      1.60108072867302     -0.90489113532128
  C   -1.46986413534007     -0.60467601611785      1.35365175829433
  N   -1.99136128073565     -1.16893437534863      2.24177905156079
  C   -1.30467377382362     -0.52011274841787     -1.09447596052256
  H   -0.97512695625457     -1.55557708212213     -1.21031291484595
  H   -0.93738727041629      0.06462098882619     -1.93816570222946
  H   -2.39527910940644     -0.50549292306328     -1.12231853996628
