16
Coordinates from ORCA-job run
  C   -0.78025651911763      0.02535299042365      0.29746931366487
  C   0.76379239643849     -0.09527871261164      0.32675803989365
  H   -1.03802729284721      1.07972993642594      0.45616705601662
  H   1.01945133063022     -1.16042229455244      0.26844261239194
  C   -1.34998737821131     -0.73994091824470      1.41051759017628
  N   -1.80832678487927     -1.38339249776532      2.27953898731716
  C   -1.38402464581623     -0.45261986838928     -1.02713873167058
  H   -2.47340613047887     -0.45163746216458     -0.96680967226538
  H   -1.09058782629117      0.20426001388874     -1.84630866454688
  H   -1.05641805541725     -1.47023367488296     -1.25360543817897
  C   1.26672530857178      0.41075183586824      1.60747177930873
  N   1.66955590813889      0.85463229993009      2.61729387570462
  C   1.43541272400331      0.65418750819693     -0.82867667894148
  H   1.18974582908572      0.19267178962587     -1.78537292260505
  H   2.51998024481944      0.63300663996077     -0.71170656382101
  H   1.11537089137112      1.69893241429069     -0.84604058244452
