16
Coordinates from ORCA-job run
  C   0.61063457444678      0.31406199503961      0.45079514734384
  C   -0.65871101570628     -0.48521415551714      0.07485495141663
  H   0.48720343404789      0.62520009409438      1.49562157322054
  H   -0.69217931785677     -1.35396182917323      0.74410321959652
  C   0.69404889231371      1.53350429881288     -0.35792615213624
  N   0.76059432159885      2.50619571584271     -1.01254797540324
  C   1.89009903183337     -0.51591183939304      0.31812367325821
  H   1.81767164690180     -1.41131448372593      0.94008459465327
  H   2.75745842071021      0.06092237410640      0.64277725372173
  H   2.04648410812555     -0.82100236548989     -0.71781850585217
  C   -0.54317599001294     -0.99627221880329     -1.29396539286462
  N   -0.44912387918465     -1.39670775666064     -2.39398035259397
  C   -1.94137757845567      0.33324706580659      0.24359043091846
  H   -2.01556670428826      0.69958538061080      1.27043981159623
  H   -2.81870406763764     -0.27986618370220      0.03112952192411
  H   -1.94535587683598      1.18853390815198     -0.43428179879931
