15

C	0.0	0.0	0.0
C	-0.26521	-0.106092	-1.543166
Cl	1.806991	0.0	0.0
H	0.208163	0.81978	-1.894172
N	-0.526963	1.157037	0.555131
H	-1.555725	1.07055	0.44737
H	-0.304706	1.181584	1.545605
N	-0.374202	-1.304666	0.743289
O	-0.550172	-2.315501	0.081274
O	-0.402042	-1.208785	1.964293
C	-1.595536	-0.10534	-2.181934
N	-2.315541	-0.049884	-3.114089
C	0.483369	-1.205855	-2.174044
N	1.092717	-2.012863	-2.771002
Cl	-3.311253	0.0	0.0
