15

C	0.0	0.0	0.0
C	-0.539668	0.171892	-1.430832
Cl	1.801142	0.0	0.0
H	-1.63237	-0.029302	-1.33998
N	-0.521402	0.976555	0.842326
H	-0.243071	0.778581	1.795784
H	-1.548436	0.920505	0.762032
N	-0.32781	-1.454904	0.486396
O	-0.560813	-2.313207	-0.351621
O	-0.28852	-1.611082	1.699883
C	0.073125	-0.704764	-2.427491
N	0.56429	-1.350355	-3.27679
C	-0.350925	1.561455	-1.850965
N	-0.197821	2.655709	-2.249236
Cl	-3.427772	0.0	0.0
