15

C	0.0	0.0	0.0
C	-0.391346	0.051321	-1.520588
Cl	1.76606	0.0	0.0
H	0.454444	-0.407057	-2.0425
N	-0.532984	1.016032	0.770337
H	-1.565279	0.946661	0.686049
H	-0.257264	0.90313	1.73813
N	-0.32021	-1.445258	0.519406
O	-0.522115	-1.545968	1.719551
O	-0.248581	-2.358395	-0.292663
C	-0.431862	1.452113	-1.952156
N	-0.442846	2.548235	-2.374726
C	-1.542022	-0.693056	-2.057163
N	-2.177789	-1.347624	-2.801348
Cl	-3.328168	0.0	0.0
