14

C	-0.283887	0.023415	-1.492405
C	0.0	0.0	0.0
Br	-2.219372	0.265981	-1.914408
H	1.097547	0.0	0.0
C	0.455539	1.065256	-2.211283
N	1.01558	1.836602	-2.899331
C	0.093678	-1.275446	-2.054713
N	0.370263	-2.318019	-2.522573
C	-0.550184	-1.159986	0.653406
N	-0.997151	-2.119421	1.166603
N	-0.410966	1.239811	0.68024
O	-0.591806	1.180467	1.893988
O	-0.470717	2.263225	-0.000698
F	2.389499	0.0	0.0
