14

C	-0.342201	0.069357	-1.496779
C	0.0	0.0	0.0
Br	0.138425	-1.671028	-2.288851
H	1.093875	0.0	0.0
C	-1.766911	0.27846	-1.757147
N	-2.918731	0.402893	-1.962102
C	0.4555	1.075461	-2.204838
N	1.044552	1.857497	-2.855018
C	-0.568091	-1.142789	0.672799
N	-1.006944	-2.086004	1.221556
N	-0.425468	1.244005	0.679861
O	-0.645834	2.228872	-0.02807
O	-0.464308	1.228269	1.904851
F	2.404923	0.0	0.0
