14

C	-0.401519	-0.18653	-1.448452
C	0.0	0.0	0.0
Br	-2.384066	-0.363612	-1.668525
H	1.115302	0.0	0.0
C	0.01976	0.885401	-2.352907
N	0.326278	1.653353	-3.188733
C	0.179326	-1.441398	-1.932659
N	0.632004	-2.440332	-2.356228
C	-0.408626	-1.120653	0.815228
N	-0.691376	-2.069212	1.450569
N	-0.471417	1.264634	0.581478
O	-0.556018	1.319943	1.80633
O	-0.685626	2.202251	-0.187515
F	2.383865	0.0	0.0
