14

C	-0.379022	-0.052057	-1.486654
C	0.0	0.0	0.0
Br	0.555734	1.34102	-2.514888
H	1.092122	0.0	0.0
C	0.08908	-1.331473	-2.025133
N	0.383796	-2.39205	-2.4384
C	-1.815465	0.068669	-1.74427
N	-2.974104	0.089189	-1.94378
C	-0.48729	-1.170364	0.697324
N	-0.854759	-2.138772	1.255715
N	-0.499207	1.21172	0.685944
O	-1.039167	2.091964	0.014822
O	-0.303627	1.259557	1.89658
F	2.407289	0.0	0.0
