16
Coordinates from ORCA-job run
  C   0.73365676758096      0.18664888860245      0.46573486634784
  C   -0.78973898125228      0.12075560829330      0.34598214007575
  Br  1.27420061114269      1.20903246697615      1.98544939967017
  H   -1.24039004372339      0.12748380546024      1.33698288291371
  N   1.40953228071343      0.71169230956649     -0.80427302404651
  O   0.72982610405274      0.64023885742497     -1.82079670061250
  O   2.55884757540873      1.09979911910128     -0.69490567141303
  N   1.25470462950813     -1.25068603287039      0.69584899176333
  O   2.23436113252268     -1.60377991935610      0.06765830484413
  O   0.62385306578861     -1.86801367960090      1.53918469652312
  N   -1.31029895116438     -1.11892236066337     -0.33064337108406
  O   -2.44962328458070     -1.42533669249226     -0.00304553886911
  O   -0.58182122099545     -1.68799647468895     -1.13347282400782
  N   -1.34745808275641      1.32876465224251     -0.39397101211668
  O   -2.21840283669879      1.13022919715580     -1.22184272537463
  O   -0.88024876554656      2.39809025484876     -0.03289041461371
