14

C	0.0	0.0	0.0
C	-0.512975	-0.045008	-1.432181
Cl	1.832894	0.0	0.0
H	-0.293862	0.897602	-1.93114
H	-1.602562	-0.203855	-1.356005
N	-0.51268	1.178282	0.584081
H	-0.008147	2.01123	0.323641
H	-0.722958	1.121149	1.566315
C	-0.385651	-1.164751	0.805218
N	-0.624073	-2.049243	1.539635
N	0.098591	-1.11618	-2.252929
O	0.153784	-2.242954	-1.765891
O	0.490466	-0.808698	-3.3808
Cl	-3.626935	0.0	0.0
