14

C	0.0	0.0	0.0
C	-0.499479	0.042367	-1.447116
Cl	1.794803	0.0	0.0
H	-0.13063	-0.821642	-1.994869
H	-1.594257	0.083497	-1.408255
N	-0.497622	1.107306	0.74687
H	-0.280145	0.976067	1.728874
H	-1.519829	1.088925	0.638507
C	-0.360651	-1.333021	0.539938
N	-0.571232	-2.389682	1.009613
N	0.000324	1.241964	-2.168102
O	-0.547915	2.316593	-1.94119
O	0.926505	1.070027	-2.965337
Cl	-3.49623	0.0	0.0
