14

C	0.0	0.0	0.0
C	-0.464807	0.021403	-1.469102
Cl	1.802407	0.0	0.0
H	-0.163952	-0.88015	-1.998867
H	-1.557533	0.134062	-1.442336
N	-0.488559	1.022409	0.869913
H	-1.504403	0.877292	0.917473
H	-0.328051	1.917087	0.420115
C	-0.377723	-1.320436	0.536674
N	-0.583215	-2.383636	0.99053
N	0.116235	1.155625	-2.226898
O	0.624745	0.905093	-3.318738
O	0.04095	2.281652	-1.733141
Cl	-3.461568	0.0	0.0
