14

C	0.0	0.0	0.0
C	-0.482118	-0.304853	-1.430226
Cl	1.779236	0.0	0.0
H	-0.173658	-1.296535	-1.752096
H	-1.578768	-0.216628	-1.419366
N	-0.495685	1.182854	0.637599
H	-1.515202	1.058602	0.684955
H	-0.304492	1.966416	0.023247
C	-0.377046	-1.181947	0.803063
N	-0.574655	-2.16705	1.410519
N	0.050379	0.634327	-2.448976
O	0.295027	0.161787	-3.559069
O	0.179825	1.821975	-2.150269
Cl	-3.472528	0.0	0.0
