14

C	0.0	0.0	0.0
C	-0.155058	0.126141	-1.556108
Cl	1.80209	0.0	0.0
H	0.439667	-0.656435	-2.022364
H	0.239013	1.106482	-1.826246
N	-0.550504	1.01467	0.817383
H	-0.404507	1.916264	0.374887
H	-1.568928	0.832295	0.831162
C	-0.406208	-1.334244	0.461111
N	-0.553612	-2.44668	0.807981
N	-1.475711	0.031975	-2.245825
O	-1.992155	1.091066	-2.590406
O	-1.862003	-1.096499	-2.530837
Cl	-3.445392	0.0	0.0
