14

C	0.0	0.0	0.0
C	-0.492695	0.070898	-1.439658
Cl	1.833571	0.0	0.0
H	-0.257008	1.048842	-1.853546
H	-1.58185	-0.090758	-1.385445
N	-0.497381	1.144159	0.663253
H	-0.669679	1.021529	1.647005
H	0.02923	1.977775	0.45484
C	-0.392887	-1.221937	0.709743
N	-0.538706	-2.198299	1.345646
N	0.14049	-0.931114	-2.326323
O	0.121609	-2.103707	-1.960513
O	0.630423	-0.524664	-3.381037
Cl	-3.563563	0.0	0.0
