16

C	0.0	0.0	0.0
C	-0.562401	-0.606684	-1.277291
Br	1.956189	0.0	0.0
H	-1.639239	-0.399629	-1.224513
H	-0.14936	-0.080219	-2.138499
N	-0.334237	1.494102	0.014108
O	-0.397511	2.062411	-1.072879
O	-0.46592	2.037267	1.104
C	-0.524711	-0.652784	1.247893
H	-0.09809	-0.20042	2.140776
H	-0.275732	-1.712052	1.19918
H	-1.61383	-0.529725	1.242793
N	-0.310379	-2.045346	-1.306654
H	0.326604	-2.279895	-2.054939
H	-1.183507	-2.531969	-1.457115
Cl	-3.831372	0.0	0.0
