16

C	0.0	0.0	0.0
C	-0.337931	-0.053794	-1.520321
Br	1.950944	0.0	0.0
H	0.056694	0.880541	-1.912979
H	0.302191	-0.849777	-1.907697
N	-0.393066	1.359559	0.586954
O	-0.809204	2.215537	-0.190305
O	-0.225293	1.518812	1.788639
C	-0.504082	-1.103054	0.904403
H	-0.037059	-2.047982	0.630379
H	-0.2459	-0.877864	1.940644
H	-1.593576	-1.176976	0.83388
N	-1.677438	-0.235463	-1.995317
H	-2.328272	0.457428	-1.628881
H	-2.086248	-1.131124	-1.752932
Cl	-4.239142	0.0	0.0
