16

C	0.0	0.0	0.0
C	-0.401362	0.137463	-1.489449
Br	1.950748	0.0	0.0
H	0.223458	0.92036	-1.923076
H	-0.098159	-0.809998	-1.951664
N	-0.350436	1.287175	0.746988
O	-0.373891	2.325014	0.09116
O	-0.538795	1.205678	1.95534
C	-0.60908	-1.178738	0.706434
H	-0.354466	-2.088709	0.159551
H	-1.697659	-1.044663	0.702041
H	-0.262968	-1.259331	1.734427
N	-1.770775	0.417586	-1.801727
H	-2.04146	1.327851	-1.456081
H	-2.446964	-0.222867	-1.395633
Cl	-4.372778	0.0	0.0
