16

C	0.0	0.0	0.0
C	-0.535213	0.255347	-1.417509
Br	1.948586	0.0	0.0
H	-0.370487	-0.682216	-1.958034
H	-1.618778	0.368559	-1.28969
N	-0.36108	1.144791	0.949496
O	-0.350657	0.900607	2.149754
O	-0.592531	2.244336	0.456068
C	-0.530748	-1.291697	0.570014
H	-0.159962	-1.45835	1.579586
H	-0.223698	-2.117117	-0.075102
H	-1.624253	-1.211411	0.576744
N	-0.008206	1.345878	-2.212388
H	-0.245114	2.214739	-1.754425
H	1.001788	1.284775	-2.255738
Cl	-3.786842	0.0	0.0
