16

C	0.0	0.0	0.0
C	-0.531809	-0.426428	-1.374224
Br	1.950772	0.0	0.0
H	-0.020651	0.150203	-2.144783
H	-1.59241	-0.151991	-1.367179
N	-0.339724	1.479021	0.206575
O	-0.55346	1.861108	1.351115
O	-0.325663	2.190897	-0.791921
C	-0.529465	-0.810452	1.149877
H	-0.159475	-0.428423	2.098812
H	-0.21442	-1.847648	1.036
H	-1.623115	-0.741704	1.11764
N	-0.429581	-1.846167	-1.658213
H	-1.130049	-2.344811	-1.123929
H	0.48604	-2.202396	-1.412646
Cl	-3.767554	0.0	0.0
