16

C	0.0	0.0	0.0
C	-0.535331	-0.461637	-1.361337
Br	1.950795	0.0	0.0
H	-1.594428	-0.181557	-1.360478
H	-0.022054	0.090815	-2.148627
N	-0.339486	1.484166	0.167553
O	-0.56179	1.894887	1.30029
O	-0.315906	2.171737	-0.847972
C	-0.529034	-0.778199	1.173212
H	-0.162469	-0.364553	2.110144
H	-0.208977	-1.817562	1.091386
H	-1.623014	-0.715347	1.137208
N	-0.442795	-1.889736	-1.6057
H	-1.148109	-2.366614	-1.058301
H	0.469713	-2.245259	-1.346997
Cl	-3.764442	0.0	0.0
