16

C	0.0	0.0	0.0
C	-0.487398	0.033486	-1.453696
Cl	1.79888	0.0	0.0
H	-0.141317	-0.855511	-1.98238
H	-1.589229	0.080595	-1.367843
C	-0.456829	1.214628	0.787917
H	-0.020218	2.133731	0.396999
H	-0.157421	1.07296	1.827578
H	-1.55162	1.245932	0.715284
N	-0.526696	-1.174416	0.644377
H	-1.555863	-1.017329	0.618614
H	-0.331729	-1.988839	0.068022
N	-0.010068	1.189166	-2.24744
O	-0.538052	2.285581	-2.043407
O	0.887214	0.989541	-3.075145
H	-3.118129	0.0	0.0
