16

C	0.0	0.0	0.0
C	-0.515109	0.128092	-1.429016
Cl	1.793189	0.0	0.0
H	-1.61678	0.204747	-1.319665
H	-0.20828	-0.743616	-2.001555
C	-0.427766	1.161504	0.887314
H	-0.104046	0.95469	1.912501
H	-0.000712	2.11129	0.567358
H	-1.522459	1.193611	0.844944
N	-0.529819	-1.270083	0.437465
H	-1.560296	-1.123759	0.358567
H	-0.338125	-1.356594	1.431008
N	-0.015587	1.31404	-2.158992
O	0.758465	1.122799	-3.101733
O	-0.415757	2.424173	-1.806074
H	-3.097073	0.0	0.0
