16

C	0.0	0.0	0.0
C	-0.64738	-0.001642	-1.343464
Cl	1.856971	0.0	0.0
H	-0.540702	0.95147	-1.859123
H	-1.891136	-0.10073	-0.868965
C	-0.395576	1.293408	0.682799
H	0.002467	2.160131	0.143534
H	-1.496693	1.273468	0.678892
H	-0.038817	1.304669	1.712027
N	-0.425908	-1.097506	0.793508
H	-0.296777	-1.966224	0.286893
H	0.078657	-1.105704	1.674139
N	-0.255523	-1.048868	-2.231581
O	-0.044698	-0.774337	-3.431813
O	-0.182882	-2.224078	-1.809722
H	-2.894953	0.0	0.0
