16

C	0.0	0.0	0.0
C	-0.59442	0.007519	-1.393946
Cl	1.842301	0.0	0.0
H	-1.702112	0.104587	-1.190174
H	-0.37399	-0.921171	-1.918484
C	-0.496699	1.132648	0.865059
H	-1.59612	1.047989	0.838464
H	-0.123492	1.005071	1.885924
H	-0.176221	2.097593	0.480704
N	-0.431594	-1.242997	0.555833
H	-0.365944	-1.241636	1.563521
H	0.084019	-2.02364	0.171913
N	-0.122674	1.089048	-2.27528
O	0.381726	0.763891	-3.357831
O	-0.286374	2.25775	-1.914504
H	-3.271463	0.0	0.0
