15

C	-0.537163	-0.023641	-1.423428
C	0.0	0.0	0.0
F	-0.207674	-1.218733	-2.05973
H	1.100523	0.0	0.0
C	-2.014541	0.078208	-1.441733
N	-3.186969	0.14323	-1.454829
C	0.027079	1.087938	-2.207102
N	0.461629	1.966073	-2.853114
N	-0.554876	-1.169509	0.706505
H	-0.356215	-1.986268	0.133573
H	0.051678	-1.281002	1.515837
N	-0.460745	1.243855	0.58209
H	0.296457	1.641623	1.122375
H	-1.263143	1.070941	1.176698
F	2.613888	0.0	0.0
