15

C	-0.542266	0.00351	-1.41209
C	0.0	0.0	0.0
F	-1.95225	0.003924	-1.396992
H	1.094546	0.0	0.0
C	-0.125392	1.207788	-2.152921
N	0.212117	2.15346	-2.760553
C	-0.126295	-1.197384	-2.158841
N	0.21066	-2.13998	-2.77147
N	-0.411455	-1.250829	0.621782
H	0.31739	-1.521588	1.269689
H	-1.289217	-1.158223	1.120303
N	-0.411193	1.248229	0.627081
H	0.318285	1.516718	1.276292
H	-1.289516	1.153707	1.125041
F	2.582257	0.0	0.0
