16

C	-0.497933	-0.003782	-1.445537
C	0.0	0.0	0.0
Cl	-0.056211	1.517342	-2.298667
H	1.095268	0.0	0.0
H	0.060293	-0.775332	-1.993785
N	-1.933599	-0.164818	-1.479349
H	-2.12586	-0.920043	-0.824968
H	-2.224794	-0.442217	-2.409664
N	-0.46751	-1.286651	0.579805
H	0.268966	-1.971681	0.428768
H	-0.521233	-1.167632	1.585452
C	-0.544663	1.153693	0.81996
H	-0.126527	1.105154	1.829204
H	-1.635312	1.114607	0.875737
H	-0.250013	2.108747	0.388113
Br	3.669333	0.0	0.0
