16

C	-0.526657	-0.029997	-1.425335
C	0.0	0.0	0.0
Cl	0.182286	1.359805	-2.398238
H	1.0941	0.0	0.0
H	-0.142349	-0.92664	-1.906814
N	-1.958015	-0.032837	-1.465465
H	-2.30706	0.875522	-1.185002
H	-2.279492	-0.204917	-2.409761
N	-0.393504	-1.284769	0.586633
H	0.232259	-1.489069	1.356074
H	-1.344383	-1.235434	0.933528
C	-0.474984	1.214325	0.794287
H	0.005756	1.200963	1.775143
H	-1.56059	1.19277	0.951525
H	-0.200601	2.15128	0.304068
Br	3.686271	0.0	0.0
