16

C	-0.472257	-0.010409	-1.453233
C	0.0	0.0	0.0
Cl	0.218681	1.425599	-2.371995
H	1.094012	0.0	0.0
H	-0.035762	-0.872666	-1.958415
N	-1.899879	-0.072246	-1.555735
H	-2.179301	-0.163993	-2.524428
H	-2.302327	0.785395	-1.197535
N	-0.420082	-1.24168	0.659424
H	-1.320794	-1.524586	0.288344
H	0.25872	-1.965034	0.45066
C	-0.5155	1.19307	0.790521
H	-0.266807	2.139407	0.30635
H	-1.599499	1.132144	0.942913
H	-0.044742	1.172119	1.773625
Br	3.695041	0.0	0.0
