12

C	0.0	0.0	0.0
C	-0.474917	-0.220149	-1.405806
F	1.367252	0.0	0.0
H	-1.563567	-0.153593	-1.434159
H	-0.012885	0.534847	-2.042272
H	-0.145782	-1.214873	-1.7145
N	-0.361706	1.392317	0.522284
O	-0.428445	2.285944	-0.311014
O	-0.421748	1.520195	1.738867
C	-0.452918	-1.005565	0.968486
N	-0.605844	-1.906112	1.707337
Br	-3.595502	0.0	0.0
