13
Coordinates from ORCA-job run
  C   -0.34410640574227      0.42805226848980      0.07816983367326
  C   0.76155595222892      0.13785443411320     -0.92564276904679
  Cl  -1.26471486241343      1.87549218711805     -0.55761525924396
  H   0.32941137614141      0.00838062564500     -1.91737519658849
  H   1.42546463399366      1.00662315679929     -0.96039695364547
  N   -1.38428640369531     -0.69629675019012      0.06671227554504
  O   -1.44254851983684     -1.39226240576132     -0.93764521246022
  O   -2.09570291494299     -0.77465396564736      1.05882250051115
  N   0.12632580288258      0.54138009852123      1.38578997748036
  H   0.83343348016832      1.25650640163555      1.48465927889576
  H   -0.62203879088369      0.66312767445329      2.05538151774113
  C   1.52443118767401     -1.05176596139274     -0.55605717172221
  N   2.15177546442562     -2.00243776378386     -0.27580282113957
