13
Coordinates from ORCA-job run
  C   -0.26563781854690      0.37236385356913     -0.00599649195771
  C   0.62338411675966     -0.68130212004711     -0.65688817258812
  Cl  -0.51954381785457      1.74772279315041     -1.09756051799086
  H   0.63776835178648     -1.57450963947744     -0.02170872215120
  H   0.19680814803730     -0.97150552517579     -1.61662560283279
  N   -1.69058716287028     -0.27278421000415      0.13294962444771
  O   -2.06120511636899     -1.01958053474073     -0.76365324277561
  O   -2.32445429034681      0.04307688730190      1.13181093074428
  N   0.24856988630913      0.82281317684269      1.21528517941960
  H   -0.36679981959642      1.48954668295779      1.66249586338020
  H   0.44825251067545      0.05633202648534      1.84590784099997
  C   1.98452680986068     -0.18818082085914     -0.83390551830150
  N   3.08891820215527      0.17400742999710     -0.99211117039397
