13
Coordinates from ORCA-job run
  C   -0.38816330091163      0.38562322217514     -0.03159617690685
  C   0.58230892891733     -0.63656349875626     -0.65443620978046
  Cl  -0.55955331665854      1.75936616192172     -1.11121173359076
  H   0.26119140910269     -0.89497907318900     -1.66740832963809
  H   0.56645092860423     -1.54171335586669     -0.04026060523693
  N   -1.72509104873094     -0.37713084346443      0.08489716227755
  O   -1.70604048759346     -1.24278002174848      0.95565676763529
  O   -2.64722460996299     -0.11594994377826     -0.66813781416000
  N   -0.09497300060844      0.84748657687597      1.28276079794511
  H   0.70093150012323      1.47188091172636      1.27821653347658
  H   0.06303085306960      0.06885197224954      1.91019076417007
  C   1.93358638599671     -0.09088268743147     -0.67757411812542
  N   3.01354575865222      0.36779057928585     -0.66109703806610
