13
Coordinates from ORCA-job run
  C   -0.25295359210550      0.38224285496772      0.00472796354546
  C   0.60329789288730     -0.68150570039042     -0.67374730311207
  Cl  -0.45907210117616      1.79507485544035     -1.04646907081488
  H   0.59030508575140     -1.59005741858762     -0.06053011994687
  H   0.16729047712328     -0.93354687209091     -1.64006655379824
  N   -1.69650461799009     -0.22607623322007      0.12200611653257
  O   -2.10062564806432     -0.89913307321469     -0.81754959726843
  O   -2.30759465312984      0.03704599595406      1.14998329812985
  N   0.27204200039417      0.78103590068853      1.23964930647977
  H   0.42606330285820     -0.00822593616504      1.85488782079533
  H   -0.31540599422280      1.46565117868363      1.69729748411355
  C   1.97903351336162     -0.22618039794986     -0.83884998421640
  N   3.09412433431271      0.10467484588431     -0.99033936043962
