13
Coordinates from ORCA-job run
  C   -0.34813334068620      0.43088239230792     -0.02421959197994
  C   0.85932846130374      0.00672147680716     -0.84662099715613
  Cl  -1.18463082469851      1.75807009444487     -0.96677534146045
  H   0.53789748714617     -0.27284984420528     -1.84937404051225
  H   1.52803471255166      0.86774278040214     -0.93721197794524
  N   -1.38740033315959     -0.69347938939699      0.01753366587807
  O   -2.20284390141938     -0.63286284310855      0.92736707998020
  O   -1.33932128581990     -1.53041966060476     -0.87348313388070
  N   -0.02421969223184      0.74296101939285      1.29516651912017
  H   -0.84110648013236      0.95292939704387      1.85343853062311
  H   0.67096753727629      1.47300098351494      1.36382811596593
  C   1.57074212717156     -1.10661761929076     -0.22353126723518
  N   2.16168553269839     -1.99607878730739      0.26188243860247
