13
Coordinates from ORCA-job run
  C   -0.32989332668674      0.24982831055603      0.05846908422347
  C   0.60746820124890     -0.62110052895331     -0.76953845520429
  Cl  -0.67380240477780      1.77453704879927     -0.87908872892206
  H   0.65039940388819     -1.61150519704655     -0.30958950359610
  H   0.22462167896984     -0.72542288218453     -1.78397467404743
  N   -1.69481778676095     -0.43460889161594      0.16398897466342
  O   -1.94941781399215     -1.30973706018993     -0.65372040713910
  O   -2.42877908355625     -0.02553265280387      1.05245154967227
  N   0.13256603488558      0.43749775522313      1.36560794724758
  H   1.04338420920734      0.87868910385801      1.38614512281142
  H   -0.53174953727413      0.95875856281812      1.92370770926494
  C   1.94161344450441     -0.03050242867669     -0.78522056002287
  N   3.00740698034379      0.46009886021624     -0.76823805895125
