13
Coordinates from ORCA-job run
  C   -0.38744979085124      0.38333890288347     -0.06142216520245
  C   0.59447602417254     -0.67279874268359     -0.60497210758355
  Cl  -0.53742626647952      1.69118664528460     -1.22352369196083
  H   0.29356893390076     -0.98890262942552     -1.60773999858493
  H   0.56539708138770     -1.54107362736154      0.05987189843815
  N   -1.72668288668560     -0.37187035763909      0.07386212450762
  O   -1.72769722496206     -1.18208357409182      0.99674055311823
  O   -2.63122931398908     -0.15957040168795     -0.71513412710091
  N   -0.11895439013331      0.92195751970863      1.22885117539353
  H   0.68288848717260      1.53838100461442      1.20429665463386
  H   0.01833936868687      0.18127918024186      1.90519110643364
  C   1.94619635138039     -0.12835054942933     -0.63244721215016
  N   3.02657362639998      0.32950662958585     -0.62357420994222
