13
Coordinates from ORCA-job run
  C   -0.27255523184233      0.36438463823757      0.05036703209825
  C   0.68747794097146     -0.52614905990045     -0.73053772087558
  Cl  -0.47501698913612      1.93365406028915     -0.75118375088452
  H   0.33957339690623     -0.61812160009110     -1.75907271666749
  H   0.67683195519601     -1.53001640493669     -0.29046415768540
  N   -1.68781961868402     -0.30780985116110     -0.06045176208241
  O   -1.97705659633802     -0.84052525833089     -1.12417532986163
  O   -2.39640671264406     -0.22950337953370      0.93521922711804
  N   0.13648780411229      0.55584692877358      1.37498031561233
  H   -0.52395192392437      1.11523420592477      1.89847005470366
  H   0.30036237267677     -0.32333203457951      1.84950571224660
  C   2.04526720849254      0.00542928776377     -0.69823173905877
  N   3.14880639421366      0.40290846754461     -0.69242516466308
