13
Coordinates from ORCA-job run
  C   -0.25357819968224      0.50560648306615      0.01812768610174
  C   1.10121703211669     -0.10107523578007     -0.34127401381593
  Cl  -0.88982890792701      1.46168224322250     -1.30796908781217
  H   1.47787099807555     -0.64734623579426      0.52810649040065
  H   1.78183754425711      0.72510348035873     -0.55675377342940
  N   -1.20627464825505     -0.71803994688039      0.25925513830455
  O   -2.10190179103697     -0.97820921013228     -0.52589224072290
  O   -0.91460097628864     -1.34153516058483      1.27811377561972
  N   -0.12872991706995      1.30287915602977      1.18140852938284
  H   -0.98051167509555      1.81675454844839      1.37115355227255
  H   0.10595680627444      0.72155141080983      1.97756343932528
  C   1.02874288508914     -1.00638688598951     -1.48338621306008
  N   0.98080084954248     -1.73898464677403     -2.39845328256683
