13
Coordinates from ORCA-job run
  C   -0.27878530662805      0.36273104327547     -0.03454800945923
  C   0.74115378899650     -0.63269711708672     -0.57654876885108
  Cl  -0.43859661802983      1.75866736320881     -1.11652920318273
  H   0.46555773345836     -0.91430352678837     -1.59250576959087
  H   0.70908950994131     -1.54133063864355      0.03580495959936
  N   -1.67582043686579     -0.35116081594442     -0.11825125961979
  O   -2.44682062738331     -0.12956421788875      0.80708641119319
  O   -1.88993024334776     -1.05636951352248     -1.09582263869147
  N   0.03443209091951      0.79617986577920      1.25864095404607
  H   -0.66525849488484      1.42696879727927      1.62699718087457
  H   0.16973176695878      0.01937353771944      1.89367654058610
  C   2.08890493921129     -0.07573399896446     -0.54968098545156
  N   3.18634189765380      0.33823922157651     -0.53931941145256
