13
Coordinates from ORCA-job run
  C   -0.25234280068698      0.34576737787789      0.15911900882516
  C   1.08141406881364     -0.21673106159313     -0.31260229875594
  Cl  -0.86604032441366      1.53522138698242     -1.06178832125279
  H   1.82360615700356      0.58178590365636     -0.21738927331623
  H   1.36315466112491     -1.02652385999208      0.36361562331651
  N   -1.31536353947068     -0.75337111085367      0.22418984127931
  O   -1.02679252627346     -1.84979427340984     -0.23706618931573
  O   -2.36998736831289     -0.43285533732153      0.75497437151223
  N   -0.14664131313843      0.84286077217071      1.47213934828271
  H   -1.05004124112528      1.15113507976911      1.81233765534473
  H   0.52138972384468      1.60051622196200      1.52939940360958
  C   1.08832906896314     -0.69497048434659     -1.69075730847793
  N   1.14831543367146     -1.08204061490167     -2.79617186105169
