13
Coordinates from ORCA-job run
  C   -0.45211517805099      0.31513754400680     -0.05486777120954
  C   0.66876219350466     -0.60229881711842     -0.58735391185488
  Cl  -0.89920416747116      1.46710816549540     -1.31111714641523
  H   0.81516445266648     -1.41581413436544      0.13180634121883
  H   0.37743681717281     -1.03305659389470     -1.54846110672274
  N   -1.61800894422107     -0.66351781399562      0.19441877415290
  O   -2.29890682962841     -0.99737304238164     -0.76270714880836
  O   -1.68543725935651     -1.10650790811944      1.33577623930175
  N   -0.21841269186498      1.01197034495147      1.15658194991380
  H   0.49928774267973      1.71492613746346      1.03975907668020
  H   0.00554619583151      0.37876205515908      1.91255673897921
  C   1.90961041555858      0.15041312037051     -0.71788726101919
  N   2.89727725317934      0.78025094242854     -0.78750477421676
