13
Coordinates from ORCA-job run
  C   -0.21922656348856      0.52225310534233      0.02556771248501
  C   1.12008804060537     -0.16213299861614     -0.24118207848498
  Cl  -0.65309303307016      1.59673341549281     -1.29137824016935
  H   1.37234131196071     -0.77886453576399      0.62599520501407
  H   1.87317224928903      0.62176710223073     -0.34355105384257
  N   -1.27206580800906     -0.63942849999717      0.09602845568122
  O   -1.12449454884378     -1.34070980934921      1.09512838077295
  O   -2.10151663291284     -0.78707615543008     -0.78505604795764
  N   -0.15639660752349      1.24049216006317      1.24408420833274
  H   -0.04412360877534      0.59856795914275      2.02014051401707
  H   -0.98474779576526      1.80613613522818      1.38353973195395
  C   1.09741004976653     -0.99960858902984     -1.43574119739066
  N   1.09065294676688     -1.67712928931350     -2.39357559041180
