13
Coordinates from ORCA-job run
  C   -0.29962950109660      0.56182043800067      0.00515352546901
  C   0.78215803052933      0.09471264046730     -0.96159807693073
  Cl  -1.12582251729736      1.97860595546013     -0.67530983152676
  H   0.33833842471846     -0.13072480724802     -1.93045192656209
  H   1.49993637971674      0.90992648683477     -1.07436173875671
  N   -1.41174469426882     -0.54449718843490      0.04654676097252
  O   -1.64526925695917     -1.14399071885929     -0.99452731176003
  O   -1.97134055249908     -0.69889792200563      1.12445349852597
  N   0.21097390132525      0.86681168825051      1.27432730991011
  H   -0.52573661445354      1.14212940493316      1.91133700167114
  H   0.71982926533667      0.08130916741286      1.66433370862477
  C   1.45382012878627     -1.08928808571236     -0.43248182371087
  N   1.97348700616185     -2.02791705909921      0.04357890407366
