13
Coordinates from ORCA-job run
  C   -0.42592339542197      0.52840312123713      0.03060477456803
  C   0.73253146791845      0.12508399373100     -0.89958101828664
  Cl  -1.22297860108901      1.93501082458496     -0.69318515800069
  H   1.41816470086468      0.97245804251977     -0.98299704058823
  H   0.34814804302209     -0.10812408837132     -1.89464660477536
  N   -1.40847037962915     -0.66243193077551     -0.00898642537094
  O   -1.90686650756500     -0.91146264700653     -1.09748857445297
  O   -1.54920373115761     -1.29614909027744      1.02847936640839
  N   -0.13204622576356      0.80276266224569      1.38563855568563
  H   0.48897124564340      1.59526691580258      1.47430416896059
  H   0.22963500857957     -0.00957926839578      1.86845383040714
  C   1.44100620904828     -1.02523335391987     -0.34619081395599
  N   1.98603216554984     -1.94700518137470      0.13459493940104
