13
Coordinates from ORCA-job run
  C   -0.31535960962723      0.31606460908432     -0.10428496376337
  C   0.73834926141426     -0.72997503045292     -0.45097156354656
  Cl  -0.72019757372673      1.30168515116606     -1.52211798722388
  H   0.39216323570370     -1.32467662597361     -1.29590852040750
  H   0.85668034649126     -1.40917870732742      0.40124942723871
  N   -1.63636118959024     -0.47631118772939      0.20327545853160
  O   -2.32996939585277     -0.03032675047742      1.10867689862877
  O   -1.87569048510466     -1.46028743524709     -0.48475783879218
  N   0.08197701030546      1.14299129679268      0.95252688657494
  H   -0.63737920924671      1.80794134349264      1.20461820595804
  H   0.35938749357072      0.60742896515464      1.76570105464810
  C   2.02048464808045     -0.10658299455225     -0.75898144884152
  N   3.06491546758249      0.36022736606975     -1.01802560900510
