13
Coordinates from ORCA-job run
  C   -0.26093452811541      0.32762389339355      0.17984415296942
  C   1.06793354416412     -0.15270101902701     -0.38697646794510
  Cl  -1.02518070617570      1.48663592630362     -0.98378339672492
  H   1.76655454902556      0.68814087105372     -0.33746486781797
  H   1.44287305648555     -0.94632543123507      0.26262313292156
  N   -1.25094553843127     -0.83269096974456      0.30542624234259
  O   -2.28233128128661     -0.57940199196951      0.91269326489758
  O   -0.93047509940773     -1.90746418206582     -0.18490286286530
  N   -0.09466787636274      0.82159255595028      1.48783205101112
  H   0.53084538167665      1.61654711115066      1.50738830439575
  H   -0.98904126021468      1.07467223781639      1.89151549953361
  C   1.00790665479307     -0.62282141697531     -1.76660536788507
  N   1.01646310384917     -0.97380758465095     -2.88558968483331
