13
Coordinates from ORCA-job run
  C   -0.42164360149184      0.53298720719485      0.02689480393500
  C   0.76765522550923      0.13905694334980     -0.86795224393277
  Cl  -1.17660044976455      1.96396544145860     -0.69395616366661
  H   0.41902875000920     -0.06741216600640     -1.88197605171684
  H   1.46358322781344      0.98127112099023     -0.90614914373424
  N   -1.41300480075387     -0.64664567636196     -0.07786865307588
  O   -1.59479020662975     -1.30555793983020      0.93736839058366
  O   -1.87508882632435     -0.86334130725544     -1.18896605579258
  N   -0.17711387520308      0.77247256207652      1.39820365775479
  H   0.15160483415618     -0.05666812251176      1.87594693581979
  H   0.45269571826458      1.55204795757787      1.52928393115070
  C   1.44372784106633     -1.03097110819824     -0.31542229323019
  N   1.95794616334849     -1.97120491248383      0.16359288590522
