13
Coordinates from ORCA-job run
  C   1.37210621460153     -0.29498529684257     -0.01531945192750
  C   -0.06927657182010     -0.03429805483419     -0.41577132039490
  H   1.60709763336681     -1.35059974859254     -0.16703570672392
  H   -0.22361517758174     -0.23139497985579     -1.47721034572994
  H   1.52277506555840     -0.04804435474199      1.03622653431766
  H   2.06053984472185      0.29975994124453     -0.61949505307875
  N   -0.34205920901198      1.43666111717553     -0.27263023261078
  O   -0.23210084923506      1.91474819909943      0.85427666821570
  O   -0.65482139058869      2.06042814753358     -1.28515016585361
  C   -1.07487984325750     -0.79216830970071      0.43308771715886
  H   -0.94005491081113     -0.54644759128580      1.48707278478273
  H   -2.09823605516303     -0.54658754707173      0.14139993686058
  H   -0.92847475077933     -1.86607152212774      0.29954863498386
