16

C	-0.487145	0.005212	-1.442334
C	0.0	0.0	0.0
F	-0.062675	-1.205973	-2.020795
H	1.092026	0.0	0.0
H	0.004086	0.801085	-1.999487
N	-1.899619	0.155104	-1.530139
H	-2.185104	0.217836	-2.499162
H	-2.360475	-0.642007	-1.109956
C	-0.514628	-1.160285	0.821513
H	-1.598214	-1.136116	0.955278
H	-0.053795	-1.141062	1.808286
H	-0.218881	-2.083776	0.323203
N	-0.407988	1.31351	0.587679
O	-0.068013	2.321975	-0.027476
O	-1.047625	1.322248	1.641306
Cl	3.371211	0.0	0.0
