16

C	-0.498976	-0.049692	-1.436555
C	0.0	0.0	0.0
F	-0.20551	1.178297	-2.020689
H	1.092529	0.0	0.0
H	-1.588282	-0.153377	-1.463563
N	0.107741	-1.087854	-2.201909
H	1.072934	-1.233045	-1.924716
H	-0.417482	-1.947323	-2.149009
C	-0.515757	-1.172274	0.817366
H	-0.175943	-1.079927	1.850842
H	-0.104459	-2.100853	0.419639
H	-1.607965	-1.214255	0.801753
N	-0.509511	1.252115	0.632632
O	-1.736195	1.408274	0.620664
O	0.288045	2.032888	1.138333
Cl	3.414651	0.0	0.0
