16

C	-0.557782	-0.017324	-1.416889
C	0.0	0.0	0.0
F	-1.955818	0.29884	-1.306176
H	1.091711	0.0	0.0
H	-0.555462	-1.045644	-1.786439
N	0.111477	0.817448	-2.323919
H	-0.392528	0.893836	-3.19524
H	0.30381	1.724369	-1.922943
C	-0.502511	-1.17647	0.809679
H	-0.105175	-2.088496	0.357837
H	-1.592505	-1.217759	0.825611
H	-0.130944	-1.120596	1.831281
N	-0.411055	1.291746	0.64637
O	-0.07761	2.33495	0.082561
O	-1.048205	1.256834	1.697823
Cl	3.366806	0.0	0.0
