16

C	-0.363743	0.084745	-1.486056
C	0.0	0.0	0.0
F	-1.732281	0.355207	-1.589627
H	1.091595	0.0	0.0
H	-0.202366	-0.914838	-1.902336
N	0.357897	1.021834	-2.288557
H	0.383838	1.904593	-1.790323
H	1.32134	0.698994	-2.332111
C	-0.54679	-1.238955	0.672814
H	-1.636123	-1.278252	0.614597
H	-0.123098	-2.112232	0.170547
H	-0.246866	-1.274653	1.719124
N	-0.460113	1.234332	0.703797
O	-0.122406	2.322474	0.234242
O	-1.155713	1.114967	1.71249
Cl	3.330589	0.0	0.0
