16

C	-0.487526	-0.023727	-1.451684
C	0.0	0.0	0.0
F	-0.155412	-1.279839	-1.953993
H	1.090361	0.0	0.0
H	0.092551	0.688293	-2.040178
N	-1.893449	0.180015	-1.580449
H	-2.122112	0.8766	-2.270084
H	-2.346616	0.393722	-0.706678
C	-0.529578	-1.145269	0.832372
H	-0.190016	-1.039968	1.862951
H	-0.10983	-2.064182	0.424785
H	-1.61779	-1.215352	0.825475
N	-0.444866	1.326446	0.5252
O	-1.406303	1.365776	1.302645
O	0.118801	2.323215	0.076517
Cl	3.38744	0.0	0.0
