15

C	0.0	0.0	0.0
C	-0.461146	0.015789	-1.471659
Br	1.919455	0.0	0.0
H	0.12474	-0.719229	-2.020328
H	-0.395328	0.818978	0.59529
N	-0.424567	-1.28966	0.652109
O	-0.642418	-1.242542	1.856298
O	-0.469208	-2.288088	-0.059951
N	-0.015868	1.357662	-2.025417
O	0.557337	1.359177	-3.111552
O	-0.311071	2.352218	-1.365934
N	-1.831149	-0.133507	-1.758475
H	-2.496719	0.299452	-1.107127
H	-2.084568	-1.109553	-1.803442
Cl	-4.356028	0.0	0.0
