13

C	-0.430784	-0.028223	-1.454774
C	0.0	0.0	0.0
F	-1.803093	-0.204633	-1.552046
H	1.094624	0.0	0.0
H	0.057935	-0.874786	-1.937885
C	-0.07595	1.224695	-2.130992
N	0.151292	2.24341	-2.667304
N	-0.39094	-1.303952	0.641539
O	-0.749724	-1.278352	1.813165
O	-0.259515	-2.307102	-0.051854
C	-0.562297	1.117482	0.736658
N	-0.996666	2.049448	1.304008
Br	3.264265	0.0	0.0
