13

C	-0.522974	0.010176	-1.441338
C	0.0	0.0	0.0
F	-0.121316	1.182951	-2.033182
H	1.091283	0.0	0.0
H	-1.615027	-0.019004	-1.447382
C	-0.014852	-1.141155	-2.20218
N	0.305916	-2.078746	-2.832985
N	-0.517467	-1.256407	0.658272
O	-1.738086	-1.427662	0.597283
O	0.291403	-2.004432	1.188848
C	-0.538608	1.142218	0.723898
N	-0.972085	2.068549	1.301648
Br	3.344953	0.0	0.0
