13

C	-0.444187	0.000563	-1.465085
C	0.0	0.0	0.0
F	-0.01061	-1.155788	-2.066453
H	1.091876	0.0	0.0
H	0.037888	0.852278	-1.954368
C	-1.906004	0.092328	-1.633076
N	-3.062485	0.186109	-1.811484
N	-0.523263	-1.253506	0.647711
O	-1.687635	-1.225153	1.04913
O	0.232794	-2.21517	0.677627
C	-0.525551	1.1701	0.684028
N	-0.92935	2.141911	1.205682
Br	3.342408	0.0	0.0
