13

C	-0.449531	0.006251	-1.462076
C	0.0	0.0	0.0
F	-0.040282	-1.16077	-2.061085
H	1.092246	0.0	0.0
H	0.049275	0.846373	-1.95479
C	-1.90914	0.129834	-1.627933
N	-3.063133	0.25635	-1.802585
N	-0.522231	-1.252417	0.652456
O	-1.695173	-1.231598	1.028799
O	0.245281	-2.203785	0.716291
C	-0.519585	1.167901	0.692708
N	-0.923728	2.134659	1.223583
Br	3.343639	0.0	0.0
