13

C	-0.437221	-0.019143	-1.453218
C	0.0	0.0	0.0
F	-1.81418	-0.169688	-1.541667
H	1.09472	0.0	0.0
H	0.031719	-0.875705	-1.940353
C	-0.059545	1.226278	-2.131697
N	0.198424	2.236196	-2.671609
N	-0.402919	-1.306293	0.632142
O	-0.242318	-2.309609	-0.055921
O	-0.809104	-1.281209	1.788578
C	-0.556708	1.117071	0.742355
N	-0.979747	2.055514	1.307751
Br	3.279717	0.0	0.0
