13

C	-0.519394	0.024532	-1.442128
C	0.0	0.0	0.0
F	-0.343695	1.303044	-1.930526
H	1.091318	0.0	0.0
H	-1.586978	-0.204039	-1.469178
C	0.168225	-0.930601	-2.322437
N	0.595854	-1.694678	-3.103997
N	-0.423506	-1.268714	0.678713
O	-0.937322	-2.138416	-0.026864
O	-0.197102	-1.356347	1.877647
C	-0.522522	1.126335	0.755857
N	-0.971871	2.034304	1.350167
Br	3.269809	0.0	0.0
