13

C	-0.430197	-0.041046	-1.454633
C	0.0	0.0	0.0
F	-1.801981	-0.224321	-1.551135
H	1.094638	0.0	0.0
H	0.062911	-0.88944	-1.930628
C	-0.080146	1.20741	-2.141249
N	0.147409	2.220363	-2.688184
N	-0.392198	-1.298665	0.651422
O	-0.770506	-1.262025	1.816569
O	-0.243999	-2.309582	-0.027304
C	-0.565185	1.122339	0.726631
N	-1.014499	2.061756	1.269702
Br	3.264092	0.0	0.0
