13

C	-0.431345	-0.018631	-1.454556
C	0.0	0.0	0.0
F	-1.805917	-0.180077	-1.550935
H	1.094624	0.0	0.0
H	0.047726	-0.869147	-1.941054
C	-0.063402	1.232816	-2.127044
N	0.171595	2.250058	-2.663415
N	-0.394346	-1.306174	0.63466
O	-0.264082	-2.306906	-0.062473
O	-0.75799	-1.285524	1.805071
C	-0.559667	1.115046	0.742485
N	-0.991224	2.046369	1.313167
Br	3.26506	0.0	0.0
