16
Coordinates from ORCA-job run
  C   -0.66236899086105     -0.34595914066932     -0.18559808543278
  C   0.46059784659653     -0.37645262119159      0.84611414277275
  Cl  -2.09458389029552     -1.22965559268858      0.62421626243027
  H   0.07600998446077      0.03320112472628      1.78359261747014
  H   0.70332852506729     -1.42596688142641      1.04690258743956
  C   -1.16642416139548      1.04941806418546     -0.50046483293127
  H   -1.44848844289572      1.57193112897725      0.41415084998767
  H   -0.38643302597075      1.61060073929264     -1.01776744295757
  H   -2.04566027595833      0.99867205689757     -1.14639866035102
  N   -0.25904642466114     -1.00312835546460     -1.37888785685380
  H   -0.99965962490479     -1.00181551794253     -2.06939965033551
  H   0.01015527036488     -1.96224817046651     -1.19532519818667
  C   1.71136050147347      0.37724469963577      0.40271104939679
  H   2.06079474278192      0.01811128192495     -0.56557105658249
  H   2.51098860773000      0.23538122672941      1.13371817455814
  H   1.52842935846793      1.45066595748020      0.32400709957577
