16
Coordinates from ORCA-job run
  C   -0.54329686624399     -0.35687980618469     -0.32261956135685
  C   0.95209053292146     -0.41587635503730     -0.02679732838835
  Cl  -1.41932962899973     -1.00893901316653      1.19096613331098
  H   1.20692395043533     -1.45745007734223      0.19734072664814
  H   1.45129928420531     -0.15933082476214     -0.96749698248302
  C   -1.07229300234539      1.04678520645098     -0.54133744504306
  H   -2.13511704981902      1.01450873621097     -0.79132671933686
  H   -0.95628547892403      1.66026245445529      0.35042677555689
  H   -0.53013927843831      1.50216743863164     -1.37403889714052
  N   -0.82555059262261     -1.16211095234385     -1.46072137306985
  H   -0.49753342250088     -2.11097178120227     -1.32542220533704
  H   -1.82011461628575     -1.19111944211749     -1.65025441210049
  C   1.44446031205609      0.48833209202611      1.09494950253931
  H   2.50858797697227      0.31623050360849      1.27136891705334
  H   1.32237316183563      1.54373258862116      0.84430061024726
  H   0.91292471775361      0.29065923215188      2.02666225890011
