16
Coordinates from ORCA-job run
  C   -0.55306093936710     -0.44793787999328     -0.20822869317773
  C   0.95516193019178     -0.44391781867876      0.02128990278392
  Cl  -1.36818698653990     -1.03934022846696      1.29598376879686
  H   1.42205819623389     -0.22599847482786     -0.94870767675381
  H   1.23642917384045     -1.46639314915501      0.28446676748914
  C   -1.11768826226129      0.93648565148000     -0.50053009164512
  H   -0.97629989792441      1.62468075279139      0.33338855869295
  H   -2.18820862084171      0.86615008310616     -0.70497288484818
  H   -0.62063818568773      1.34748697721650     -1.38562261258601
  N   -0.84247615325511     -1.43576907012787     -1.23121292681120
  H   -1.84129465444699     -1.47396831185997     -1.40371041841761
  H   -0.38408084026812     -1.15923825361835     -2.09333130837829
  C   1.46430460693477      0.54390317339452      1.06298990754228
  H   1.31522208038731      1.57942338573608      0.75106579103299
  H   0.96328852525378      0.39681100285543      2.02110318322626
  H   2.53547002775037      0.40062216014796      1.22102873305356
