16
Coordinates from ORCA-job run
  C   -0.68697466862237     -0.42315603324115     -0.08515896438598
  C   0.47518755413009     -0.32889316892372      0.89986499240817
  Cl  -2.00665499626026     -1.33823590409367      0.74421227172198
  H   0.71022578736357     -1.34832508387045      1.21474761546156
  H   0.13138235538564      0.21615871732319      1.78406192825053
  C   -1.26713626233868      0.93723241996373     -0.45535814957469
  H   -0.52198598856790      1.52321050287146     -1.00036216543458
  H   -2.13887786802559      0.80955877151569     -1.10041613001152
  H   -1.57314430596105      1.49572477120470      0.43182496056555
  N   -0.29054956611653     -1.23224600759998     -1.22666854458093
  H   0.36054153880386     -0.69972631876631     -1.79426545904271
  H   -1.10351354606263     -1.42774672247232     -1.80093120193136
  C   1.72722192670448      0.33087261056894      0.32678161064649
  H   1.54366163546547      1.35329924635538     -0.01073423804115
  H   2.50307808390032      0.37849724898310      1.09411071779397
  H   2.13753832020157     -0.24622504981860     -0.50470924384534
