16

C	-0.463956	0.004253	-1.460648
C	0.0	0.0	0.0
Br	0.294048	1.60729	-2.342582
H	1.091988	0.0	0.0
C	0.039682	-1.133708	-2.231639
N	0.431393	-2.005137	-2.915489
C	-1.918169	0.116068	-1.598631
N	-3.084344	0.260258	-1.656563
N	-0.48911	-1.238034	0.639516
O	-0.256129	-1.381928	1.837583
O	-1.091525	-2.071597	-0.050531
C	-0.458988	1.188992	0.821106
H	-1.548951	1.287435	0.870391
H	-0.061663	1.057241	1.827683
H	-0.02398	2.099619	0.413028
F	2.48397	0.0	0.0
