16

C	-0.322249	-0.03691	-1.475746
C	0.0	0.0	0.0
Br	-2.299542	-0.091939	-1.862015
H	1.093245	0.0	0.0
C	0.149746	1.202912	-2.097738
N	0.454468	2.220752	-2.601022
C	0.276997	-1.155423	-2.210132
N	0.723152	-2.01871	-2.870899
N	-0.462682	-1.215528	0.676329
O	-0.671935	-2.22683	0.000877
O	-0.566257	-1.177864	1.904278
C	-0.44821	1.246587	0.727163
H	-0.031302	2.122795	0.228552
H	-1.538007	1.337455	0.784562
H	-0.039282	1.214629	1.735061
F	2.449116	0.0	0.0
