16

C	-0.436451	0.055133	-1.461071
C	0.0	0.0	0.0
Br	0.220018	-1.526063	-2.432993
H	1.091373	0.0	0.0
C	-1.881055	0.164321	-1.693796
N	-3.023802	0.335503	-1.912305
C	0.196331	1.217554	-2.093558
N	0.668152	2.130497	-2.664129
N	-0.519155	-1.224285	0.651874
O	0.108419	-1.633667	1.625102
O	-1.559685	-1.737933	0.224368
C	-0.497437	1.194219	0.796628
H	-0.088422	1.111543	1.805
H	-0.101672	2.112468	0.359113
H	-1.591057	1.251323	0.846316
F	2.503888	0.0	0.0
