16

C	-0.418778	-0.042907	-1.476579
C	0.0	0.0	0.0
Br	0.203414	1.622354	-2.349836
H	1.092022	0.0	0.0
C	0.218267	-1.127722	-2.228327
N	0.701874	-1.972142	-2.88752
C	-1.873528	-0.072349	-1.661046
N	-3.044508	-0.02383	-1.760472
N	-0.465055	-1.246878	0.642118
O	-0.918884	-2.149009	-0.072353
O	-0.341682	-1.33891	1.861741
C	-0.503183	1.194602	0.783129
H	-0.19091	1.061393	1.817645
H	-0.027269	2.097994	0.408009
H	-1.593502	1.306306	0.748315
F	2.482501	0.0	0.0
