16

C	-0.329128	-0.022083	-1.474292
C	0.0	0.0	0.0
Br	-2.307318	-0.118748	-1.849017
H	1.093235	0.0	0.0
C	0.104505	1.238369	-2.081726
N	0.415498	2.255807	-2.580774
C	0.291213	-1.114819	-2.227009
N	0.776312	-1.922126	-2.930438
N	-0.447764	-1.231365	0.658203
O	-0.553888	-1.214087	1.886967
O	-0.639474	-2.235844	-0.03438
C	-0.456617	1.231843	0.745322
H	-1.546927	1.322042	0.792771
H	-0.033545	2.116085	0.267918
H	-0.058357	1.1817	1.757141
F	2.448981	0.0	0.0
