16

C	-0.457992	-0.008097	-1.460009
C	0.0	0.0	0.0
Br	0.251446	1.616698	-2.341391
H	1.091992	0.0	0.0
C	0.089778	-1.128738	-2.225368
N	0.509346	-2.010275	-2.879533
C	-1.915058	0.056272	-1.598914
N	-3.082215	0.179226	-1.676471
N	-0.478803	-1.242151	0.641768
O	-0.278385	-1.367132	1.848265
O	-1.031716	-2.101982	-0.057281
C	-0.474208	1.187065	0.81507
H	-0.087852	1.06079	1.825195
H	-1.566584	1.27602	0.85351
H	-0.044811	2.101355	0.409022
F	2.483381	0.0	0.0
