16

C	-0.422019	0.025715	-1.468855
C	0.0	0.0	0.0
Br	0.472491	-1.374742	-2.532944
H	1.091349	0.0	0.0
C	-1.868914	-0.084516	-1.680088
N	-3.035765	-0.082196	-1.827536
C	0.0179	1.293379	-2.060384
N	0.300979	2.326186	-2.545303
N	-0.506603	-1.207401	0.673486
O	-1.087375	-2.074239	0.010579
O	-0.291971	-1.296562	1.88277
C	-0.445521	1.23711	0.762051
H	-0.109209	1.125805	1.791595
H	0.054073	2.111603	0.344929
H	-1.531773	1.387888	0.748497
F	2.48101	0.0	0.0
