16

C	-0.407231	-0.030731	-1.479314
C	0.0	0.0	0.0
Br	0.1984	1.654432	-2.32654
H	1.092016	0.0	0.0
C	0.250874	-1.096577	-2.239441
N	0.750186	-1.91648	-2.917184
C	-1.858716	-0.080214	-1.674196
N	-3.030025	-0.065273	-1.779083
N	-0.458023	-1.257819	0.62464
O	-0.354308	-1.358628	1.846368
O	-0.882232	-2.1623	-0.106631
C	-0.514883	1.183511	0.790217
H	-0.235592	1.02959	1.83076
H	-0.022361	2.090808	0.444922
H	-1.602451	1.306136	0.724715
F	2.480228	0.0	0.0
