16

C	-0.321244	-0.047593	-1.476119
C	0.0	0.0	0.0
Br	-2.295001	-0.179445	-1.858636
H	1.093213	0.0	0.0
C	0.09969	1.209375	-2.099369
N	0.383336	2.231886	-2.604143
C	0.320813	-1.140813	-2.21147
N	0.81571	-1.952691	-2.902415
N	-0.448826	-1.223213	0.673366
O	-0.59398	-1.181414	1.897334
O	-0.605184	-2.244739	-0.002027
C	-0.465365	1.242536	0.722171
H	-0.080155	1.208059	1.738781
H	-1.555966	1.332747	0.755989
H	-0.037604	2.120169	0.236639
F	2.449926	0.0	0.0
