17

C	-0.485761	-0.005242	-1.446411
C	0.0	0.0	0.0
Br	-2.429507	0.008507	-1.561038
H	1.090847	0.0	0.0
C	0.080397	1.110708	-2.309484
H	1.170514	1.098502	-2.235401
H	-0.23052	0.954893	-3.345165
H	-0.284387	2.079105	-1.971729
N	0.003572	-1.322501	-2.09393
O	-0.618792	-1.763751	-3.049912
O	1.059027	-1.758591	-1.652831
C	-0.505745	-1.126648	0.752508
N	-0.869111	-2.066226	1.361818
N	-0.416589	1.289055	0.650389
O	0.293266	2.258759	0.388584
O	-1.360862	1.276698	1.439651
Cl	2.682005	0.0	0.0
