17

C	-0.459156	0.043449	-1.465484
C	0.0	0.0	0.0
Br	-2.380389	0.384485	-1.55988
H	1.09115	0.0	0.0
C	0.314994	1.007457	-2.340918
H	0.027951	0.843906	-3.380271
H	1.381618	0.810593	-2.187657
H	0.104927	2.03267	-2.053456
N	-0.215897	-1.342893	-2.083313
O	0.557852	-2.082637	-1.484992
O	-0.734749	-1.559705	-3.170667
C	-0.560698	-1.123148	0.735102
N	-1.024185	-2.024083	1.329851
N	-0.38418	1.2792	0.708108
O	-1.045028	1.194189	1.739262
O	0.031759	2.320737	0.213511
Cl	3.149414	0.0	0.0
