17

C	-0.474137	0.025597	-1.460485
C	0.0	0.0	0.0
Br	-2.400249	0.341281	-1.538938
H	1.091005	0.0	0.0
C	0.277533	0.998173	-2.34629
H	1.348655	0.825328	-2.197021
H	0.045581	2.021284	-2.06488
H	-0.011442	0.82305	-3.383538
N	-0.212896	-1.363825	-2.065062
O	-0.784029	-1.629786	-3.114413
O	0.622469	-2.056136	-1.495292
C	-0.544369	-1.125104	0.744665
N	-0.981902	-2.038405	1.340091
N	-0.399393	1.281316	0.691712
O	0.061643	2.315625	0.222027
O	-1.124823	1.207277	1.67881
Cl	3.154195	0.0	0.0
