15

C	0.0	0.0	0.0
C	-0.485452	-0.353887	-1.4077
Cl	1.797549	0.0	0.0
H	-1.584181	-0.330486	-1.376399
H	-0.141975	0.405848	-2.1152
C	-0.441993	1.415885	0.351874
H	-0.072855	1.676228	1.348011
H	-1.534526	1.431938	0.352147
H	-0.053016	2.147747	-0.361623
N	-0.471947	-1.017552	0.903207
H	-1.493475	-1.016194	0.823223
H	-0.244071	-0.745955	1.854083
C	-0.031836	-1.663143	-1.866433
N	0.310831	-2.704132	-2.286867
Cl	-3.679967	0.0	0.0
