15

C	0.0	0.0	0.0
C	-0.49141	0.045545	-1.446171
Cl	1.852038	0.0	0.0
H	-1.590832	0.066792	-1.373833
H	-0.129469	0.950122	-1.941538
C	-0.480579	1.22227	0.751281
H	-1.574982	1.200119	0.726854
H	-0.098554	2.135067	0.290527
H	-0.132321	1.187583	1.787026
N	-0.480662	-1.17389	0.61054
H	-0.146433	-2.021939	0.174483
H	-0.325725	-1.192623	1.607372
C	-0.07249	-1.121475	-2.216132
N	0.25096	-2.063798	-2.836553
Cl	-3.844061	0.0	0.0
