15

C	0.0	0.0	0.0
C	-0.46872	-0.204906	-1.453354
Cl	1.800755	0.0	0.0
H	-1.566083	-0.148781	-1.422291
H	-0.083692	0.587103	-2.101583
C	-0.456381	1.36371	0.489932
H	-1.548841	1.384517	0.488985
H	-0.069179	2.153365	-0.157855
H	-0.08522	1.515707	1.504025
N	-0.467414	-1.007634	0.911985
H	-1.485983	-0.912486	0.9444
H	-0.252148	-1.931217	0.54937
C	-0.067442	-1.50064	-1.989619
N	0.238042	-2.552661	-2.412176
Cl	-3.674006	0.0	0.0
