15

C	0.0	0.0	0.0
C	-0.464931	0.395019	-1.414826
Cl	1.800001	0.0	0.0
H	-0.128932	-0.363529	-2.129075
H	-1.563283	0.387514	-1.37878
C	-0.450087	1.023623	1.026876
H	-0.114034	0.699914	2.01297
H	-1.540869	1.071351	1.007586
H	-0.029226	2.005462	0.806101
N	-0.481878	-1.299072	0.385578
H	-0.302534	-1.965713	-0.358499
H	-1.497453	-1.209219	0.479608
C	0.009129	1.700463	-1.863084
N	0.389914	2.747145	-2.234715
Cl	-3.674362	0.0	0.0
