15

C	0.0	0.0	0.0
C	-0.205004	0.239193	-1.535061
Cl	1.803411	0.0	0.0
H	0.318706	1.16459	-1.793899
H	0.34259	-0.562341	-2.041823
C	-0.485116	1.162493	0.838589
H	-0.192889	0.998796	1.877415
H	-0.052395	2.100354	0.48532
H	-1.57549	1.196677	0.766139
N	-0.521503	-1.226382	0.510253
H	-1.538941	-1.100967	0.566508
H	-0.338711	-1.981021	-0.142586
C	-1.508272	0.305743	-2.20387
N	-2.332136	0.380394	-3.038599
Cl	-3.672403	0.0	0.0
