15

C	0.0	0.0	0.0
C	-0.489534	0.462363	-1.375797
Cl	1.795395	0.0	0.0
H	-1.588101	0.445343	-1.337898
H	-0.14801	-0.258804	-2.122326
C	-0.436766	0.960815	1.098546
H	-0.035458	1.964139	0.938485
H	-1.52881	0.988799	1.103494
H	-0.077887	0.593645	2.063946
N	-0.475663	-1.355088	0.162781
H	-0.235959	-1.669872	1.097906
H	-1.497898	-1.294467	0.119682
C	-0.032947	1.797855	-1.742214
N	0.331938	2.868643	-2.056508
Cl	-3.673915	0.0	0.0
