15

C	0.0	0.0	0.0
C	-0.188882	-0.072311	-1.542306
Cl	1.857022	0.0	0.0
H	0.484467	0.662692	-1.989486
H	0.177978	-1.052435	-1.865141
C	-0.536142	1.278276	0.592162
H	-0.147531	2.146237	0.058081
H	-1.629598	1.232435	0.510183
H	-0.248834	1.360232	1.643895
N	-0.545362	-1.116094	0.623696
H	-0.754822	-1.019274	1.603271
H	-0.153145	-2.007458	0.372351
C	-1.48742	0.152516	-2.181588
N	-2.324736	0.376803	-2.974039
Cl	-3.986714	0.0	0.0
