15

C	0.0	0.0	0.0
C	-0.475784	-0.314741	-1.420133
Cl	1.797569	0.0	0.0
H	-1.573734	-0.27994	-1.407706
H	-0.107787	0.452403	-2.10699
C	-0.438801	1.40529	0.394998
H	-0.05949	2.151486	-0.308869
H	-1.53053	1.433748	0.418348
H	-0.045472	1.642991	1.387251
N	-0.463787	-1.051043	0.871898
H	-1.48412	-1.052598	0.79215
H	-0.234863	-0.804814	1.829574
C	-0.028103	-1.621079	-1.899845
N	0.313659	-2.656612	-2.332709
Cl	-3.670562	0.0	0.0
