15

C	0.0	0.0	0.0
C	-0.483964	0.038007	-1.449151
Cl	1.852807	0.0	0.0
H	-0.08156	0.916387	-1.959626
H	-1.581471	0.101177	-1.386457
C	-0.463597	1.238558	0.738072
H	-0.103237	1.215172	1.769891
H	-0.074155	2.138996	0.259673
H	-1.557712	1.230862	0.725093
N	-0.494485	-1.157885	0.621225
H	-0.377048	-1.165145	1.62227
H	-0.185077	-2.021394	0.199411
C	-0.108338	-1.162474	-2.188935
N	0.177259	-2.138247	-2.775788
Cl	-3.860436	0.0	0.0
