14

C	0.0	0.0	0.0
C	-0.433466	0.131104	-1.457284
F	1.416605	0.0	0.0
H	-1.520621	0.238331	-1.433367
H	0.012509	1.040027	-1.881233
C	-0.35833	1.220287	0.757597
N	-0.522298	2.220133	1.348953
N	-0.471814	-1.16353	0.667066
H	-0.431402	-1.908488	-0.02412
H	-1.461102	-1.003728	0.871419
N	-0.065638	-1.094767	-2.160946
H	-0.762659	-1.312529	-2.858158
H	0.830203	-0.992066	-2.615634
Br	-3.75154	0.0	0.0
