14

C	0.0	0.0	0.0
C	-0.589616	0.444873	-1.348911
F	1.425497	0.0	0.0
H	-1.331185	1.221911	-1.140102
H	0.235313	0.872196	-1.925526
C	-0.280856	1.012679	1.051938
N	-0.391963	1.829514	1.887039
N	-0.492523	-1.24749	0.37951
H	-0.038709	-1.624389	1.196704
H	-0.53894	-1.874496	-0.411477
N	-1.180945	-0.691703	-2.04773
H	-2.13333	-0.768409	-1.67795
H	-1.25394	-0.467797	-3.032185
Br	-3.958736	0.0	0.0
