14

C	0.0	0.0	0.0
C	-0.466393	0.210064	-1.426348
F	1.392604	0.0	0.0
H	-0.199366	-0.710435	-1.965108
H	-1.555554	0.294563	-1.397339
C	-0.326072	1.181934	0.851141
N	-0.501028	2.067381	1.602342
N	-0.492678	-1.236712	0.506516
H	-0.314871	-1.290306	1.503752
H	-1.511217	-1.21677	0.385003
N	0.124771	1.427953	-1.966376
H	-0.428759	1.754858	-2.746106
H	1.063628	1.243473	-2.292239
Br	-3.775834	0.0	0.0
