14

C	0.0	0.0	0.0
C	-0.532302	-0.362031	-1.368567
F	1.419215	0.0	0.0
H	-0.308934	-1.429396	-1.531409
H	-1.620631	-0.249095	-1.297819
C	-0.324659	1.401276	0.352872
N	-0.478406	2.52748	0.642425
N	-0.500417	-0.870478	0.979217
H	-0.439309	-1.842064	0.719354
H	-0.137592	-0.691167	1.902106
N	0.022874	0.524747	-2.377795
H	-0.599042	0.570386	-3.17219
H	0.927392	0.195334	-2.685577
Br	-4.109787	0.0	0.0
