14

C	0.0	0.0	0.0
C	-0.47408	0.357477	-1.428809
F	1.413894	0.0	0.0
H	0.378323	0.80526	-1.945225
H	-1.276638	1.094784	-1.342534
C	-0.337451	1.100102	0.934201
N	-0.511345	1.981576	1.688701
N	-0.453423	-1.240164	0.526838
H	-0.443307	-1.894693	-0.252658
H	-1.430409	-1.11937	0.798536
N	-0.904422	-0.85195	-2.125237
H	-1.874765	-1.000888	-1.852972
H	-0.898471	-0.679681	-3.122329
Br	-3.671918	0.0	0.0
