14

C	0.0	0.0	0.0
C	-0.601138	-0.209632	-1.394506
F	1.420519	0.0	0.0
H	-1.436779	0.491021	-1.484776
H	0.176367	0.041911	-2.121196
C	-0.287799	1.378962	0.474824
N	-0.4057	2.490262	0.832596
N	-0.490221	-0.942274	0.905984
H	-0.045024	-0.886908	1.809231
H	-0.481182	-1.86526	0.494305
N	-1.051552	-1.590603	-1.553676
H	-1.067284	-1.820984	-2.538529
H	-2.017329	-1.595439	-1.220342
Br	-3.928669	0.0	0.0
