14

C	0.0	0.0	0.0
C	-0.471018	0.171673	-1.451969
F	1.379623	0.0	0.0
H	0.246848	0.828028	-1.953352
H	-1.454379	0.646659	-1.42516
C	-0.363905	1.216204	0.776121
N	-0.524156	2.225629	1.353141
N	-0.475442	-1.163545	0.673076
H	-0.34225	-1.931022	0.020009
H	-1.484319	-1.035467	0.791017
N	-0.508176	-1.142631	-2.103224
H	-1.466449	-1.47474	-2.05426
H	-0.27135	-1.041583	-3.081073
Br	-3.703978	0.0	0.0
