15

C	-0.629361	0.006048	-1.385817
C	0.0	0.0	0.0
Br	0.047642	1.699452	-2.333244
H	1.090214	0.0	0.0
H	-0.333667	0.906022	0.525776
N	-0.215742	-1.116428	-2.135698
H	-0.889965	-1.375769	-2.843211
H	-0.076836	-1.875164	-1.475888
N	-2.06214	0.124021	-1.256373
H	-2.486959	0.12863	-2.177917
H	-2.282773	1.017923	-0.830297
N	-0.400683	-1.251022	0.654923
H	0.2809	-1.4704	1.368951
H	-1.317779	-1.170751	1.071356
Cl	3.559104	0.0	0.0
