15

C	-0.37022	0.047	-1.463863
C	0.0	0.0	0.0
Br	-2.439248	0.199915	-1.626067
H	1.102926	0.0	0.0
H	-0.35672	-0.941035	0.432403
N	0.109582	1.274288	-2.044666
H	1.129204	1.214104	-2.030967
H	-0.213466	1.368496	-3.001906
N	0.070246	-1.115793	-2.130601
H	-0.19903	-1.962959	-1.647485
H	-0.242034	-1.14846	-3.091716
N	-0.560414	1.128162	0.747279
H	0.048207	1.272705	1.547686
H	-0.441178	1.943996	0.153762
Cl	3.557143	0.0	0.0
