15

C	-0.417655	0.064502	-1.469233
C	0.0	0.0	0.0
Br	-0.263032	-1.890964	-2.183284
H	1.100304	0.0	0.0
H	-0.408329	-0.885069	0.486382
N	-1.790081	0.420376	-1.752664
H	-2.3804	-0.352491	-1.470107
H	-1.980216	1.187761	-1.109564
N	0.436231	0.948078	-2.124044
H	0.232706	1.025494	-3.110465
H	1.416992	0.761505	-1.931698
N	-0.531088	1.214655	0.656644
H	0.096822	1.971764	0.406714
H	-0.428667	1.089456	1.657592
Cl	3.503699	0.0	0.0
