15

C	-0.488811	0.048792	-1.442875
C	0.0	0.0	0.0
Br	0.144976	-1.688289	-2.303777
H	1.091457	0.0	0.0
H	-0.36601	-0.909535	0.49835
N	-1.904394	0.156789	-1.508909
H	-2.343428	-0.668005	-1.118976
H	-2.179041	0.259736	-2.478223
N	0.084755	1.117815	-2.22035
H	-0.067587	1.941647	-1.639445
H	1.091468	0.968668	-2.241925
N	-0.414752	1.253825	0.635672
H	-1.357781	1.187268	0.993563
H	0.221541	1.457088	1.395485
Cl	3.522067	0.0	0.0
