15

C	-0.439432	0.02247	-1.460753
C	0.0	0.0	0.0
Br	-0.244608	-1.764774	-2.259797
H	1.093688	0.0	0.0
H	-0.284112	1.004246	0.377249
N	-1.840501	0.37524	-1.559701
H	-1.954673	1.281962	-1.112933
H	-2.06104	0.488395	-2.544232
N	0.40247	0.902247	-2.261786
H	0.371911	1.817052	-1.815535
H	1.368442	0.590032	-2.162832
N	-0.537132	-1.084795	0.793532
H	0.089454	-1.270527	1.565301
H	-1.453946	-0.854046	1.150699
Cl	3.507845	0.0	0.0
