15

C	-0.41752	0.112959	-1.466345
C	0.0	0.0	0.0
Br	-0.270311	-1.821183	-2.23993
H	1.100313	0.0	0.0
H	-0.408601	-0.900452	0.456898
N	-1.788098	0.483349	-1.740811
H	-1.975264	1.234124	-1.07795
H	-2.384257	-0.293467	-1.481887
N	0.442391	1.013906	-2.091299
H	0.241474	1.123144	-3.074789
H	1.422048	0.816315	-1.902606
N	-0.530922	1.192025	0.696653
H	0.094913	1.958612	0.468308
H	-0.42411	1.034828	1.692603
Cl	3.503843	0.0	0.0
