15

C	-0.489116	0.049151	-1.442753
C	0.0	0.0	0.0
Br	0.14463	-1.687418	-2.304686
H	1.091478	0.0	0.0
H	-0.365936	-0.909671	0.498155
N	-1.904768	0.156881	-1.508359
H	-2.179689	0.260145	-2.477572
H	-2.343503	-0.668187	-1.118631
N	0.083982	1.118595	-2.220012
H	1.090748	0.969641	-2.241983
H	-0.068378	1.942162	-1.638729
N	-0.414596	1.25362	0.636192
H	-1.357231	1.186821	0.995003
H	0.222368	1.457049	1.395364
Cl	3.521971	0.0	0.0
