14
Coordinates from ORCA-job run
  C   -0.58636419995571      0.54354451854423     -0.33321625228591
  C   0.72592577954621     -0.23452418770904     -0.20933044675700
  F   -0.73503629981030      0.89243529634226     -1.67169246364941
  H   0.60180588869761     -1.17211363490478     -0.76109302284176
  H   -0.50374031672385      1.47877748966251      0.23305732705475
  C   -1.78351223879852     -0.26150771547609      0.10605520501014
  H   -1.67204254500660     -0.56846432970084      1.14510853286887
  H   -2.69087001860829      0.33472142571853     -0.00262768691443
  H   -1.87890555130777     -1.15189104559395     -0.51975775791342
  N   0.97330226498734     -0.55459295976248      1.19139926381765
  H   1.27201494960791      0.27913585472043      1.68520284295041
  H   1.72252072311234     -1.23166198633719      1.26593897801889
  C   1.82315611088225      0.52062379661770     -0.84747222219902
  N   2.73074545337738      1.12651747787870     -1.28157229715976
