14
Coordinates from ORCA-job run
  C   -0.67330451925852     -0.47125357084748     -0.14289557441782
  C   0.78076542233447      0.00503088268644     -0.10712248731455
  F   -0.91928858921564     -1.24548172741334      0.97654522758665
  H   0.90957755511459      0.68908029742657     -0.96270364437415
  H   -0.78821507824080     -1.12547859353252     -1.01674804786837
  C   -1.67207681412346      0.66248963078415     -0.18261436941847
  H   -1.57877741534393      1.27824120466833      0.71393701796504
  H   -2.68392806527666      0.25630413661147     -0.21606384128215
  H   -1.52100997119290      1.29044377492399     -1.06374135652798
  N   1.69043467182234     -1.13538307749015     -0.11854204199154
  H   1.58715361695188     -1.63822603729831     -0.99214292360763
  H   2.65000471011783     -0.81829671135003     -0.05292166454777
  C   1.01445125109216      0.79699408312225      1.10735118501123
  N   1.20521322521865      1.45653570770862      2.05866252078752
