14
Coordinates from ORCA-job run
  C   -0.61532949979458     -0.43157483148593     -0.12276607472132
  C   0.83877944091423      0.03850477289187     -0.25029969872524
  F   -0.71024808116152     -1.15587842903809      1.06628422123106
  H   0.94277792590710      0.54516229204036     -1.21704979989224
  H   -0.80530621374228     -1.14235882461909     -0.93591140008878
  C   -1.64030413653824      0.67546173768531     -0.10794159472692
  H   -2.64324225613364      0.25252941419468     -0.03648833897229
  H   -1.57877215349587      1.26979469669419     -1.02298460501569
  H   -1.47704050998593      1.33027362064807      0.74922280038058
  N   1.83182509943536     -1.02520538996403     -0.18828060963277
  H   1.74139534001147     -1.62118747584751     -1.00254213405573
  H   1.65452513374218     -1.59051710104957      0.63389888818595
  C   1.13150408382589      1.03050126539697      0.79661732557107
  N   1.32943582701584      1.82449425245276      1.63724102046232
