14
Coordinates from ORCA-job run
  C   -0.55184477668686      0.32699157325107     -0.50956083200762
  C   0.87142825402772     -0.13512135343433     -0.16401118585441
  F   -0.69771854471997      0.20975015209900     -1.88865734496656
  H   0.96786514236528     -1.16911584210574     -0.51509251237631
  H   -0.65787952434887      1.38988498925908     -0.26310318989262
  C   -1.62545835432739     -0.49994396038699      0.15815364252189
  H   -1.61755795884241     -0.36597187079365      1.24095353190651
  H   -2.60366947412309     -0.19135631471361     -0.21323316945707
  H   -1.48848119463546     -1.55876502665940     -0.07518973329435
  N   1.22542297591153     -0.10222658897432      1.24682552764873
  H   1.08488261137849      0.82276518412100      1.63485563334627
  H   0.67119932607180     -0.76734062024028      1.76916786606669
  C   1.83637260611011      0.67748983922959     -0.91964738018397
  N   2.58643891181913      1.36595983934858     -1.50246085345719
