14
Coordinates from ORCA-job run
  C   -0.60286520297140     -0.13554368708741     -0.72031167132246
  C   0.87743412344173     -0.06945473236061     -0.32931823337360
  F   -0.84290757344755     -1.47636501282471     -1.04421555340722
  H   1.45038051494508     -0.39624836528651     -1.21107631310645
  H   -0.75387641811214      0.44146997081519     -1.63765284726326
  C   -1.55765926896590      0.29012965212688      0.36639849080541
  H   -1.38324309062649     -0.29079569337253      1.27064432629302
  H   -2.58344198393662      0.13682769782037      0.02726017335717
  H   -1.42162524034265      1.34856435035383      0.59777662877232
  N   1.10461370945365     -0.88914213638978      0.85565006274079
  H   2.08722304351278     -0.88412318332062      1.10042963643141
  H   0.84170417610596     -1.84194784897546      0.63163866952333
  C   1.24675856299995      1.32344408106787     -0.05521489040566
  N   1.53850464794359      2.44218490743348      0.14699152095518
