14
Coordinates from ORCA-job run
  C   -0.59635798712284      0.61134297003623     -0.14662471759808
  C   0.69894979210204     -0.18518764718204     -0.32136844292691
  F   -0.84680480861927      1.26095208391864     -1.35104668667921
  H   0.50329152629069     -0.96583855709221     -1.06387587498872
  H   -0.43956101812038      1.38982047327207      0.60929184754696
  C   -1.77499555964001     -0.26282708043150      0.20065910797446
  H   -1.58727753182597     -0.79911373572106      1.12982732768006
  H   -1.94607127798142     -0.98689931640299     -0.59929875515176
  H   -2.67113153370130      0.35033126599606      0.30810030667470
  N   1.05215127340428     -0.82672084525405      0.93906016561524
  H   1.78100345757232     -1.51296648110891      0.78764931497705
  H   1.41928999422220     -0.13607692301172      1.58414956684079
  C   1.76079348166824      0.68948278374814     -0.85945027385965
  N   2.64572019175140      1.37370100923337     -1.21707288610491
