14
Coordinates from ORCA-job run
  C   -0.59954508684394      0.57932077672968     -0.23291039013162
  C   0.71854230114432     -0.19747188383643     -0.26609472678299
  F   -0.79842422469061      1.11022996440052     -1.50344792263884
  H   0.57888609439342     -1.04986105958202     -0.93898461238236
  H   -0.49936827191031      1.42711980963397      0.45507272576310
  C   -1.77785348659873     -0.28813528510304      0.13259786251617
  H   -1.62814334730036     -0.73467409970851      1.11468204448451
  H   -1.89332720216986     -1.08430880149235     -0.60649705969183
  H   -2.68992931570451      0.31072221308509      0.13955067238187
  N   1.01849000385253     -0.70750854837636      1.06629740894475
  H   1.33453016143689      0.05108183361110      1.66021787235306
  H   1.77023960936294     -1.38412678282235      1.01853364205859
  C   1.78904008475754      0.64919832192693     -0.83101139664966
  N   2.67786268027068      1.31841354153376     -1.20700612022477
