14
Coordinates from ORCA-job run
  C   -0.68427069663725     -0.44877253367042     -0.15959165586496
  C   0.78455035034441     -0.02623584582272     -0.07904417700481
  F   -0.99741620740692     -1.19820931188094      0.95985312587885
  H   0.96877451561924      0.63772505377750     -0.94037342256760
  H   -0.79339575506000     -1.10987478945810     -1.02896588003406
  C   -1.63813870331830      0.72035727526134     -0.24818059127158
  H   -1.43354940350935      1.33032847088066     -1.13104447715544
  H   -2.66251807577813      0.35112062686170     -0.31191300630678
  H   -1.55293339150154      1.34422972878378      0.64342518996402
  N   1.65030767005281     -1.19981018308579     -0.04015961030772
  H   1.54919367761129     -1.72082422201371     -0.90335286689065
  H   2.61922103103862     -0.91666481382593      0.04172209047423
  C   1.00540580071981      0.77793804383035      1.12957223420432
  N   1.18376918782532      1.45769250036226      2.06905304688220
