14
Coordinates from ORCA-job run
  C   -0.55249909083158     -0.12312957913702     -0.74053083760722
  C   0.94498146016366     -0.10542720471600     -0.38800764533779
  F   -0.83957841187076     -1.44663991846532     -1.08867213911106
  H   1.47905741969182     -0.44509308877203     -1.28276549437652
  H   -0.71832461346687      0.48439549092102     -1.63630632080746
  C   -1.47412189635236      0.29555956594340      0.37809181817068
  H   -2.51076143996129      0.21044936845698      0.04965128211477
  H   -1.28566459355955      1.33087811156438      0.66937798555741
  H   -1.34305298443526     -0.35186251923418      1.24643321869659
  N   1.35017173295582     -0.96804745609487      0.71092667512384
  H   0.95021598195088     -0.65194559776830      1.58541347552201
  H   1.01874126643308     -1.90739318300551      0.52657158721653
  C   1.35335312123060      1.27822475053797     -0.12163029135635
  N   1.62548204805180      2.40003125976946      0.09044668619457
