14
Coordinates from ORCA-job run
  C   -0.64790316046793     -0.07577180585020     -0.77216306786503
  C   0.84041647153745     -0.17474586101338     -0.41417079305130
  F   -1.02049451957825     -1.29229194396017     -1.32748200307141
  H   1.33947026557857     -0.59550296875494     -1.29254310004622
  H   -0.76685064588977      0.68102554713815     -1.55500258430633
  C   -1.53951558679159      0.21646890205958      0.41053247945265
  H   -2.57549124632062      0.29675673286794      0.07916385509688
  H   -1.25791135467953      1.15626656524137      0.89218621625144
  H   -1.47227330735664     -0.60150098858781      1.12847397753380
  N   1.06245008529442     -1.07662510398831      0.70574766476413
  H   0.87425554979479     -0.60858226806277      1.58366782042429
  H   2.02731493427330     -1.38130372042316      0.72202176080721
  C   1.36794049190115      1.18823415980599     -0.19626246702976
  N   1.76959202270466      2.26757275352773      0.03583024103964
