17

C	0.0	0.0	0.0
C	-0.387517	-0.160104	-1.478869
F	1.389164	0.0	0.0
H	-0.04989	0.719663	-2.021086
C	-0.394368	1.352419	0.444818
N	-0.539017	2.444648	0.852671
C	-0.485679	-1.033197	0.990248
H	-1.570617	-0.952453	1.058384
H	-0.007641	-0.820194	1.951533
H	-0.221996	-2.03024	0.648636
N	-1.842998	-0.30242	-1.801105
O	-2.452867	0.818854	-1.593016
O	-2.401156	-1.358933	-1.348379
N	0.342959	-1.30023	-2.105956
O	0.855788	-1.06641	-3.204284
O	0.35864	-2.391151	-1.542312
H	-3.00454	0.0	0.0
