17

C	0.0	0.0	0.0
C	-0.536989	0.003	-1.422905
F	1.362576	0.0	0.0
H	-1.644539	0.022788	-1.298522
C	-0.57827	1.134249	0.720272
N	-0.569129	1.988754	1.551573
C	-0.38085	-1.300297	0.713345
H	-1.462193	-1.390458	0.757386
H	0.079698	-2.134869	0.187596
H	0.04782	-1.242863	1.715732
N	-0.145444	-1.180509	-2.255939
O	-0.945798	-1.479122	-3.142778
O	0.90859	-1.761972	-2.015349
N	-0.087704	1.17857	-2.240101
O	1.101249	1.5021	-2.193579
O	-0.95933	1.755564	-2.896574
H	-2.733714	0.0	0.0
