15

C	-0.396707	-0.00601	-1.468836
C	0.0	0.0	0.0
F	-1.774994	-0.250524	-1.572657
H	1.093923	0.0	0.0
H	-0.226093	1.016697	-1.812657
N	0.299874	-0.911184	-2.333478
H	0.257468	-1.827241	-1.899261
H	1.281794	-0.637784	-2.28175
N	-0.413955	-1.26565	0.675873
O	-0.139102	-2.337093	0.124545
O	-0.958	-1.194571	1.784195
N	-0.462641	1.167098	0.680667
H	0.140964	1.327212	1.478271
H	-1.405085	1.029034	1.021551
H	2.693026	0.0	0.0
