15

C	-0.443983	0.175806	-1.454549
C	0.0	0.0	0.0
F	-0.591505	-1.092204	-2.077788
H	1.091646	0.0	0.0
H	-1.445397	0.618908	-1.51194
N	0.51965	0.984518	-2.084652
H	1.461585	0.704679	-1.808989
H	0.40771	0.986981	-3.088643
N	-0.484104	-1.337731	0.497872
O	-1.538365	-1.358656	1.150478
O	0.1772	-2.330777	0.221749
N	-0.470067	1.084579	0.802566
H	0.192872	1.234051	1.554001
H	-1.376407	0.857111	1.192697
H	2.825527	0.0	0.0
