15
Coordinates from ORCA-job run
  C   -0.42320714315756      0.31652652230285      0.08642181617054
  C   1.03987834872257     -0.00748839983570      0.37190863997818
  Br  -1.41154924847304      0.32303848829633      1.77449196502798
  H   1.44221522576492      0.74038715740347      1.06119627880413
  H   1.57750327896130      0.09870436527329     -0.57547715972242
  C   -1.07745961056236     -0.62739852824427     -0.89271023315546
  H   -0.96881913580220     -1.64383081436612     -0.52046624453313
  H   -2.12695241507319     -0.37772968273103     -1.03194384055817
  H   -0.56289741961991     -0.54794759273019     -1.85581902578784
  N   -0.53722802634324      1.73913298682169     -0.45158941261379
  O   0.45615048812504      2.45755866520835     -0.36743525193131
  O   -1.61441506392057      2.06452126769736     -0.93558420692834
  N   1.15706043744599     -1.38810394829106      0.82437354228562
  H   2.11029163107569     -1.70302366005920      0.70108510978382
  H   0.94042865285656     -1.44534682674575      1.81154802318020
