18

C	0.0	0.0	0.0
C	-0.295397	-0.031041	-1.547945
Cl	1.871886	0.0	0.0
H	0.522659	-0.590146	-2.006854
N	-0.471178	1.218364	0.567335
H	-1.502398	1.066827	0.454747
H	-0.268852	1.143875	1.56026
N	-0.410116	-1.134677	0.763395
H	-1.439455	-1.018888	0.721695
H	-0.174803	-1.986177	0.267797
C	-0.407009	1.349036	-2.154068
H	-0.425065	1.288351	-3.244138
H	0.441128	1.950813	-1.829674
H	-1.326389	1.816023	-1.808858
N	-1.473085	-0.883912	-1.972212
O	-2.32063	-0.399472	-2.709411
O	-1.404512	-2.079367	-1.686325
F	-2.688376	0.0	0.0
