18

C	0.0	0.0	0.0
C	-0.294011	0.283823	-1.521255
Cl	1.78437	0.0	0.0
H	0.439003	-0.312274	-2.066089
N	-0.48166	1.09907	0.797646
H	-0.233094	0.90049	1.763515
H	-1.511515	0.940206	0.68984
N	-0.442115	-1.325168	0.350113
H	-1.471173	-1.192886	0.307115
H	-0.187242	-1.47021	1.324389
C	-0.166811	1.755778	-1.854569
H	-1.011984	2.292655	-1.434194
H	0.751878	2.152313	-1.423686
H	-0.158467	1.898999	-2.937967
N	-1.584065	-0.251612	-2.122765
O	-2.361085	0.546489	-2.634411
O	-1.673461	-1.471151	-2.218969
F	-2.707962	0.0	0.0
