18

C	0.0	0.0	0.0
C	-0.196764	0.09479	-1.568685
Cl	1.857713	0.0	0.0
H	0.129802	1.100044	-1.846554
N	-0.687663	1.013225	0.695054
H	-1.713816	0.721725	0.548898
H	-0.525014	1.912369	0.256211
N	-0.447747	-1.243139	0.495255
H	-0.572267	-1.196378	1.495529
H	0.132491	-2.012061	0.201211
C	-1.568536	-0.223593	-2.123689
H	-1.609461	0.108724	-3.167206
H	-2.357605	0.194967	-1.476884
H	-1.730461	-1.300522	-2.070048
N	0.747438	-0.788534	-2.345039
O	1.388571	-0.270795	-3.259963
O	0.769447	-1.99014	-2.081103
F	-3.099524	0.0	0.0
