14

C	-0.238021	0.0483	-1.489068
C	0.0	0.0	0.0
F	-0.247394	-1.246012	-2.011764
H	1.09441	0.0	0.0
H	-0.324407	0.93495	0.457002
N	-1.639391	0.544436	-1.896466
O	-1.835516	0.658159	-3.10407
O	-2.456604	0.793012	-1.015267
N	0.699946	0.892499	-2.072807
H	0.706246	0.802306	-3.079586
H	1.624644	0.71816	-1.646439
C	-0.594374	-1.137446	0.666935
N	-1.049462	-2.06481	1.22588
H	2.735658	0.0	0.0
