14

C	-0.540621	0.096721	-1.414689
C	0.0	0.0	0.0
F	-0.091277	1.229134	-2.00238
H	1.091855	0.0	0.0
H	-0.318673	-0.951042	0.4339
N	0.006833	-1.090803	-2.205514
O	-0.372556	-2.190547	-1.803733
O	0.722097	-0.873664	-3.168337
N	-1.962822	0.040563	-1.625282
H	-2.373897	0.829253	-1.141708
H	-2.313797	-0.811659	-1.203289
C	-0.541164	1.094421	0.781764
N	-1.000371	1.980741	1.403737
H	2.709254	0.0	0.0
