14

C	-0.257843	0.02455	-1.498534
C	0.0	0.0	0.0
F	-0.185233	-1.235858	-1.992828
H	1.093967	0.0	0.0
H	-0.307383	0.956909	0.429061
N	-1.685523	0.516007	-1.790479
O	-2.520713	-0.293803	-2.173181
O	-1.8865	1.709373	-1.572196
N	0.634314	0.867483	-2.213459
H	0.400838	1.828475	-1.999392
H	1.567475	0.685848	-1.818238
C	-0.608207	-1.104899	0.708915
N	-1.092019	-1.996408	1.302284
H	2.721663	0.0	0.0
