14

C	-0.240134	0.014793	-1.488803
C	0.0	0.0	0.0
F	-0.234304	-1.290722	-1.983007
H	1.094294	0.0	0.0
H	-0.324848	0.944452	0.436672
N	-1.647605	0.484394	-1.90543
O	-2.470985	0.731158	-1.028829
O	-1.843314	0.57582	-3.115669
N	0.688574	0.856547	-2.092258
H	1.615263	0.694587	-1.666058
H	0.693484	0.744641	-3.097217
C	-0.593657	-1.12115	0.694828
N	-1.055574	-2.019991	1.293424
H	2.73438	0.0	0.0
