14

C	-0.236005	-0.076409	-1.48886
C	0.0	0.0	0.0
F	-0.25777	-1.409745	-1.899569
H	1.091869	0.0	0.0
H	-0.325058	0.970164	0.376799
N	-1.629334	0.403295	-1.939851
O	-2.42955	0.777845	-1.088117
O	-1.831792	0.387035	-3.152088
N	0.710325	0.705916	-2.142049
H	0.7189	0.52722	-3.136712
H	1.632752	0.564845	-1.697983
C	-0.598386	-1.074979	0.760969
N	-1.062397	-1.936169	1.410892
H	2.739296	0.0	0.0
