14

C	-0.327925	-0.174774	-1.477982
C	0.0	0.0	0.0
F	-1.493506	-0.86923	-1.661208
H	1.091819	0.0	0.0
H	-0.292187	-0.932031	0.49474
N	-0.550469	1.203774	-2.109551
O	-1.676098	1.491339	-2.504237
O	0.444164	1.915789	-2.154622
N	0.710709	-0.806389	-2.218971
H	0.601614	-1.806744	-2.103201
H	1.610232	-0.543482	-1.786735
C	-0.618605	1.124789	0.666781
N	-1.105401	2.035862	1.228262
H	2.717315	0.0	0.0
