14

C	-0.492169	0.098749	-1.422442
C	0.0	0.0	0.0
F	0.040761	1.215797	-2.017853
H	1.093707	0.0	0.0
H	-0.329957	-0.944472	0.434112
N	0.025064	-1.087801	-2.243778
O	0.138728	-2.160644	-1.669837
O	0.196871	-0.885622	-3.441171
N	-1.902163	0.04743	-1.575397
H	-2.142532	0.299106	-2.527865
H	-2.332318	0.702534	-0.933819
C	-0.531632	1.113871	0.762882
N	-0.976853	2.021093	1.363892
H	2.709039	0.0	0.0
