14

C	-0.489736	0.019692	-1.425497
C	0.0	0.0	0.0
F	-0.078804	1.12496	-2.087344
H	1.093479	0.0	0.0
H	-0.310018	-0.934992	0.474367
N	0.195961	-1.176507	-2.144161
O	0.962785	-0.964834	-3.067823
O	-0.158135	-2.280152	-1.731964
N	-1.899639	-0.079472	-1.572989
H	-2.152623	-0.103015	-2.554857
H	-2.23248	-0.915437	-1.113549
C	-0.528852	1.136079	0.730891
N	-0.918148	2.0655	1.335353
H	2.707527	0.0	0.0
