14

C	-0.239418	-0.1398	-1.482822
C	0.0	0.0	0.0
F	-0.255714	-1.488596	-1.835785
H	1.096926	0.0	0.0
H	-0.322331	0.985601	0.335031
N	-1.639322	0.311572	-1.948051
O	-1.854585	0.221112	-3.155397
O	-2.432079	0.734371	-1.113273
N	0.699331	0.619802	-2.172044
H	0.707478	0.392	-3.156919
H	1.623512	0.500975	-1.725732
C	-0.603114	-1.040152	0.803862
N	-1.078425	-1.870502	1.485824
H	2.734887	0.0	0.0
