14

C	-0.234071	-0.116723	-1.48462
C	0.0	0.0	0.0
F	-1.540176	-0.397793	-1.855095
H	1.093904	0.0	0.0
H	-0.392235	0.929275	0.406027
N	-0.074933	1.31362	-2.132696
O	-0.353503	2.308287	-1.469716
O	0.267348	1.325888	-3.313729
N	0.647422	-1.035499	-2.035855
H	0.697686	-0.941443	-3.041587
H	1.572274	-0.908195	-1.598181
C	-0.518324	-1.150417	0.71102
N	-0.916448	-2.073542	1.319105
H	2.712023	0.0	0.0
