14

C	-0.227037	0.009657	-1.491103
C	0.0	0.0	0.0
F	-0.122331	-1.319663	-1.946544
H	1.094138	0.0	0.0
H	-0.40511	-0.902507	0.453999
N	-1.670213	0.324606	-1.924357
O	-1.830121	0.776812	-3.055822
O	-2.567466	0.030811	-1.140771
N	0.648326	0.895177	-2.094776
H	1.585477	0.767073	-1.685422
H	0.637468	0.82755	-3.102576
C	-0.493661	1.19574	0.652897
N	-0.869565	2.158312	1.211548
H	2.729296	0.0	0.0
