14

C	-0.533149	0.222857	-1.393475
C	0.0	0.0	0.0
F	-0.128875	1.441837	-1.840569
H	1.091685	0.0	0.0
H	-0.300385	0.884428	0.573091
N	0.087521	-0.785698	-2.382862
O	0.095838	-0.429556	-3.584331
O	0.416968	-1.8817	-1.946746
N	-1.948715	0.160899	-1.505015
H	-2.310333	-0.670359	-1.05092
H	-2.227266	0.190749	-2.476252
C	-0.571545	-1.174895	0.633099
N	-1.064199	-2.103376	1.153117
H	2.720306	0.0	0.0
