14

C	-0.297264	-0.118286	-1.482078
C	0.0	0.0	0.0
F	-1.632762	-0.327031	-1.736021
H	1.092301	0.0	0.0
H	-0.406325	0.913946	0.434837
N	0.000799	1.261491	-2.0983
O	0.889122	1.358168	-2.93251
O	-0.709613	2.17837	-1.6886
N	0.464748	-1.090714	-2.174839
H	0.205704	-1.994744	-1.793393
H	1.445614	-0.92666	-1.921796
C	-0.486609	-1.173932	0.696967
N	-0.870084	-2.135423	1.254246
H	2.711386	0.0	0.0
