17

C	0.0	0.0	0.0
C	-0.406113	-0.170072	-1.5048
Br	1.965438	0.0	0.0
H	0.5127	-0.21658	-2.096963
H	-0.199825	1.035601	0.295981
N	-0.604031	-0.965121	0.857901
H	-0.432275	-0.681128	1.818805
H	-1.625729	-0.763584	0.661519
C	-1.189673	1.062549	-1.954985
H	-1.48096	0.973546	-3.008541
H	-0.58396	1.971965	-1.852376
H	-2.08471	1.111384	-1.330282
C	-1.196818	-1.447576	-1.775028
H	-2.162898	-1.35517	-1.276526
H	-1.344216	-1.552238	-2.857287
H	-0.665483	-2.328955	-1.409169
F	-2.954614	0.0	0.0
