17

C	0.0	0.0	0.0
C	-0.578221	0.008416	-1.390203
Br	2.042456	0.0	0.0
H	-1.669303	0.087356	-1.054554
H	-0.281459	0.912074	0.524086
N	-0.394123	-1.149992	0.736434
H	-0.561248	-0.946908	1.708239
H	0.246138	-1.919692	0.62002
C	-0.385905	-1.314462	-2.107888
H	-0.827054	-1.265593	-3.1084
H	-0.904038	-2.101917	-1.555764
H	0.673494	-1.582253	-2.221457
C	-0.130767	1.203433	-2.211491
H	0.924819	1.135383	-2.501405
H	-0.731245	1.279006	-3.124032
H	-0.265956	2.134988	-1.650974
F	-2.901515	0.0	0.0
