17

C	0.0	0.0	0.0
C	-0.408565	0.003939	-1.512528
Br	1.963468	0.0	0.0
H	0.508883	0.015819	-2.107479
H	-0.202853	0.994331	0.413061
N	-0.603763	-1.056419	0.743608
H	-1.624112	-0.831275	0.573083
H	-0.427122	-0.886198	1.730033
C	-1.192036	1.281589	-1.817158
H	-1.453322	1.322464	-2.882043
H	-0.595206	2.171378	-1.583987
H	-2.098912	1.24061	-1.207489
C	-1.208589	-1.23195	-1.924025
H	-2.175978	-1.1834	-1.423274
H	-0.686523	-2.152583	-1.653073
H	-1.35041	-1.216752	-3.011358
F	-2.955244	0.0	0.0
