16
Coordinates from ORCA-job run
  C   0.94743932619136      0.15793040205090     -0.06950613294011
  C   -0.53292142703949     -0.01039821571732      0.25107433046793
  F   1.52374787735934      0.96370035256556      0.92097458730704
  H   -0.59911226511782     -0.64479967561473      1.14339675633563
  H   1.04734373225182      0.71267865340345     -1.01236184768846
  C   1.71126327783171     -1.14260640182445     -0.12923843819698
  H   2.75929374966243     -0.95598509185538     -0.37086803597654
  H   1.66471093345491     -1.63860830257607      0.84330723123816
  H   1.27292259902185     -1.79697519129994     -0.88134132745525
  N   -1.13767442257141     -0.75575766580302     -0.85617110791110
  H   -1.29356932544550     -0.12409854259357     -1.63535330351176
  H   -2.04658521722476     -1.10434776441206     -0.57658817506256
  C   -1.20019943215882      1.33055093435585      0.54402068232380
  H   -1.11626810315128      1.99165902209788     -0.32527799282244
  H   -2.26254186524575      1.18569268621462      0.75800945521016
  H   -0.73884943781857      1.83136480100826      1.39592331868249
