16
Coordinates from ORCA-job run
  C   0.61573286004673     -0.76999159689143     -0.21647829739782
  C   -0.59387839355071     -0.01051831825695      0.31934211635803
  F   0.53834690308838     -0.84624325828586     -1.60619238060177
  H   -0.37593466631701      0.20509144011143      1.38006314376177
  H   0.57177857709691     -1.80426361321909      0.14790697379317
  C   1.95054600213779     -0.15500371300204      0.14659483375078
  H   2.03495332929176      0.85586008036375     -0.25478132448854
  H   2.75847483298197     -0.75419910081567     -0.27641598021508
  H   2.07974664828227     -0.11622501697308      1.23068911313299
  N   -1.78460742478447     -0.84330360091598      0.14689038200264
  H   -2.60865492645927     -0.32015957504445      0.41902834811150
  H   -1.73238436872137     -1.65620273269373      0.75046914833193
  C   -0.81498485471599      1.30607172909759     -0.41042439174976
  H   -1.02218642400051      1.10666747637732     -1.46150659015109
  H   -1.66993767630988      1.83586256785558      0.01895686458005
  H   0.05098958193339      1.96555723229261     -0.33514195921880
