16
Coordinates from ORCA-job run
  C   0.88906626704647      0.14042120644358     -0.01584503521541
  C   -0.60261381442685      0.08023908048413      0.31031390808258
  F   1.53189912236979      0.83598657373466      1.01746623459738
  H   -0.69851170468032     -0.46830520206480      1.25571933427118
  H   1.03587854774805      0.73441622848815     -0.92805757552859
  C   1.56218435366844     -1.20824908268471     -0.14359136630144
  H   1.38473476315179     -1.80319265102727      0.75586876329626
  H   1.19548326452671     -1.75709704376644     -1.01237452093193
  H   2.63883732472132     -1.07315980030950     -0.25901678789640
  N   -1.39338198562308     -0.63486288044739     -0.68787333260705
  H   -1.09986430275782     -1.59989479104771     -0.76733246845142
  H   -1.28880639997962     -0.19801682702821     -1.59710322508370
  C   -1.17774168398419      1.47674174081616      0.49127452065288
  H   -2.23051544936868      1.40704713659129      0.76767191179572
  H   -0.63646321105654      2.02930857673026      1.25902575334901
  H   -1.10918509135547      2.03961773508780     -0.44614611402907
