16
Coordinates from ORCA-job run
  C   0.54877017243561     -0.78114726649661     -0.11396499983503
  C   -0.62524695669964      0.01544328497252      0.45367403100720
  F   0.28162050695161     -1.03370109808052     -1.47031612487098
  H   -0.43407272153423      0.14455250085170      1.52670083210018
  H   0.56929128687551     -1.76438294220510      0.37228610241632
  C   1.90263759188539     -0.11588484447726     -0.01794269066626
  H   1.92990062668758      0.78404184566302     -0.63313029931929
  H   2.12374059246297      0.15794911519182      1.01693500779952
  H   2.68247660970037     -0.79313054194291     -0.37074306964016
  N   -1.89897229567031     -0.69327836795064      0.32463858074587
  H   -1.85638705505282     -1.57303873940529      0.82802563549846
  H   -2.03637627652788     -0.92232509948843     -0.65411939742187
  C   -0.76242117679062      1.38753810161762     -0.19285397214436
  H   0.09341444301893      2.03080922020814      0.01906444744405
  H   -1.66368459891840      1.86928371983299      0.18683728598856
  H   -0.85569074882407      1.28727111170895     -1.27709136910221
