15

C	0.0	0.0	0.0
C	-0.528042	-0.470174	-1.351694
Br	1.973318	0.0	0.0
H	-0.23292	0.283498	-2.095783
H	-1.618963	-0.434444	-1.238911
C	-0.51273	1.389439	0.336046
H	-1.606522	1.327575	0.347428
H	-0.144886	1.720372	1.30787
H	-0.185236	2.096649	-0.430102
C	-0.347617	-0.961719	1.049605
N	-0.571894	-1.717186	1.920732
N	-0.101726	-1.823288	-1.667851
H	0.723352	-1.819251	-2.250626
H	-0.84376	-2.309378	-2.151874
Cl	-3.79746	0.0	0.0
