15

C	0.0	0.0	0.0
C	-0.396759	0.150383	-1.504016
Br	1.966192	0.0	0.0
H	-0.101157	1.166564	-1.792712
H	0.234847	-0.54186	-2.069053
C	-0.591147	1.080684	0.88342
H	-1.683039	0.987212	0.838569
H	-0.288966	2.063724	0.513446
H	-0.267902	0.969917	1.920023
C	-0.368834	-1.337654	0.46195
N	-0.62421	-2.444176	0.766858
N	-1.765786	-0.08174	-1.851537
H	-2.053702	-1.027682	-1.634092
H	-2.439205	0.50233	-1.364007
Cl	-4.381265	0.0	0.0
