15

C	0.0	0.0	0.0
C	-0.553105	0.158963	-1.417962
Br	1.973911	0.0	0.0
H	-0.178404	-0.663859	-2.037263
H	-1.636382	0.035694	-1.289605
C	-0.499518	1.089076	0.933266
H	-0.188161	2.05488	0.536732
H	-1.592819	1.023974	0.947462
H	-0.102539	0.948932	1.939877
C	-0.340267	-1.333554	0.505118
N	-0.556647	-2.417721	0.90397
N	-0.246828	1.476123	-1.958663
H	-1.09035	1.892097	-2.329123
H	0.440644	1.41605	-2.696298
Cl	-3.815501	0.0	0.0
