15

C	0.0	0.0	0.0
C	-0.539115	0.335195	-1.392302
Br	1.974079	0.0	0.0
H	-0.192028	-0.429406	-2.098595
H	-1.626703	0.239945	-1.280844
C	-0.506069	0.964377	1.057425
H	-0.11147	0.704751	2.041312
H	-0.2032	1.973764	0.781816
H	-1.598592	0.888178	1.057232
C	-0.34364	-1.385567	0.331043
N	-0.557333	-2.509999	0.597778
N	-0.19209	1.6959	-1.775938
H	-0.971564	2.115664	-2.263642
H	0.61619	1.702484	-2.383067
Cl	-3.813788	0.0	0.0
