15

C	0.0	0.0	0.0
C	-0.38923	0.215318	-1.497259
Br	1.965881	0.0	0.0
H	0.182061	-0.5142	-2.08042
H	-0.00954	1.208678	-1.765611
C	-0.582779	1.052825	0.922324
H	-0.279779	2.046484	0.584051
H	-1.675421	0.964491	0.883002
H	-0.252165	0.906749	1.951503
C	-0.379343	-1.349903	0.414387
N	-0.646618	-2.462228	0.685923
N	-1.774176	0.114437	-1.839404
H	-2.371923	0.778935	-1.361476
H	-2.171871	-0.784852	-1.596272
Cl	-4.381672	0.0	0.0
