15

C	0.0	0.0	0.0
C	-0.558244	-0.365197	-1.372938
Br	1.961002	0.0	0.0
H	-1.624493	-0.111035	-1.319358
H	-0.065874	0.276379	-2.109698
C	-0.497182	1.37074	0.440758
H	-0.07498	1.644441	1.409053
H	-0.199495	2.115851	-0.300708
H	-1.589065	1.321557	0.503314
C	-0.359144	-1.026613	0.985032
N	-0.596254	-1.85775	1.781599
N	-0.31289	-1.766894	-1.700271
H	-0.486426	-1.90024	-2.689273
H	-1.01492	-2.315087	-1.21412
Cl	-3.783272	0.0	0.0
