17

C	-0.325401	-0.002245	-1.455047
C	0.0	0.0	0.0
Br	-2.414094	0.578257	-1.733729
H	1.095711	0.0	0.0
N	0.333422	1.122248	-2.250796
O	0.854945	2.040398	-1.637001
O	0.28945	1.00846	-3.473282
N	-0.062328	-1.169547	-2.121158
H	-0.263194	-1.123469	-3.109054
H	-0.417354	-1.994605	-1.660516
C	-0.443499	-1.259977	0.559071
N	-0.799236	-2.291416	1.001845
C	-0.488413	1.163462	0.855821
H	-1.566766	1.122884	1.025055
H	-0.230547	2.109229	0.387075
H	0.035869	1.109576	1.812756
F	2.473463	0.0	0.0
