17

C	-0.086902	-0.075624	-1.534629
C	0.0	0.0	0.0
Br	-1.826334	-0.760678	-2.255894
H	1.09811	0.0	0.0
N	-0.068845	1.397946	-2.118799
O	-1.017197	2.13908	-1.889338
O	0.92748	1.702579	-2.767908
N	0.975016	-0.83921	-1.979426
H	1.821149	-0.616695	-1.398361
H	1.131595	-0.767093	-2.974455
C	-0.455558	-1.254343	0.570655
N	-0.825334	-2.233621	1.106657
C	-0.591969	1.19518	0.729445
H	-0.067882	2.108111	0.447987
H	-1.658232	1.320848	0.531496
H	-0.443774	1.044491	1.801175
F	2.627856	0.0	0.0
