17

C	-0.542608	0.041159	-1.409136
C	0.0	0.0	0.0
Br	0.538964	1.391906	-2.46919
H	1.091822	0.0	0.0
N	-0.258203	-1.255381	-2.173352
O	0.60189	-2.002431	-1.735402
O	-0.921317	-1.431746	-3.194237
N	-1.926632	0.261431	-1.511207
H	-2.222787	0.287792	-2.478522
H	-2.182951	1.114353	-1.033825
C	-0.535854	-1.159871	0.69088
N	-0.977819	-2.063945	1.300829
C	-0.33988	1.270008	0.78817
H	-1.407465	1.393718	1.007554
H	0.202001	1.217373	1.734048
H	0.03763	2.140685	0.249289
F	2.518925	0.0	0.0
