17

C	-0.309141	0.062199	-1.458747
C	0.0	0.0	0.0
Br	-2.312046	0.897887	-1.779861
H	1.094725	0.0	0.0
N	0.481092	1.132678	-2.210402
O	0.700633	0.909546	-3.397746
O	0.80924	2.137517	-1.603229
N	-0.175528	-1.116341	-2.135677
H	-0.271157	-1.031417	-3.135629
H	-0.673696	-1.890506	-1.722907
C	-0.471692	-1.2665	0.515297
N	-0.853936	-2.301795	0.926479
C	-0.432113	1.143234	0.911956
H	-0.044425	2.083388	0.530421
H	0.01912	0.965215	1.891112
H	-1.518043	1.206898	1.014571
F	2.46872	0.0	0.0
