17

C	-0.071214	0.033544	-1.53289
C	0.0	0.0	0.0
Br	-0.245577	-1.901858	-2.292582
H	1.094417	0.0	0.0
N	-1.365115	0.633926	-2.092279
O	-1.276089	1.347773	-3.088486
O	-2.404307	0.362521	-1.500682
N	1.027053	0.708051	-1.989725
H	1.880215	0.470146	-1.413569
H	1.123403	0.73212	-2.993315
C	-0.610664	-1.122661	0.669579
N	-1.110017	-1.969294	1.313764
C	-0.455039	1.335468	0.601572
H	-1.541831	1.456213	0.577999
H	-0.112562	1.384347	1.637916
H	0.024846	2.1476	0.048957
F	2.650326	0.0	0.0
