17

C	-0.559008	0.123975	-1.419688
C	0.0	0.0	0.0
Br	0.195084	1.693266	-2.29012
H	1.092761	0.0	0.0
N	-0.087296	-1.116854	-2.195472
O	-0.881062	-2.05892	-2.177579
O	1.021514	-1.120992	-2.703002
N	-1.987712	0.183112	-1.600691
H	-2.39711	-0.619922	-1.133569
H	-2.326335	1.031329	-1.163762
C	-0.532604	-1.206616	0.605463
N	-0.9933	-2.15296	1.133426
C	-0.354012	1.196722	0.88814
H	0.054866	1.002432	1.881484
H	-1.43082	1.380515	0.984704
H	0.142221	2.087452	0.502811
F	2.513894	0.0	0.0
