13

C	-0.4393	-0.105284	-1.42518
C	0.0	0.0	0.0
F	-0.070552	0.939707	-2.196946
H	1.088478	0.0	0.0
H	-0.010374	-1.02068	-1.844429
H	-0.293075	-0.890108	0.553859
N	-1.942343	-0.288739	-1.568982
O	-2.41593	-1.211039	-0.908031
O	-2.558952	0.432652	-2.339855
N	-0.545999	1.151322	0.709755
O	-0.269037	1.234367	1.908379
O	-1.207587	1.988516	0.080521
H	2.64236	0.0	0.0
