13

C	-0.454967	-0.071207	-1.422557
C	0.0	0.0	0.0
F	-0.003921	0.930074	-2.206936
H	1.088496	0.0	0.0
H	-0.121478	-1.024827	-1.843002
H	-0.303462	-0.893408	0.541619
N	-1.972114	-0.113004	-1.544771
O	-2.520768	-0.986289	-0.875288
O	-2.529069	0.666293	-2.304742
N	-0.517391	1.146491	0.732405
O	-1.006894	2.090658	0.09752
O	-0.367451	1.129171	1.957446
H	2.624673	0.0	0.0
