13

C	-0.485847	0.029465	-1.408699
C	0.0	0.0	0.0
F	-0.179151	1.241481	-1.971365
H	1.090955	0.0	0.0
H	-0.097735	-0.770548	-2.03256
H	-0.339002	0.865734	0.563101
N	-1.998234	-0.064031	-1.514314
O	-2.665249	0.460943	-0.62654
O	-2.448454	-0.59397	-2.52857
N	-0.449304	-1.196389	0.673247
O	-0.77395	-2.169353	-0.032869
O	-0.384923	-1.221899	1.905743
H	2.589981	0.0	0.0
