13

C	-0.439601	-0.111728	-1.424667
C	0.0	0.0	0.0
F	-0.055744	0.918618	-2.208102
H	1.088498	0.0	0.0
H	-0.025993	-1.038358	-1.83445
H	-0.294174	-0.887055	0.557819
N	-1.945753	-0.273077	-1.56494
O	-2.430897	-1.188551	-0.902703
O	-2.554227	0.459181	-2.332187
N	-0.541	1.154557	0.706022
O	-0.304182	1.214867	1.914946
O	-1.154045	2.019314	0.065179
H	2.635511	0.0	0.0
