13

C	-0.431879	-0.061673	-1.431911
C	0.0	0.0	0.0
F	-0.038432	1.082068	-2.063318
H	1.089716	0.0	0.0
H	-0.055468	-0.932164	-1.962121
H	-0.382224	0.889537	0.494518
N	-1.941101	-0.107509	-1.550985
O	-2.44884	-1.163037	-1.933519
O	-2.55071	0.91385	-1.239446
N	-0.410892	-1.17035	0.74179
O	-0.389566	-2.26056	0.145647
O	-0.626054	-1.044122	1.955579
H	2.562346	0.0	0.0
