18

C	0.0	0.0	0.0
C	-0.57404	0.045296	-1.413804
F	1.387501	0.0	0.0
H	-1.644549	0.303211	-1.202728
C	-0.391922	1.192823	0.786795
N	-0.541183	2.090267	1.529069
C	-0.473505	-1.231647	0.754336
H	-0.052841	-2.127418	0.292317
H	-0.116198	-1.167787	1.784872
H	-1.568996	-1.192073	0.702727
C	-0.475686	-1.264378	-2.162737
H	0.533567	-1.682795	-2.146835
H	-0.767246	-1.120259	-3.203077
H	-1.179965	-1.959028	-1.705316
N	0.108757	1.141761	-2.166094
O	0.751464	0.860283	-3.181463
O	-0.011855	2.284572	-1.726317
F	-2.799742	0.0	0.0
