18

C	0.0	0.0	0.0
C	-0.411441	0.146405	-1.490662
F	1.394728	0.0	0.0
H	0.505857	-0.08477	-2.047185
C	-0.421679	1.16981	0.789625
N	-0.53185	2.122796	1.468836
C	-0.359676	-1.27711	0.753371
H	0.017362	-1.156991	1.773941
H	-1.44109	-1.373136	0.740671
H	0.145723	-2.119926	0.28552
C	-0.927091	1.522199	-1.848001
H	-0.201675	2.27743	-1.534266
H	-1.083369	1.608475	-2.923203
H	-1.868765	1.640045	-1.313129
N	-1.356345	-0.909598	-2.002097
O	-1.039961	-2.078708	-1.787896
O	-2.272954	-0.570262	-2.73742
F	-2.489195	0.0	0.0
