18

C	0.0	0.0	0.0
C	-0.414692	0.123697	-1.490658
F	1.394772	0.0	0.0
H	0.503297	-0.10656	-2.047494
C	-0.416864	1.18414	0.772334
N	-0.541205	2.131465	1.45632
C	-0.3634	-1.261375	0.778103
H	0.009738	-1.120526	1.796966
H	-1.445081	-1.354536	0.763172
H	0.142326	-2.113785	0.329015
C	-0.950641	1.487553	-1.865994
H	-1.10115	1.558881	-2.943409
H	-0.248011	2.263598	-1.553676
H	-1.898174	1.586535	-1.338055
N	-1.352618	-0.949033	-1.984824
O	-1.03082	-2.11289	-1.74808
O	-2.267872	-0.628114	-2.730495
F	-2.497381	0.0	0.0
