18

C	0.0	0.0	0.0
C	-0.410172	0.151415	-1.489906
F	1.394456	0.0	0.0
H	0.507856	-0.073524	-2.047551
C	-0.42338	1.166837	0.793925
N	-0.532423	2.114886	1.47991
C	-0.359974	-1.28061	0.749075
H	0.150266	-2.120596	0.281663
H	0.011264	-1.161855	1.771962
H	-1.440908	-1.37957	0.731339
C	-0.932782	1.526312	-1.842328
H	-1.07568	1.621227	-2.918788
H	-0.223742	2.288276	-1.511087
H	-1.88259	1.627537	-1.31833
N	-1.354916	-0.903458	-2.007645
O	-2.2656	-0.560696	-2.749219
O	-1.044257	-2.074612	-1.793436
F	-2.49027	0.0	0.0
