18

C	0.0	0.0	0.0
C	-0.331198	-0.312824	-1.507086
F	1.386448	0.0	0.0
H	0.625864	-0.138081	-2.003254
C	-0.418148	1.380821	0.305529
N	-0.578929	2.511647	0.578298
C	-0.543347	-0.964852	1.023181
H	-0.144464	-1.962397	0.831607
H	-0.225927	-0.638754	2.016972
H	-1.640485	-0.894643	0.9023
C	-1.446291	0.430498	-2.205124
H	-1.187301	1.492855	-2.233449
H	-2.360897	0.287166	-1.60871
H	-1.530868	0.066224	-3.232045
N	-0.497409	-1.801819	-1.644944
O	-1.608043	-2.263522	-1.87866
O	0.527081	-2.477355	-1.500871
F	-2.853277	0.0	0.0
