18

C	0.0	0.0	0.0
C	-0.236076	-0.108258	-1.542847
F	1.390295	0.0	0.0
H	0.378081	0.695612	-1.955187
C	-0.435519	1.345143	0.420457
N	-0.604735	2.450193	0.779012
C	-0.570416	-1.061731	0.895701
H	-1.668021	-0.933344	0.785746
H	-0.224638	-2.04559	0.580864
H	-0.242241	-0.86405	1.920097
C	-1.605744	-0.100616	-2.178046
H	-2.251105	-0.855629	-1.742909
H	-1.462674	-0.220245	-3.259933
H	-2.104542	0.838299	-1.955854
N	0.49031	-1.33839	-2.019607
O	1.509277	-1.173801	-2.691907
O	0.003634	-2.435783	-1.751758
F	-2.912711	0.0	0.0
