13
Coordinates from ORCA-job run
  C   -0.33877327976285      0.10147462528012     -0.17450828433741
  C   0.85448404330399      0.73173931704585     -0.10853059980454
  H   0.92674345276478      1.72925236196595     -0.52769504358127
  N   -1.43972121506017      0.85088734480028     -0.76196910885117
  O   -1.23696056490416      1.97325426007704     -1.22681415262014
  O   -2.54223837174060      0.29500093116132     -0.75058162357930
  C   -0.67212256787463     -1.27203785603621      0.30444503757038
  H   -1.37147673331021     -1.24549437465408      1.14300753991557
  H   -1.14280628190756     -1.85289330714905     -0.49018933043247
  H   0.22978709609169     -1.80255872922394      0.61696731102761
  N   2.02528545531297      0.20399144609382      0.36899876434803
  H   2.74218107355376      0.86630225665903      0.60937618936457
  H   1.96561789353300     -0.57891827602013      0.99849330098015
