13
Coordinates from ORCA-job run
  C   -0.35317144967429      0.10144921974784     -0.14408104032492
  C   0.85711127171150      0.69227777797924     -0.25145043792523
  H   0.94459518114673      1.55775167341125     -0.89896332854740
  N   -1.42366378592703      0.65514906601486     -0.96054806723880
  O   -1.21413008433317      1.65511391829958     -1.64829597546209
  O   -2.50587393059193      0.06269671261078     -0.91215867085746
  C   -0.72144789831099     -1.07272707907161      0.70000350856052
  H   -0.96821794159697     -1.94482656727353      0.09025810880810
  H   0.09625196557512     -1.33618205465735      1.37418845334362
  H   -1.59740603141838     -0.84754091248715      1.31007407767329
  N   1.98773202062015      0.35669393308555      0.44660899233451
  H   2.85530568607266      0.69144364622258      0.06479090298457
  H   2.04391499672660     -0.57229933388205      0.82957347665128
