13
Coordinates from ORCA-job run
  C   -0.25119730554771     -0.18423468862629     -0.00433133499555
  C   0.95006636598329      0.25773322077687      0.46416735386578
  H   1.43616078447831     -0.37690775567710      1.20065377603771
  N   -0.97186860457639      0.56305589078346     -0.99633427975367
  O   -0.49855193173707      1.63629261617545     -1.40841492915067
  O   -2.04077891643491      0.09412258036349     -1.39754965146351
  C   -0.89397108748438     -1.46153678160001      0.43286554153228
  H   -0.26948387749974     -1.95499704504778      1.18005063867736
  H   -1.87869569165027     -1.27813102597660      0.86809746797096
  H   -1.03700319535347     -2.14163152929653     -0.40947488369541
  N   1.60667708166109      1.41128200943852      0.19681383870639
  H   1.27392437022674      1.96209486981030     -0.57836926375398
  H   2.57572200793451      1.47285763887621      0.45182572602231
