13
Coordinates from ORCA-job run
  C   -0.26676479381228     -0.16105570617261      0.00167580996269
  C   1.08758242466731     -0.01043295898844      0.03613152796021
  H   1.65905766183545     -0.90178320588629      0.28190362260402
  N   -1.12201084978666      0.95439310540112     -0.29085974029258
  O   -0.61102778412153      2.06080140930757     -0.53708942085752
  O   -2.34020638230696      0.75639208424901     -0.28121704997455
  C   -0.96545092932631     -1.45268162096325      0.28366032541886
  H   -1.57173139320865     -1.76661650574349     -0.56879593540374
  H   -0.23225678340873     -2.23319398707029      0.49562853307957
  H   -1.63828626957208     -1.36087378275947      1.13890431998870
  N   1.84051727411547      1.07680023329721     -0.25420954224473
  H   1.36047664707156      1.95788735070276     -0.34565128295715
  H   2.80010117785341      1.07836358462617      0.04091883271621
