13
Coordinates from ORCA-job run
  C   -0.27190196108758     -0.15127475382764      0.02062394737733
  C   1.07272968302831      0.00545872632716      0.18106071537110
  H   1.62133340531211     -0.87804998867643      0.49702415170577
  N   -1.09154851846162      0.94446253221582     -0.41307909529997
  O   -0.56292020369681      2.04946508532377     -0.62571384713528
  O   -2.29879320172527      0.73064015578960     -0.55640546350617
  C   -0.98988175190989     -1.44243924424188      0.25126563299989
  H   -1.75634669664175     -1.33503350413641      1.02186195309749
  H   -1.49287257439343     -1.78347486559090     -0.65602056003404
  H   -0.28143746139474     -2.20972456993841      0.56918090353834
  N   1.82821995339334      1.12194901297792      0.06230588156890
  H   1.39945236970838      1.93031543358401     -0.35876407880338
  H   2.82496695786897      1.01770598019339      0.00665985912003
