13
Coordinates from ORCA-job run
  C   -0.24551109729100     -0.18718001693753     -0.04256078118254
  C   1.03256713344191      0.11232607365687      0.32465684509072
  H   1.56993875202939     -0.66788805835208      0.85754317329890
  N   -1.05558687117878      0.77663554826995     -0.73291433266438
  O   -2.21250499037666      0.45133411459698     -1.01424027069408
  O   -0.56942157990803      1.88564646856432     -1.01471979812100
  C   -0.91077614010338     -1.49259872391141      0.25600864865669
  H   -1.80060947570710     -1.35156498352610      0.87312059044550
  H   -0.21794013910357     -2.15035520221661      0.78429112532141
  H   -1.23201103813798     -1.99005488880101     -0.66164840965992
  N   1.76467324853799      1.22170150415291      0.06693439839135
  H   1.27458084058407      2.02404758235035     -0.29501896848731
  H   2.60360135721313      1.36795058215336      0.59854777960466
