13
Coordinates from ORCA-job run
  C   -0.36736274320229      0.12130424692946     -0.07910599562835
  C   0.76364684723085      0.81341724833782      0.18000496423283
  H   0.72910499433741      1.89389854578072      0.09383561852698
  N   -1.52286612678425      0.89610814775729     -0.50623232536769
  O   -2.52686484491796      0.24808027337539     -0.81677137918640
  O   -1.45523186374615      2.12531340493904     -0.54443586954164
  C   -0.56922921891024     -1.35518392685443      0.00169908290195
  H   -0.73650995152958     -1.79293880967564     -0.98500057640987
  H   -1.44306737923643     -1.59040399162471      0.61104542297242
  H   0.29637249271443     -1.83959214408986      0.45839934992470
  N   1.94979230707152      0.29143949102271      0.62589418185931
  H   2.12365513321449     -0.68557573055277      0.45834543595881
  H   2.75956035375819      0.87413324465498      0.50232208975695
