13
Coordinates from ORCA-job run
  C   -0.31632061288484      0.04936423698267     -0.23077917606232
  C   0.84763497535333      0.73134328114305     -0.15408812492535
  H   0.95054751873600      1.62870518225598     -0.75424000827371
  N   -1.35137429150354      0.62051951940103     -1.07992244799632
  O   -2.43575765529579      0.03002188357848     -1.08658643565503
  O   -1.11485535267751      1.63709006875869     -1.73387444458274
  C   -0.68085345835110     -1.21382727681226      0.47515293807103
  H   -1.04072270603800     -1.96068369695112     -0.23417823850824
  H   -1.47766354574210     -1.05036351588247      1.20410564543970
  H   0.18544460546917     -1.63332976225875      0.99097415344096
  N   1.96039426155679      0.36024722504885      0.55349926092405
  H   1.84084956919935     -0.28372104159448      1.31743715726043
  H   2.63267669217823      1.08563389633032      0.73249972086755
