13
Coordinates from ORCA-job run
  C   -0.26547474906607     -0.16368462011207     -0.00043139784368
  C   1.07317812688946      0.02108323452276      0.17873036549155
  H   1.60337029649497     -0.78653726119337      0.67680385943938
  N   -1.06837938906993      0.84842502598273     -0.62693813913527
  O   -0.52308784294948      1.89023539541790     -1.03076025243222
  O   -2.27866378275705      0.63078762608963     -0.73313102607318
  C   -1.00327788620370     -1.38257272256689      0.45326598247637
  H   -1.49400413316640     -1.88070107383011     -0.38569002261544
  H   -1.78182535769117     -1.12857326899234      1.17567313557075
  H   -0.30922335925025     -2.08566535807562      0.91767149051015
  N   1.86395783102824      1.04033658410620     -0.23277367689674
  H   1.40562943173964      1.87212645538232     -0.56901821788464
  H   2.77680081400174      1.12373998326887      0.17659789939296
