13
Coordinates from ORCA-job run
  C   -0.37218269248790      0.12556127824726     -0.03865456436714
  C   0.76933300732013      0.79201769383676      0.24125327844396
  H   0.72307134366689      1.87342149709977      0.30741714574210
  N   -1.55729958454576      0.93515175989809     -0.27942815645555
  O   -1.49647343021366      2.15967401873486     -0.16134632149678
  O   -2.57911412647205      0.32085415725840     -0.60069959083542
  C   -0.56097846840943     -1.35046397840061     -0.15158664694526
  H   -1.38267373313197     -1.68222786651718      0.48498945789822
  H   0.33997654836556     -1.88173554448678      0.16235668449127
  H   -0.80478471954784     -1.64705269375828     -1.17414672995191
  N   1.98458593011635      0.23160728656419      0.53323705987550
  H   2.78256204893261      0.83693766992199      0.44973098851534
  H   2.15397787640706     -0.71274527839846      0.22987739508568
