13
Coordinates from ORCA-job run
  C   -0.36571407431063      0.12962581949105     -0.07352053807026
  C   0.82258606966056      0.77238682311491     -0.05400693987376
  H   0.84271209491851      1.81248717128035     -0.36022703569832
  N   -1.50800636093680      0.88727061364071     -0.56274390263502
  O   -1.37160657972200      2.07319410329556     -0.86608791971385
  O   -2.57397781467310      0.26978579877995     -0.64701461664406
  C   -0.64492743071686     -1.28056087191620      0.32669786365677
  H   -1.46692275500603     -1.32065629477753      1.04297529056182
  H   -0.93361788640177     -1.89225902094486     -0.53100034093982
  H   0.23157803874401     -1.72961308161473      0.79858261777589
  N   2.01231994461455      0.26358307812566      0.39580322022162
  H   2.84057159013723      0.75057417121288      0.10075182665617
  H   2.11600516369234     -0.73681830968775      0.42779047470283
