13
Coordinates from ORCA-job run
  C   -0.25176913210387     -0.17593658792241     -0.05458225359815
  C   1.07252048243415      0.05199591380250      0.17469074490849
  H   1.67992619852910     -0.82749815201894      0.37232232495398
  N   -1.15104796382194      0.91452122237119     -0.30648502413216
  O   -2.34170261375937      0.64168108732772     -0.48427614106340
  O   -0.70352534647497      2.07408702710179     -0.33537880584442
  C   -0.87508473762479     -1.53502411223392     -0.03625002340413
  H   -0.11295915187556     -2.29051892169860      0.16415550761701
  H   -1.64953994508213     -1.60558427408158      0.73046359032451
  H   -1.34904310480408     -1.76375450334720     -0.99322042749507
  N   1.76651549590926      1.21385448340632      0.12936172918550
  H   1.23350144004457      2.06811013645278      0.09442816634155
  H   2.68120837862963      1.23306668084037      0.54277061220628
