13
Coordinates from ORCA-job run
  C   -0.36806561680788      0.13660348393643     -0.03807901968843
  C   0.81796281566165      0.77842045533845      0.04405994777315
  H   0.82355929633707      1.85494078773549     -0.08631463871341
  N   -1.53139683900647      0.95420197122187     -0.34958681644003
  O   -2.59847679230140      0.34931349696313     -0.49115995461268
  O   -1.40961561796625      2.17474183002332     -0.46070697041063
  C   -0.62820918191415     -1.32265973022475      0.13413886010217
  H   0.26870396255058     -1.83698571771227      0.48568407236477
  H   -1.41748485065783     -1.48813641767628      0.86902074184249
  H   -0.95448062733627     -1.78555904104681     -0.79984984327339
  N   2.02554084552373      0.21311573287648      0.36059320286945
  H   2.83984050933637      0.74777428606456      0.11247016611865
  H   2.13112209658086     -0.77777113749960      0.21973025206787
