13
Coordinates from ORCA-job run
  C   -0.36132934498594      0.13248385346841     -0.08450645432966
  C   0.83061172000092      0.76602319392640     -0.02806410030581
  H   0.84030831056198      1.84268571442187     -0.15708743284467
  N   -1.53751448973121      0.97142136182333     -0.26358992694373
  O   -1.40540053252991      2.18662742066372     -0.41419168986740
  O   -2.62683182319254      0.39023589854432     -0.24783281069968
  C   -0.62195141430261     -1.33197914554719      0.03456755322929
  H   0.31505421511813     -1.89266385246578      0.04753524985687
  H   -1.18356923081996     -1.56703712825093      0.94138573469738
  H   -1.21191569255496     -1.68745365192112     -0.81160838453760
  N   2.05965206282070      0.17271987710421      0.09633975381750
  H   2.09613137568508     -0.75430374514460      0.48637376557878
  H   2.80775484393030      0.77124020337734      0.40067874234873
