13
Coordinates from ORCA-job run
  C   -0.26637464514459     -0.16197756177314      0.00588085410442
  C   1.05542905317089      0.05472047431354      0.25885392561925
  H   1.53543017300512     -0.65669803427578      0.92588134568568
  N   -1.00636847473935      0.72782388275744     -0.84378479755899
  O   -0.42082139939740      1.69083283600056     -1.36865943308523
  O   -2.20569987224863      0.48935779383213     -1.01152113828501
  C   -1.04933605915591     -1.29214745386041      0.59371753523201
  H   -1.47432064780137     -1.92552620426058     -0.18795329279523
  H   -1.88220229829607     -0.92532184124498      1.19732888411696
  H   -0.40170320792674     -1.90442016918599      1.22410242838575
  N   1.88622060702696      0.99504124116897     -0.24996720283745
  H   1.46424365521403      1.75771564973698     -0.75523601041881
  H   2.76450311629306      1.14859938679125      0.21135690183667
