13
Coordinates from ORCA-job run
  C   -0.36029243787765      0.13650534979786     -0.08548379510112
  C   0.79338533334685      0.78010305020368      0.19793062720498
  H   0.76362492617964      1.86006082507171      0.29141384757415
  N   -1.55751524217633      0.95813292804549     -0.18648016746174
  O   -2.61700562279172      0.35363623971495     -0.37806204538576
  O   -1.47121455138970      2.18181451915995     -0.07605474945349
  C   -0.55958651975265     -1.32819737988994     -0.29021475280829
  H   -1.16894776820140     -1.76535232747332      0.50393195456815
  H   -1.07432617347020     -1.51764492394846     -1.23332323434556
  H   0.39972099611616     -1.84897205066239     -0.32266466313954
  N   2.03520513770141      0.21032444356010      0.30152774982429
  H   2.73142270768334      0.75537702166818      0.77962957867508
  H   2.08552921463225     -0.77578769524781      0.49584964984884
