13
Coordinates from ORCA-job run
  C   -0.37046071011952      0.13475582053573     -0.00295254414156
  C   0.78855743804488      0.72373931822962      0.36399214573916
  H   0.76126361715561      1.77302293569785      0.63652649915079
  N   -1.54949706223823      0.98684101948965     -0.04716207593074
  O   -1.46662329020144      2.16440943206704      0.30406051978115
  O   -2.58876555704840      0.45631627869857     -0.45078520178681
  C   -0.58608643878387     -1.29078459165157     -0.38827517931974
  H   -1.39199607903896     -1.73060994992996      0.20125446811934
  H   0.31592229588185     -1.88067915168115     -0.21226767202078
  H   -0.86667823528601     -1.38480772654691     -1.43964299501839
  N   2.00249552865913      0.10408016651310      0.50963721983616
  H   2.80597502855441      0.70831258175510      0.50560281591704
  H   2.14589346442054     -0.76459613317708      0.02201199967439
