13
Coordinates from ORCA-job run
  C   -0.36705988034871      0.15053627626958      0.00016541062729
  C   0.84170400257740      0.75081101035295      0.06432440181153
  H   0.87443716077862      1.83393010600804      0.02092387412513
  N   -1.51845749230381      1.01985428206705     -0.18731533968282
  O   -1.36775872009877      2.24240328950918     -0.18902430448015
  O   -2.60662685284348      0.45669685137572     -0.33963707593725
  C   -0.65828554692404     -1.31205784676994      0.06089107999145
  H   -1.44109775391427     -1.51775187218823      0.79215620530510
  H   -1.00765338161085     -1.69315551768653     -0.90163441914568
  H   0.23170373393198     -1.87105643640120      0.35768438858747
  N   2.04574322974030      0.12818368543186      0.26445624510281
  H   2.86261879881196      0.66032823403861      0.01956630291532
  H   2.11273270220369     -0.84972206200711      0.03644323077982
