15

C	-0.47837	-0.081908	-1.432244
C	0.0	0.0	0.0
Cl	0.25402	1.180229	-2.438327
H	1.100561	0.0	0.0
H	-0.342889	-0.902882	0.511164
N	-0.118884	-1.450242	-2.075578
O	-0.382438	-1.565515	-3.264962
O	0.345453	-2.30735	-1.339914
C	-1.935905	0.008816	-1.551727
N	-3.108702	0.081258	-1.588098
C	-0.504311	1.251301	0.709952
H	-0.145256	2.153338	0.212496
H	-0.099854	1.257993	1.723717
H	-1.596048	1.290714	0.77172
Br	3.567297	0.0	0.0
