15

C	-0.465808	-0.133629	-1.442378
C	0.0	0.0	0.0
Cl	0.245935	-1.528131	-2.248396
H	1.094182	0.0	0.0
H	-0.340139	0.978402	0.352746
N	-2.006512	-0.289034	-1.401341
O	-2.498062	-1.395815	-1.556818
O	-2.606203	0.740602	-1.110777
C	-0.200225	1.06647	-2.23204
N	0.001782	2.027383	-2.877256
C	-0.515911	-1.112032	0.902952
H	-1.597207	-1.059605	1.060859
H	-0.022054	-1.020932	1.87197
H	-0.267641	-2.094969	0.499644
Br	3.537569	0.0	0.0
