15

C	-0.47147	-0.007847	-1.439888
C	0.0	0.0	0.0
Cl	0.084157	-1.459997	-2.285483
H	1.093404	0.0	0.0
H	-0.337368	-0.940465	0.444379
N	-2.015379	-0.036102	-1.420293
O	-2.603363	0.978831	-1.780826
O	-2.530768	-1.046015	-0.963451
C	-0.059797	1.17315	-2.192599
N	0.281152	2.126088	-2.7893
C	-0.5213	1.203148	0.776062
H	-0.217318	2.139381	0.302579
H	-0.078925	1.186443	1.773858
H	-1.61016	1.201737	0.884087
Br	3.535635	0.0	0.0
