15

C	-0.491366	-0.034641	-1.443772
C	0.0	0.0	0.0
Cl	0.076464	1.38334	-2.33091
H	1.094979	0.0	0.0
H	-0.32967	0.962786	0.402349
N	0.047726	-1.308374	-2.124201
O	1.099523	-1.2408	-2.729337
O	-0.635332	-2.310936	-1.928251
C	-1.950422	-0.092675	-1.537616
N	-3.125912	-0.078109	-1.566145
C	-0.51503	-1.145915	0.863605
H	-0.170147	-0.975618	1.886002
H	-1.606697	-1.212721	0.871006
H	-0.108452	-2.104048	0.539004
Br	3.573329	0.0	0.0
