15

C	-0.473131	0.111005	-1.43432
C	0.0	0.0	0.0
Cl	0.07679	-1.267176	-2.399403
H	1.100586	0.0	0.0
H	-0.336155	-0.974006	0.365769
N	-2.017654	0.081859	-1.416818
O	-2.606001	1.119876	-1.701543
O	-2.53233	-0.959992	-1.037562
C	-0.06331	1.349967	-2.088289
N	0.274606	2.348894	-2.606471
C	-0.520591	1.134827	0.87329
H	-0.220327	2.107424	0.476958
H	-1.609153	1.122098	0.984778
H	-0.074399	1.037453	1.864646
Br	3.536637	0.0	0.0
