15

C	0.0	0.0	0.0
C	-0.456303	-0.153805	-1.47998
F	1.383207	0.0	0.0
H	-1.543017	0.030673	-1.473713
C	-0.399705	1.326835	0.515647
N	-0.578109	2.407497	0.936444
N	-0.476085	-1.014957	0.865076
H	-0.260485	-1.925454	0.470691
H	-1.494528	-0.90766	0.919189
C	-0.135171	-1.490591	-1.95642
N	0.128166	-2.591664	-2.268181
N	0.217979	0.868524	-2.350598
O	-0.264254	1.996823	-2.319837
O	1.20622	0.521211	-2.99281
Cl	-3.386901	0.0	0.0
