15

C	0.0	0.0	0.0
C	-0.506864	0.336933	-1.412215
F	1.368076	0.0	0.0
H	-1.600622	0.4665	-1.332363
C	-0.358125	1.077311	0.967959
N	-0.532075	1.862644	1.824325
N	-0.492601	-1.287119	0.347251
H	-0.227185	-1.490315	1.305461
H	-1.519351	-1.224255	0.309381
C	-0.149055	-0.711172	-2.356624
N	0.102333	-1.536423	-3.152319
N	0.104718	1.641482	-1.851047
O	-0.42906	2.653943	-1.411602
O	1.09746	1.600513	-2.57288
Cl	-3.418617	0.0	0.0
