15

C	0.0	0.0	0.0
C	-0.247433	0.353937	-1.529315
F	1.407802	0.0	0.0
H	-0.063577	1.420268	-1.673764
C	-0.421933	1.138876	0.831644
N	-0.55373	2.104633	1.486923
N	-0.461949	-1.225296	0.501255
H	-1.482106	-1.13707	0.58554
H	-0.244364	-1.960604	-0.163158
C	-1.472154	-0.037205	-2.225603
N	-2.199469	-0.302332	-3.113355
N	0.854788	-0.339041	-2.309627
O	0.860361	-1.565384	-2.275799
O	1.649533	0.371209	-2.913847
Cl	-3.274158	0.0	0.0
