15

C	0.0	0.0	0.0
C	-0.303423	0.036977	-1.531367
F	1.372222	0.0	0.0
H	0.515867	0.632529	-1.938747
C	-0.375258	1.297248	0.625541
N	-0.497257	2.307331	1.214746
N	-0.488394	-1.169592	0.61998
H	-1.514241	-1.137066	0.506831
H	-0.286558	-1.123257	1.613463
C	-1.530506	0.567006	-2.117487
N	-2.188104	1.094015	-2.939222
N	-0.045125	-1.353882	-2.069918
O	1.126864	-1.602298	-2.351258
O	-0.994874	-2.117073	-2.169796
Cl	-3.305645	0.0	0.0
