15

C	0.0	0.0	0.0
C	-0.447081	-0.255769	-1.439744
F	1.407547	0.0	0.0
H	0.117223	0.440563	-2.070729
H	-0.306343	1.005013	0.300649
N	-0.541393	-0.942709	0.890234
H	-0.384491	-0.707039	1.858468
H	-0.22575	-1.88229	0.692254
C	-1.952373	-0.040251	-1.617803
H	-2.252328	-0.245084	-2.647339
H	-2.547666	-0.659062	-0.94886
H	-2.214772	0.993206	-1.3867
C	-0.03606	-1.608967	-1.827655
N	0.280639	-2.699197	-2.127507
Br	-5.255768	0.0	0.0
