15

C	0.0	0.0	0.0
C	-0.486005	-0.008779	-1.449118
F	1.396245	0.0	0.0
H	-1.578297	0.111628	-1.399043
H	-0.286588	0.950971	0.467082
N	-0.483073	-1.16033	0.683406
H	-0.322778	-1.038114	1.678116
H	-1.499429	-1.158942	0.557179
C	-0.131921	-1.309199	-2.174786
H	-0.455377	-1.260517	-3.2167
H	0.9455	-1.481719	-2.142885
H	-0.632967	-2.143328	-1.686131
C	0.076689	1.141928	-2.155171
N	0.540606	2.04715	-2.742398
Br	-3.719769	0.0	0.0
