15

C	0.0	0.0	0.0
C	-0.360037	-0.20126	-1.47949
F	1.380064	0.0	0.0
H	0.209003	0.57717	-2.0017
H	-0.296894	1.014702	0.301044
N	-0.51057	-1.044107	0.824892
H	-1.503959	-1.156828	0.636026
H	-0.423065	-0.787497	1.800768
C	-1.834779	-0.066075	-1.843379
H	-1.94524	-0.084946	-2.93077
H	-2.2513	0.865754	-1.461895
H	-2.454094	-0.855719	-1.424332
C	0.186492	-1.482916	-1.942193
N	0.603202	-2.492902	-2.371026
Br	-4.71704	0.0	0.0
