15

C	0.0	0.0	0.0
C	-0.471486	0.034919	-1.455298
F	1.396893	0.0	0.0
H	-1.563396	0.149676	-1.418283
H	-0.286145	0.937774	0.493588
N	-0.479692	-1.180805	0.647177
H	-0.278352	-1.104646	1.637731
H	-1.498984	-1.156471	0.55576
C	-0.098647	-1.239277	-2.216687
H	-0.585942	-2.093642	-1.750108
H	0.981357	-1.394903	-2.190612
H	-0.423066	-1.166626	-3.256981
C	0.095967	1.20996	-2.117478
N	0.560967	2.134374	-2.672583
Br	-3.719365	0.0	0.0
