15

C	0.0	0.0	0.0
C	-0.299096	-0.206941	-1.505726
F	1.407604	0.0	0.0
H	0.30867	0.536384	-2.034754
H	-0.333631	0.997297	0.296445
N	-0.518523	-0.949349	0.91224
H	-0.476082	-1.888237	0.533016
H	-1.488612	-0.726141	1.11827
C	-1.76341	-0.051971	-1.896418
H	-2.135029	0.93297	-1.613313
H	-2.410424	-0.762415	-1.388216
H	-1.879018	-0.175837	-2.975809
C	0.210934	-1.525208	-1.896552
N	0.587324	-2.597885	-2.191354
Br	-4.615453	0.0	0.0
