12

C	-0.513398	0.060749	-1.429574
C	0.0	0.0	0.0
F	-0.158345	-1.102211	-2.083
H	1.091025	0.0	0.0
H	-1.601191	0.146524	-1.453868
H	-0.038011	0.907488	-1.929818
N	-0.544794	-1.248098	0.650533
O	0.242933	-1.988783	1.221063
O	-1.760512	-1.420983	0.555829
C	-0.510125	1.146037	0.743344
N	-0.927542	2.093292	1.298045
Cl	3.248924	0.0	0.0
