12

C	-0.483852	-0.027469	-1.451783
C	0.0	0.0	0.0
F	-0.415086	1.253633	-1.9649
H	1.090541	0.0	0.0
H	0.168633	-0.67433	-2.03484
H	-1.519861	-0.367638	-1.516486
N	-0.38047	-1.28737	0.665259
O	-0.543852	-1.293238	1.879648
O	-0.445152	-2.273806	-0.068454
C	-0.555837	1.116921	0.743727
N	-1.027103	2.027925	1.314619
Cl	3.168686	0.0	0.0
