12

C	-0.407386	0.030488	-1.450756
C	0.0	0.0	0.0
F	-1.790929	0.056522	-1.583605
H	1.094339	0.0	0.0
H	-0.026216	-0.857057	-1.951311
H	0.003937	0.931043	-1.908287
N	-0.422774	-1.287312	0.652345
O	-0.744362	-1.250644	1.836116
O	-0.36342	-2.298277	-0.040122
C	-0.52828	1.130268	0.748836
N	-0.929092	2.082524	1.306172
Cl	3.172831	0.0	0.0
