16

C	-0.643737	-0.251187	-1.367041
C	0.0	0.0	0.0
Cl	0.028437	-1.738525	-2.066874
H	1.106016	0.0	0.0
N	-2.074369	-0.324454	-1.42706
H	-2.36792	-1.065227	-0.7997
H	-2.436391	0.562293	-1.09306
N	-0.222977	0.928375	-2.255039
O	0.963716	1.019717	-2.527521
O	-1.103787	1.717412	-2.584053
C	-0.478319	-1.024178	0.913133
N	-0.906877	-1.820745	1.667332
N	-0.386255	1.350115	0.44019
H	-0.998905	1.331133	1.244927
H	0.480397	1.803131	0.711502
F	2.515777	0.0	0.0
