16

C	-0.473558	0.011343	-1.431809
C	0.0	0.0	0.0
Cl	-2.372457	-0.235489	-1.484645
H	1.092991	0.0	0.0
N	-0.071995	1.154478	-2.08139
H	-0.171167	1.943169	-1.453472
H	-0.473434	1.270776	-2.998029
N	-0.011469	-1.201507	-2.224534
O	0.002268	-1.07487	-3.444761
O	0.286177	-2.210482	-1.601574
C	-0.514656	-1.099159	0.797119
N	-0.927964	-1.905402	1.5469
N	-0.311495	1.309172	0.592449
H	0.49069	1.552154	1.162596
H	-1.139934	1.270629	1.173602
F	2.505206	0.0	0.0
