16

C	-0.042917	-0.069217	-1.54828
C	0.0	0.0	0.0
Cl	0.020138	1.701932	-2.222595
H	1.106459	0.0	0.0
N	0.98684	-0.867523	-1.96071
H	1.849049	-0.64788	-1.402167
H	1.093634	-0.949053	-2.960684
N	-1.381501	-0.511652	-2.135962
O	-1.365379	-1.152275	-3.183177
O	-2.388622	-0.162482	-1.522956
C	-0.493635	-1.270324	0.518297
N	-0.903652	-2.286954	0.941653
N	-0.565759	1.115102	0.709986
H	-1.466982	1.361798	0.32127
H	0.063516	1.899532	0.611182
F	2.634341	0.0	0.0
