16

C	-0.109304	0.438258	-1.48573
C	0.0	0.0	0.0
Cl	-1.674205	1.248617	-1.905272
H	1.10769	0.0	0.0
N	0.974775	1.276038	-1.73975
H	1.117764	1.449683	-2.724444
H	1.821147	0.888426	-1.259519
N	-0.091742	-0.865501	-2.374834
O	1.028877	-1.237254	-2.711605
O	-1.144219	-1.440846	-2.627582
C	-0.64237	-1.267724	0.291103
N	-1.157764	-2.287373	0.568263
N	-0.390764	1.017631	0.957208
H	-1.267681	1.450366	0.691062
H	0.337232	1.721727	0.958165
F	2.620681	0.0	0.0
