16

C	-0.617256	-0.060226	-1.384688
C	0.0	0.0	0.0
Cl	0.006946	-1.451292	-2.298191
H	1.106819	0.0	0.0
N	-2.028575	-0.080268	-1.347931
H	-2.30095	0.639482	-0.684135
H	-2.402432	0.128583	-2.264964
N	-0.127484	1.180169	-2.197939
O	0.830244	1.82147	-1.79289
O	-0.776234	1.428485	-3.21527
C	-0.454961	-1.152161	0.762926
N	-0.800463	-2.038126	1.454159
N	-0.488886	1.251591	0.634144
H	0.318512	1.869542	0.622503
H	-0.697272	1.066933	1.609479
F	2.529782	0.0	0.0
