14

C	0.0	0.0	0.0
C	-0.594317	-0.147854	-1.389709
F	1.387297	0.0	0.0
H	-0.367954	0.751796	-1.971013
H	-1.706941	-0.173633	-1.128594
C	-0.479748	1.291739	0.635096
H	-0.102723	2.131409	0.042633
H	-0.088644	1.371095	1.652081
H	-1.574648	1.232725	0.615227
C	-0.393786	-1.156736	0.835931
N	-0.554997	-2.085841	1.534894
C	-0.118169	-1.319325	-2.103703
N	0.254208	-2.259342	-2.702971
F	-2.836852	0.0	0.0
