14

C	0.0	0.0	0.0
C	-0.593529	0.141138	-1.394056
F	1.387548	0.0	0.0
H	-1.707834	0.142362	-1.129949
H	-0.34002	-0.726706	-2.01064
C	-0.467899	1.112142	0.919551
H	-0.050549	0.961102	1.91868
H	-0.110227	2.066923	0.525101
H	-1.561393	1.052677	0.913725
C	-0.404684	-1.31667	0.539745
N	-0.55067	-2.384758	1.004047
C	-0.152005	1.356985	-2.054233
N	0.188596	2.340053	-2.602027
F	-2.823245	0.0	0.0
