14

C	0.0	0.0	0.0
C	-0.592855	0.161765	-1.392102
F	1.387834	0.0	0.0
H	-0.336918	-0.696103	-2.020566
H	-1.706901	0.156331	-1.128911
C	-0.467382	1.09887	0.935524
H	-0.049828	0.933319	1.932137
H	-1.560834	1.040286	0.929152
H	-0.109363	2.059067	0.55486
C	-0.404882	-1.324528	0.520439
N	-0.550602	-2.400616	0.965876
C	-0.153197	1.387586	-2.034859
N	0.185364	2.379146	-2.568273
F	-2.822036	0.0	0.0
