14

C	0.0	0.0	0.0
C	-0.603714	-0.165481	-1.382368
F	1.387883	0.0	0.0
H	-1.715063	-0.192779	-1.106149
H	-0.391276	0.729541	-1.975522
C	-0.475168	1.301495	0.622962
H	-1.569774	1.244472	0.607633
H	-0.09939	2.133249	0.018943
H	-0.079919	1.390513	1.637904
C	-0.398501	-1.148303	0.846437
N	-0.578737	-2.085506	1.530043
C	-0.128163	-1.342132	-2.086936
N	0.248984	-2.28268	-2.682281
F	-2.840033	0.0	0.0
