14

C	0.0	0.0	0.0
C	-0.620442	0.085535	-1.385113
F	1.375768	0.0	0.0
H	-1.729041	0.165248	-1.093821
H	-0.246935	0.981985	-1.890614
C	-0.468768	1.179813	0.836383
H	-0.032345	1.116429	1.836238
H	-0.127153	2.103386	0.358182
H	-1.56149	1.113282	0.852114
C	-0.405742	-1.266248	0.653213
N	-0.570747	-2.286833	1.209122
C	-0.4265	-1.083448	-2.224737
N	-0.344347	-2.023018	-2.926706
F	-2.843522	0.0	0.0
