14

C	0.0	0.0	0.0
C	-0.567276	0.040789	-1.414406
F	1.371682	0.0	0.0
H	-1.680782	0.022724	-1.185251
H	-0.248421	-0.843935	-1.974122
C	-0.457588	1.193881	0.81938
H	-0.082141	1.098668	1.841367
H	-1.55067	1.181921	0.780768
H	-0.032632	2.096678	0.37118
C	-0.424141	-1.270287	0.628933
N	-0.584342	-2.313122	1.143885
C	-0.151443	1.239477	-2.123998
N	0.166151	2.213287	-2.700761
F	-2.79647	0.0	0.0
