14
Coordinates from ORCA-job run
  C   -0.33535717999928     -0.49074241192349      0.07747025524049
  C   0.56490735769592      0.40876162090272     -0.72641625793416
  H   0.05391970294707     -1.49689225225087      0.20970395529856
  H   0.70339159867843      0.00758092063762     -1.73122493650468
  H   0.18420574038589      1.42717271252997     -0.77158505356142
  N   -1.65203689570681     -0.60817233444711     -0.65118503176656
  O   -1.59443109743708     -1.26328092668171     -1.68483179388202
  O   -2.62681484277387     -0.03827996722320     -0.18106579653656
  N   -0.61245032592776      0.05791880468771      1.44221218040566
  O   -0.43205678946432      1.25814072329217      1.61632056583213
  O   -1.02608804621068     -0.75811847093889      2.25689149499876
  N   1.92144289927312      0.48338365651263     -0.09644084665338
  O   2.19192817395394     -0.34419226501872      0.76997783929224
  O   2.66043970458542      1.35672018992115     -0.52882657422905
