14
Coordinates from ORCA-job run
  C   -0.35269063600976     -0.44857213559768      0.18339949300360
  C   0.58683768906667      0.20915563822878     -0.79152593282569
  H   -0.00128976334565     -1.40831354931985      0.55327383376557
  H   0.24096784712051      1.19931053528934     -1.08155100655639
  H   0.72274513569853     -0.42100277925090     -1.67139470650386
  N   -1.66550843689342     -0.69103340960050     -0.52211859441970
  O   -2.62719703744589     -0.00369242444655     -0.20831758685375
  O   -1.61777898238362     -1.56451997202388     -1.37974385439934
  N   -0.62453849770193      0.41208488695888      1.37711981021325
  O   -0.40848140824868      1.61410753119494      1.26795302823865
  O   -1.07021415662357     -0.17794432958954      2.35380958155286
  N   1.93751339506064      0.38850859409384     -0.17078005927714
  O   2.70981788894554      1.11592964549782     -0.77918190645713
  O   2.17081696276063     -0.22401823143472      0.86805790051907
