14
Coordinates from ORCA-job run
  C   -0.56855179917342      0.16544821402204     -0.09326716200257
  C   0.77402473280518     -0.34362615644140     -0.54507247555674
  H   -0.87926574456675      1.08310241542826     -0.58597404715487
  H   0.75551791169226     -0.56669938179551     -1.61260999071475
  H   1.08674788577723     -1.21830603284346      0.02175055980247
  N   -0.61163278696887      0.41931575384817      1.38094431496853
  O   0.22887896671409     -0.14144347203914      2.07559662065283
  O   -1.51672012013780      1.15449373069366      1.75646166923237
  N   -1.60102253688000     -0.88909893933295     -0.41257954726898
  O   -1.82603138269875     -1.02157386527012     -1.60949133017350
  O   -2.09168180797877     -1.51854779855435      0.51413637156214
  N   1.82359748946223      0.70362717966304     -0.33656292859919
  O   1.44480499884634      1.84875133598089     -0.10416808558128
  O   2.98133419310703      0.32555701664085     -0.44816396916646
