14
Coordinates from ORCA-job run
  C   -0.30784548104030     -0.49204979772566      0.15221075564216
  C   0.53994432660013      0.32448281896144     -0.78624645445876
  H   0.13480640423787     -1.44622328488514      0.42594180564126
  H   0.70060088303473     -0.21699828028166     -1.71943456077200
  H   0.10192534820683      1.30110286034875     -0.98208561256571
  N   -1.61936989544561     -0.78427796347348     -0.53567039205672
  O   -2.62181253807567     -0.20560220320270     -0.14058849705734
  O   -1.53055474382618     -1.57870365712528     -1.46405565279342
  N   -0.60795692811922      0.23715622027751      1.42389847616260
  O   -0.49272203628172      1.45790004692517      1.41621231569023
  O   -0.97166624054104     -0.46982616903297      2.35596413914766
  N   1.88957102340449      0.56945820937326     -0.18611056389071
  O   2.56991122119972      1.42279210659425     -0.73818791403500
  O   2.21516865664595     -0.11821090675350      0.77815215534576
