15

C	0.0	0.0	0.0
C	-0.468298	0.033477	-1.459378
Cl	1.801291	0.0	0.0
H	-0.134108	-0.865796	-1.972827
H	-1.567937	0.099559	-1.392942
N	-0.480476	1.158249	0.680927
H	-0.323915	0.987529	1.670368
H	-1.5046	1.118658	0.535664
N	-0.468151	-1.207855	0.635399
H	-1.499549	-1.109019	0.590141
H	-0.19277	-2.022844	0.09365
N	0.043524	1.169339	-2.260719
O	-0.43191	2.285006	-2.059251
O	0.90953	0.919279	-3.107867
H	-3.001233	0.0	0.0
