15

C	0.0	0.0	0.0
C	-0.498318	0.088955	-1.434929
Cl	1.819037	0.0	0.0
H	-0.167836	-0.786985	-1.98365
H	-1.601363	0.13951	-1.336374
N	-0.450943	1.133794	0.7551
H	-0.24883	0.950391	1.735083
H	-1.480077	1.090464	0.646759
N	-0.435903	-1.310575	0.444973
H	-0.11268	-1.427142	1.401327
H	-1.465973	-1.203468	0.484129
N	-0.030639	1.265082	-2.202603
O	-0.396323	2.384252	-1.855318
O	0.658624	1.036171	-3.202464
H	-2.995064	0.0	0.0
