15

C	0.0	0.0	0.0
C	-0.478472	-0.268798	-1.423055
Cl	1.827799	0.0	0.0
H	-1.578957	-0.311744	-1.343333
H	-0.129301	0.527641	-2.073117
N	-0.468232	1.337194	0.283787
H	-0.210939	1.56024	1.241856
H	-1.500095	1.210878	0.26992
N	-0.441807	-1.059389	0.861569
H	-0.219376	-0.799375	1.818205
H	-1.471415	-1.023656	0.764695
N	0.010129	-1.540062	-2.001174
O	-0.524417	-2.587396	-1.643191
O	0.912361	-1.468201	-2.843377
H	-2.99118	0.0	0.0
