16

C	-0.395967	0.047398	-1.490625
C	0.0	0.0	0.0
F	-0.169001	-1.293639	-1.933665
H	1.091212	0.0	0.0
N	-1.771596	0.368427	-1.660518
H	-1.944643	0.686571	-2.604557
H	-2.346608	-0.438802	-1.455078
N	0.439346	0.947778	-2.186081
H	1.391067	0.892416	-1.826273
H	0.449956	0.692177	-3.166534
C	-0.567171	-1.161935	0.662759
N	-1.041657	-2.11351	1.160946
N	-0.468794	1.255091	0.674431
O	0.146662	2.276248	0.398702
O	-1.433911	1.177156	1.432347
Br	3.38463	0.0	0.0
