16

C	-0.2837	-0.074372	-1.516305
C	0.0	0.0	0.0
F	-1.649203	0.02554	-1.7272
H	1.092004	0.0	0.0
N	0.333898	0.953703	-2.304164
H	1.336351	0.908792	-2.137309
H	0.004018	1.857631	-1.991768
N	0.154085	-1.377163	-1.91583
H	1.083862	-1.549864	-1.543529
H	0.219202	-1.369562	-2.928533
C	-0.545562	-1.124537	0.741596
N	-0.993456	-2.029633	1.340563
N	-0.439096	1.267265	0.675769
O	-0.459262	1.247525	1.902741
O	-0.70959	2.246453	-0.015072
Br	3.323554	0.0	0.0
