16

C	-0.397135	0.10999	-1.487504
C	0.0	0.0	0.0
F	-0.37518	-1.224206	-1.956917
H	1.108119	0.0	0.0
N	-1.764172	0.524961	-1.674107
H	-1.783718	1.531996	-1.754857
H	-2.117346	0.098263	-2.520328
N	0.557903	0.905861	-2.149709
H	1.509986	0.675392	-1.867403
H	0.449654	0.83096	-3.153011
C	-0.555957	-1.183251	0.632088
N	-1.014544	-2.140367	1.132314
N	-0.402958	1.20767	0.80244
O	-0.624726	2.256719	0.207404
O	-0.425734	1.064692	2.020686
Br	3.374374	0.0	0.0
