16

C	-0.396306	0.053734	-1.489269
C	0.0	0.0	0.0
F	-0.323124	-1.293176	-1.918013
H	1.096685	0.0	0.0
N	-1.775422	0.410616	-1.694652
H	-2.097861	-0.029149	-2.547219
H	-1.838146	1.415992	-1.770246
N	0.536871	0.861359	-2.168852
H	1.49483	0.650895	-1.888931
H	0.425216	0.768745	-3.170334
C	-0.548916	-1.164228	0.673774
N	-0.998615	-2.107136	1.208698
N	-0.408736	1.229447	0.765823
O	-0.712737	2.240803	0.141334
O	-0.357907	1.14045	1.988042
Br	3.37492	0.0	0.0
