17

C	-0.397715	-0.101388	-1.489014
C	0.0	0.0	0.0
Br	0.363574	1.500964	-2.354974
H	1.093384	0.0	0.0
C	0.240069	-1.331831	-2.124253
H	-0.216405	-2.233849	-1.709011
H	1.309626	-1.319292	-1.895825
H	0.090673	-1.326905	-3.204747
C	-1.835197	-0.019601	-1.737524
N	-2.979807	0.080991	-1.991201
N	-0.461495	-1.275064	0.673624
O	0.340073	-1.885601	1.369309
O	-1.645524	-1.584673	0.510857
N	-0.522156	1.08363	0.759913
H	0.15786	1.827799	0.806818
H	-1.410764	1.42016	0.413197
Br	3.486013	0.0	0.0
