17

C	-0.437676	0.035155	-1.470331
C	0.0	0.0	0.0
Br	-2.422314	0.161522	-1.552675
H	1.093347	0.0	0.0
C	0.175092	1.266171	-2.129988
H	-0.102262	1.310805	-3.184147
H	1.263203	1.183569	-2.028716
H	-0.166495	2.156718	-1.605369
C	-0.085502	-1.152331	-2.245614
N	0.193558	-2.026279	-2.981913
N	-0.454451	-1.300067	0.647123
O	-1.241141	-1.225867	1.590659
O	-0.000496	-2.34006	0.18278
N	-0.440043	1.152451	0.705071
H	-1.351632	0.996758	1.115712
H	0.227091	1.353316	1.439117
Br	3.387899	0.0	0.0
