17

C	-0.47992	0.010786	-1.451823
C	0.0	0.0	0.0
Br	-2.473773	0.043446	-1.452972
H	1.100974	0.0	0.0
C	0.035019	1.27546	-2.135884
H	-0.337298	2.148297	-1.602773
H	-0.283007	1.297015	-3.178564
H	1.12912	1.258504	-2.078312
C	-0.094731	-1.144978	-2.257562
N	0.205738	-1.96247	-3.047925
N	-0.432692	-1.278331	0.706627
O	-0.847573	-1.172425	1.861395
O	-0.316132	-2.334355	0.094002
N	-0.406071	1.173571	0.692688
H	-1.312125	1.062212	1.125911
H	0.284597	1.383742	1.401507
Br	3.367883	0.0	0.0
