15

C	0.0	0.0	0.0
C	-0.475027	-0.490754	-1.394016
F	1.396599	0.0	0.0
H	0.44651	-0.670161	-1.960951
H	-0.2666	-0.763304	0.739622
N	-0.505715	1.300849	0.320162
H	-1.525884	1.130264	0.273032
H	-0.283988	1.483293	1.293901
N	-1.313326	0.433158	-2.155755
H	-0.879748	1.35231	-2.155288
H	-2.160318	0.501957	-1.576344
N	-1.179757	-1.75339	-1.191207
H	-2.008038	-1.442546	-0.660304
H	-1.522544	-2.024927	-2.10952
F	-2.926682	0.0	0.0
