15

C	0.0	0.0	0.0
C	-0.476593	-0.070436	-1.446223
F	1.385077	0.0	0.0
H	-1.534191	-0.328592	-1.346683
H	-0.284818	-0.944162	0.479165
N	-0.556093	1.152783	0.637275
H	-1.584171	0.935626	0.494004
H	-0.375835	1.075604	1.633549
N	0.248784	-1.145383	-2.120763
H	1.199037	-0.810531	-2.246471
H	-0.14387	-1.22535	-3.052578
N	-0.302142	1.237952	-2.108523
H	-1.203361	1.497507	-2.494674
H	-0.130619	1.912876	-1.366471
F	-2.855621	0.0	0.0
