15

C	0.0	0.0	0.0
C	-0.468212	0.120914	-1.451176
F	1.41257	0.0	0.0
H	-1.498576	0.472382	-1.35989
H	-0.317094	-0.96289	0.402901
N	-0.529685	1.03214	0.838803
H	-1.545266	0.808774	0.756731
H	-0.375703	1.906015	0.338759
N	-0.429869	-1.214772	-2.093519
H	-0.783997	-1.090753	-3.039191
H	-1.153295	-1.743768	-1.611257
N	0.34839	1.098489	-2.147951
H	-0.062388	1.292744	-3.052939
H	1.26488	0.689898	-2.292928
F	-2.823706	0.0	0.0
