17
Coordinates from ORCA-job run
  C   0.48426393867551     -0.71256605977500     -0.04235274922888
  C   -0.96041346338269     -0.21681514120359      0.09561999918401
  F   0.44484961138292     -2.06099676499992     -0.26949254328037
  H   -1.44114876379460     -0.91693576777639      0.78825292928956
  C   1.33367380257619     -0.05450393383962     -1.09201462074611
  H   0.89608585941391     -0.26406827848836     -2.06899657803063
  H   2.33957296503000     -0.47324949026867     -1.05583933446414
  H   1.40050395110453      1.02084522012923     -0.94250715061402
  N   1.09608858240895     -0.54593580888448      1.34581071447273
  O   0.65652589519604     -1.29146644490361      2.21397759112474
  O   1.92609700896958      0.34520667694629      1.49955146377174
  C   -1.62049452399506     -0.33586474354461     -1.20445984814506
  N   -2.14388719180480     -0.39651009270334     -2.25371393057948
  C   -1.07401710555867      1.20945867445665      0.64252845705491
  H   -0.55893681655865      1.92474772299716      0.00023871265765
  H   -2.12510094968996      1.49527515999462      0.69542690661746
  H   -0.65566279997319      1.27137907186362      1.64796998091589
