17
Coordinates from ORCA-job run
  C   0.54570067799655     -0.29018286051409      0.32862567656250
  C   -0.59104508554012      0.64499441706647     -0.09409093907522
  F   0.17387190716912     -0.97169768142013      1.44561948993264
  H   -0.21819820734245      1.25014704154362     -0.92546006610088
  C   1.01563288583273     -1.26098005819549     -0.72645157478884
  H   1.28470336573120     -0.73678508652302     -1.64287713394983
  H   0.22897633093896     -1.98747139836882     -0.92890271922021
  H   1.88860758113381     -1.79801843905674     -0.35014355159585
  N   1.73385282410664      0.58683095205366      0.71285670310587
  O   2.18750257358112      0.48359735272310      1.84199340413962
  O   2.14012211510536      1.31821933191784     -0.18617338379129
  C   -0.90032213646390      1.55258615481113      1.01488836810116
  N   -1.17209973065157      2.27413816901833      1.90018226636693
  C   -1.84381592742025     -0.12812576678615     -0.51755569837178
  H   -2.65713960657982      0.56986773587970     -0.71951825024691
  H   -1.65579864117092     -0.70015976711270     -1.42691197640374
  H   -2.16055092642645     -0.80596009703670      0.27591938533582
