17
Coordinates from ORCA-job run
  C   0.52571654786190     -0.52563735807852      0.00284728829952
  C   -0.80178672959247      0.18726072031636     -0.30555476210174
  F   0.24288731229398     -1.80620111081310      0.41231120534336
  H   -1.09828990037946     -0.21340272453080     -1.28293421067534
  C   1.46773274451960     -0.56854986226928     -1.16885070717166
  H   0.96898371050380     -1.07989619591769     -1.99390408744479
  H   2.36979140752469     -1.11390589660474     -0.89994626695728
  H   1.74502467863856      0.43914163645267     -1.48020741062722
  N   1.22083381410377      0.11397130873441      1.20883432902543
  O   2.44709174835177      0.14725188928761      1.20050210983662
  O   0.49727014178696      0.49089436928313      2.12535404028943
  C   -0.53908254243892      1.61440144478092     -0.49567364307645
  N   -0.32388239251571      2.75867315189808     -0.64733640580802
  C   -1.96343147306334     -0.06120968861785      0.66421012545797
  H   -1.80466117405506      0.43711100559060      1.61558108241741
  H   -2.88297309184620      0.31415479963208      0.21135421929915
  H   -2.07322480169386     -1.13205748914387      0.83441309389360
