17
Coordinates from ORCA-job run
  C   0.47368715192000     -0.61130664065022     -0.06399165705745
  C   -0.82166389258744      0.14287629172259     -0.39638785241234
  F   0.13763910041868     -1.92411481537646      0.09560136502797
  H   -1.25523826809596     -0.42561431407030     -1.22842950928736
  C   1.58823404474976     -0.48794326925676     -1.06851933088871
  H   2.42345143572080     -1.11631118824702     -0.75334102167595
  H   1.23190248882835     -0.83903062411904     -2.03890858164896
  H   1.92014298736542      0.54499827732673     -1.15433165809288
  N   0.96629558293976     -0.11832162632163      1.28876865453202
  O   0.92259234046394     -0.88877200100343      2.23745606638844
  O   1.34587672525055      1.04888800934023      1.30172808992660
  C   -0.56166022784138      1.49669982277168     -0.88364566682817
  N   -0.39955956520975      2.58521416890979     -1.29256290616549
  C   -1.80863574751111      0.14662554576958      0.77567373777478
  H   -1.93768805045531     -0.86766876657033      1.15555580461576
  H   -2.77636899551629      0.52467695610615      0.44396930812704
  H   -1.45000711044001      0.78810417366845      1.58236515766469
