17
Coordinates from ORCA-job run
  C   0.45907068793450     -0.71454848680599     -0.15236668198876
  C   -0.97036525950503     -0.16144876234674     -0.10236703156643
  F   0.40738107225880     -1.95910331590999     -0.71754873450871
  H   -1.57907248067363     -0.97325177505495      0.31188146418374
  C   1.48773260600326      0.11515607782437     -0.86645855708891
  H   1.57236326855874      1.11144825671692     -0.43867855971450
  H   1.20249002481332      0.18795768520109     -1.91670490109970
  H   2.45786684887609     -0.37684021007566     -0.79503838035717
  N   0.84883891992731     -0.93959021459266      1.30630775205815
  O   1.67013456341518     -0.17286570602674      1.80066564027982
  O   0.25478271820662     -1.84349211641758      1.88307787842148
  C   -1.42113454996335      0.09341809293465     -1.47054535717311
  N   -1.77623959278086      0.33302703777461     -2.56377300188761
  C   -1.11753723228573      1.09082832580098      0.76723190909409
  H   -2.15155916441075      1.43605948512674      0.73557343356640
  H   -0.86591163782211      0.87153516988258      1.80577539785653
  H   -0.47784079255237      1.89971045596838      0.41196772992469
