17
Coordinates from ORCA-job run
  C   0.50898479683067     -0.66961628724964     -0.19113874427726
  C   -0.95011071748149     -0.19774915150465     -0.19184766919287
  F   0.56999178009060     -1.84621545608777     -0.88623738659887
  H   -1.53814021561921     -1.07836776455330      0.09050473290781
  C   1.53447901506868      0.28437346950117     -0.73356062313277
  H   1.52593458348729      1.23322768160721     -0.20166155659797
  H   2.52580366155045     -0.15884645465792     -0.63633927261521
  H   1.32178185066264      0.45247813615706     -1.79025175284930
  N   0.80841907981885     -1.03317805507138      1.26112018374126
  O   1.55457229166071     -0.29078726686622      1.89243021638508
  O   0.22440339800425     -2.02038141220048      1.69343796926950
  C   -1.31853191184208      0.17958695109788     -1.55619398953298
  N   -1.60869859044502      0.51631436712205     -2.64288281222525
  C   -1.22914597481317      0.94451798708325      0.78986521313137
  H   -1.03328520899538      0.62859328845467      1.81535974491012
  H   -0.61843498581268      1.82019103988980      0.56682735832162
  H   -2.27802285216512      1.23485892727827      0.72056838835571
