17
Coordinates from ORCA-job run
  C   0.40571535525022     -0.75068659011797     -0.12419572048627
  C   -0.98253430911319     -0.10328199673226     -0.05154334601682
  F   0.25074493175343     -2.02136580159557     -0.60664481743129
  H   -1.62148058228243     -0.84559249244480      0.43999215809924
  C   1.45114260164177     -0.03485005380580     -0.93089310482474
  H   1.61453785420990      0.97913341150654     -0.57277076076225
  H   2.39213205539624     -0.58153771312448     -0.86650524782831
  H   1.12474394655662     -0.01001213380633     -1.97143898965817
  N   0.84571164248079     -0.91224009973803      1.32844290088635
  O   0.21872608493562     -1.73530778704201      1.98584495019502
  O   1.74041945315201     -0.17838559188649      1.73788357989626
  C   -1.47687539789582      0.09439338519546     -1.41410542294538
  N   -1.86306094117909      0.28734015955798     -2.50603193881948
  C   -1.01144232301663      1.20775222792856      0.74005593767110
  H   -0.72523962181078      1.03763839719616      1.77883272868775
  H   -0.34139257287701      1.95046026468093      0.30541498614398
  H   -2.02284817720164      1.61554241422811      0.73066210719304
