17
Coordinates from ORCA-job run
  C   0.58690023964530     -0.31296523890124      0.21693771191521
  C   -0.63296972457024      0.60441232417902      0.09096409459248
  F   0.34823477882382     -1.24632057701572      1.17747780323754
  H   -0.36670068577168      1.40064453218231     -0.61013532225191
  C   1.02353782076365     -0.99443828416399     -1.05626237965318
  H   1.95214383367491     -1.53636705166315     -0.86668509810896
  H   0.26491960507981     -1.71395013417928     -1.36340510202531
  H   1.18906734783524     -0.26531073673659     -1.84862554199546
  N   1.74992106918818      0.54585012516910      0.70476831936361
  O   2.29894212127641      0.23556497656735      1.75062690275943
  O   2.03896805799467      1.48188748102444     -0.03584716167899
  C   -0.90012930120159      1.22504287376794      1.39193595457766
  N   -1.13739492519439      1.71283787426842      2.43306746882332
  C   -1.87076621127356     -0.14984223069392     -0.40481409573320
  H   -1.72698353176062     -0.49835847919248     -1.42820656455596
  H   -2.73629369820908      0.51361764168256     -0.39240191306400
  H   -2.08139679630085     -1.00330509629475      0.24060492379773
