17
Coordinates from ORCA-job run
  C   0.54595441406146     -0.64481745581491     -0.17375082727259
  C   -0.92742811238511     -0.22834714783090     -0.25887560783108
  F   0.69742683848089     -1.79810682780170     -0.89367380350533
  H   -1.49747087035002     -1.13787253552302     -0.03843090497845
  C   1.56693568458139      0.36133942384718     -0.62212117745799
  H   1.41209093324477      0.55843775395506     -1.68366138878709
  H   1.49293352435276      1.29019562188260     -0.06121591682516
  H   2.56569904121801     -0.05143643250875     -0.47924294081081
  N   0.76423128749442     -1.03810826889470      1.28513543347828
  O   0.19146176808802     -2.05768070146677      1.65271987243519
  O   1.43734791507789     -0.28607391901517      1.98364439930593
  C   -1.21912381322765      0.17328429333800     -1.63495664894664
  N   -1.44785718185168      0.53272367321568     -2.72909810084879
  C   -1.31482001343189      0.87602321808055      0.72939331823485
  H   -1.17635754433909      0.53951065867007      1.75778475234637
  H   -0.72411476665507      1.77883908911234      0.56970196088157
  H   -2.36690910435910      1.13008955675445      0.59564758058173
