14

C	-0.590124	0.017423	-1.404491
C	0.0	0.0	0.0
F	-0.376173	1.287205	-1.929907
H	1.09808	0.0	0.0
H	-1.67064	-0.133917	-1.345352
C	-0.005012	-0.966476	-2.322493
N	0.427095	-1.748247	-3.082382
N	-0.442958	-1.243466	0.69772
O	-0.29659	-1.266483	1.914778
O	-0.906768	-2.163324	0.02149
N	-0.557298	1.12191	0.744339
H	-0.109784	1.100792	1.654641
H	-0.216645	1.956453	0.280167
Cl	3.257431	0.0	0.0
