14

C	-0.47664	-0.011191	-1.442488
C	0.0	0.0	0.0
F	-1.874712	-0.095639	-1.466073
H	1.091564	0.0	0.0
H	-0.078715	-0.875251	-1.974013
C	-0.106221	1.23404	-2.125495
N	0.13966	2.220382	-2.711991
N	-0.436869	-1.353414	0.562932
O	-1.069724	-1.391359	1.61041
O	-0.10729	-2.334201	-0.103803
N	-0.482845	1.066837	0.789732
H	-1.357864	1.458583	0.481077
H	0.228344	1.764579	0.934378
Cl	3.238915	0.0	0.0
