14

C	-0.526824	-0.030119	-1.4175
C	0.0	0.0	0.0
F	-1.919179	-0.157084	-1.386386
H	1.092682	0.0	0.0
H	-0.126232	-0.890407	-1.952945
C	-0.205211	1.21045	-2.131955
N	-0.005223	2.174672	-2.769782
N	-0.386143	-1.356561	0.606134
O	-0.888968	-1.35797	1.727709
O	-0.148564	-2.358816	-0.061135
N	-0.497494	1.104417	0.730849
H	0.081721	1.270693	1.541247
H	-1.453526	0.958447	1.023703
Cl	3.238289	0.0	0.0
