14

C	-0.483591	0.000436	-1.439458
C	0.0	0.0	0.0
F	-1.882336	-0.065981	-1.456203
H	1.091815	0.0	0.0
H	-0.100287	-0.864096	-1.97895
C	-0.102525	1.247781	-2.11291
N	0.130457	2.250165	-2.676293
N	-0.421693	-1.359857	0.564335
O	-0.167925	-2.33208	-0.146976
O	-0.950955	-1.410695	1.665999
N	-0.483877	1.060378	0.797701
H	0.228991	1.755476	0.953796
H	-1.352816	1.461203	0.479793
Cl	3.237411	0.0	0.0
