14

C	-0.515264	0.067952	-1.432174
C	0.0	0.0	0.0
F	-0.003893	-0.889548	-2.269316
H	1.093489	0.0	0.0
H	-0.199118	1.045377	-1.801519
C	-1.99052	0.010451	-1.45721
N	-3.164028	-3.7e-05	-1.442862
N	-0.438676	-1.284236	0.677286
O	-0.647016	-2.269222	-0.026667
O	-0.532326	-1.257683	1.903174
N	-0.446586	1.163811	0.697634
H	0.20136	1.371817	1.445283
H	-1.370136	1.03346	1.091814
Cl	3.244256	0.0	0.0
