12
Coordinates from ORCA-job run
  C   -0.42547604877064      0.03539580131766     -0.02703636470025
  C   0.91632003509661     -0.12489473897701     -0.05738708137455
  N   -1.15658979535465      1.03892203582697     -0.80170334577131
  O   -0.69350446770796      1.34539053843586     -1.89414908059594
  O   -2.14894163643804      1.49691454215920     -0.24248593531210
  N   -1.28662403424470     -0.75961933334673      0.84345973719769
  O   -2.10585539321772     -1.45025959172560      0.24757233346420
  O   -1.12296834491296     -0.63635986356875      2.05099301215862
  C   1.54929146128494     -1.06440207753320      0.81963084804696
  N   2.16221045479127     -1.81350384502128      1.48928517076351
  C   1.77736799802530      0.65073501234937     -0.89151430803380
  N   2.53476977144855      1.28168152008350     -1.53566498584302
