12
Coordinates from ORCA-job run
  C   -0.41331098110208      0.07973119497180      0.03479678965672
  C   0.87485670139106     -0.30159646312805     -0.11826110712712
  N   -0.75412693409841      1.42920307891471      0.47892199679837
  O   -0.94482435690823      2.24509866545386     -0.41522726909059
  O   -0.82521183275777      1.58660240918198      1.69201371965760
  N   -1.59213712729511     -0.76282844690598     -0.20964417148399
  O   -2.67367695405392     -0.22942476295905      0.01560622262272
  O   -1.38168834865423     -1.90071033212838     -0.60627303311198
  C   1.90548129923191      0.64918824665043      0.17008686372619
  N   2.75884051503781      1.42699042246511      0.40474085073791
  C   1.29501380713740     -1.59659038421373     -0.55058982357463
  N   1.75178421207158     -2.62566362830270     -0.89717103881122
