12
Coordinates from ORCA-job run
  C   -0.40743901138765      0.07437699708573      0.08307674053610
  C   0.89518598501707     -0.25079073873398     -0.07680756348803
  N   -1.30943344734302     -0.47533964965942      1.10461450202554
  O   -2.46464571231470     -0.06493387395480      1.05972245292233
  O   -0.82633649321295     -1.28072940460006      1.88839665531887
  N   -1.05634618728247      1.04759919317942     -0.79209312503450
  O   -1.04068096614067      2.20627293308932     -0.39360217350747
  O   -1.55452632536328      0.59238221299459     -1.81492882741913
  C   1.60658159653852     -1.18684241464345      0.73449375506968
  N   2.28749283383526     -1.93553350370506      1.33747190479186
  C   1.62989214871805      0.37900165750664     -1.13173427080035
  N   2.24125557893585      0.89353659144107     -1.99761005041490
