12
Coordinates from ORCA-job run
  C   -0.40106720197356      0.09577436950356      0.09627065408671
  C   0.88027845973331     -0.28917988131490     -0.09925746928005
  N   -1.26493513368962     -0.33260843041494      1.20492719560995
  O   -2.38515313280821      0.16759493878226      1.21975445213613
  O   -0.78801606165731     -1.13473080311162      1.99568952720255
  N   -1.06159165219115      1.01846938811209     -0.82361404025677
  O   -0.92626992396617      2.20956645663059     -0.57010179739243
  O   -1.68747332832405      0.49187998670609     -1.73608364966900
  C   1.58159055072480      0.22998404616853     -1.23444654623025
  N   2.16718365310782      0.65039728813089     -2.16640760551895
  C   1.59920742912812     -1.18853008774183      0.74596373869882
  N   2.28424634191604     -1.91661727145074      1.36930554061330
