12
Coordinates from ORCA-job run
  C   -0.41695011876578      0.05510291593086      0.01289045516692
  C   0.92192605911323     -0.12052285447224     -0.02853926634764
  N   -1.13239841670567      1.00435058678105     -0.84057889530100
  O   -1.93845296667047      1.70947284561377     -0.24220065690880
  O   -0.85429685707799      1.01000015707839     -2.03309181241523
  N   -1.29892581895266     -0.68476650421436      0.91645982609444
  O   -0.95765745442395     -0.77263782830842      2.08925437868844
  O   -2.29540424170601     -1.15270731230875      0.37529354417132
  C   1.58551900676149     -1.02781705410851      0.85487063235497
  N   2.18178772291346     -1.76823510721352      1.55055507080861
  C   1.74152164143992      0.59217141152934     -0.95825476435601
  N   2.46433144407443      1.15658874369241     -1.69765851195600
