12
Coordinates from ORCA-job run
  C   -0.60261628115761      0.19384554377622      0.02948199818715
  C   0.65406663584632     -0.61167988368454      0.04802698087861
  N   -0.93696752718488      1.57154295380806     -0.18871057669373
  O   0.03311174007949      2.29535763296848     -0.39649504024337
  O   -2.12535930532909      1.87336234787767     -0.14491643536873
  N   -1.44369985399921     -0.79477109691793      0.28232936560453
  O   -2.55688927597139     -1.11715597408291      0.44618468498911
  O   -0.06612370948806     -1.81688842324803      0.33464081181874
  C   1.57012581207587     -0.24499214252793      1.13141227569156
  N   2.29296479500547      0.04592765805252      2.01173080906594
  C   1.32913797882636     -0.66953239725350     -1.25188196171987
  N   1.85324899129672     -0.72501621876811     -2.30280291220993
