12
Coordinates from ORCA-job run
  C   -0.41104895483551      0.09490654387293     -0.03007389247012
  C   0.92417450236379     -0.11860761637737     -0.03727993194123
  N   -1.13456643162658      1.03467679780583     -0.89743914913971
  O   -0.46423068983017      1.66972212489559     -1.69967274654577
  O   -2.34729656024838      1.08509957575135     -0.71972168988213
  N   -1.28590830585674     -0.62768263013640      0.89019387321002
  O   -1.77226536453878     -1.66271411097896      0.45008669709580
  O   -1.44451815428821     -0.10971814739848      1.98925938212817
  C   1.84895801091336      0.53803653194250     -0.90559649900721
  N   2.69737704559971      1.01636965942628     -1.56826675184516
  C   1.46703818573739     -1.06971285626268      0.88486815560465
  N   1.92128671661014     -1.84937587254058      1.64264255279268
