12
Coordinates from ORCA-job run
  C   -0.60929835983428      0.17531415660632      0.01263925295345
  C   0.66779546486970     -0.59695072911289      0.02710941946731
  N   -1.43097052004889     -0.84604285689649      0.18621036598035
  O   -2.53948258992501     -1.20471244998274      0.29837304678801
  O   -0.02728563300441     -1.83599742712337      0.21570469346842
  N   -0.97139275061694      1.55689538075072     -0.12227705638205
  O   -0.01590828724402      2.31173665849202     -0.28036885405461
  O   -2.16582560585066      1.83114194417464     -0.06692834032690
  C   1.53383095030765     -0.27253620481910      1.16429562750544
  N   2.21236648047104     -0.01894683015995      2.09027270260776
  C   1.39036496335005     -0.55998241520025     -1.24745549748252
  N   1.95480588752578     -0.53991922672892     -2.27857536052467
