12
Coordinates from ORCA-job run
  C   -0.40573807681718      0.09721459850417      0.06345220110468
  C   0.92513229072892     -0.10458695580652     -0.06440357644773
  N   -1.37084181478230     -0.83285495658502     -0.51759851235120
  O   -1.71046208391389     -0.59313077642367     -1.67030452856045
  O   -1.74182415851438     -1.73717426442814      0.22144849763984
  N   -1.03895093890825      1.22291022315645      0.76426731277682
  O   -0.29040992023015      2.02653920489284      1.30290075106439
  O   -2.26533448852023      1.23723615832348      0.73212396730055
  C   1.37305649698314     -1.25557572581037     -0.78836504094530
  N   1.74973085572418     -2.20051360294489     -1.38292420614550
  C   1.93354097293325      0.75338375212629      0.47152053627630
  N   2.84310086531689      1.38855234499539      0.86788259828761
