12
Coordinates from ORCA-job run
  C   -0.40409225805636      0.10108857064184      0.05672048034860
  C   0.89383146283997     -0.22753802325950     -0.12305379251335
  N   -0.83944892497085      1.37127782059213      0.63843011882039
  O   -0.32039981721769      2.39416746552080      0.20967687513096
  O   -1.68594602004871      1.25677208436246      1.51890299935508
  N   -1.51691513975340     -0.77516772904509     -0.31113845890089
  O   -2.41374555323714     -0.21517912211598     -0.93325879737494
  O   -1.43893080121074     -1.95213602105533      0.01776466365943
  C   1.94731492984199      0.67903670746071      0.21227173712825
  N   2.85166505838295      1.38330466665919      0.48408813583398
  C   1.27858240564790     -1.49642979222765     -0.65771642812830
  N   1.64708465778208     -2.51819662753358     -1.11368753335922
