12
Coordinates from ORCA-job run
  C   -0.40920131687602      0.09482998252810      0.02929427853564
  C   0.90349266321531     -0.20648709589455     -0.07648194589635
  N   -1.09405781309831      1.04891705141877     -0.84422632857442
  O   -1.83262131238268      1.83116846593448     -0.25442365595028
  O   -0.85704992586925      0.98457868485148     -2.04371705574499
  N   -1.28954026132164     -0.49961941870206      1.03513868661984
  O   -0.90020964639154     -0.49817077920105      2.19612907697933
  O   -2.33644105444924     -0.95068032399591      0.58178959298765
  C   1.53287369973983     -1.11343850786515      0.83232245838956
  N   2.09324308007788     -1.86727530602195      1.54326525538057
  C   1.72807608449330      0.36238971345802     -1.09639124576640
  N   2.46043580286234      0.81278753348981     -1.90169911696015
