12
Coordinates from ORCA-job run
  C   -0.40864493799769      0.09763047246057      0.03715243266821
  C   0.90166910066332     -0.20434168790998     -0.09365197929516
  N   -1.30694507466102     -0.61492045877506      0.94631078297025
  O   -1.32446350448860     -1.83699672934770      0.87309591753511
  O   -1.94474718598420      0.11495094025588      1.69776790775256
  N   -1.07397828408696      1.16458857201784     -0.71474857277653
  O   -2.18144073286799      0.86305139825764     -1.14689961835972
  O   -0.46530788905084      2.21748154887097     -0.85227541564994
  C   1.76493455451798      0.53134112094798     -0.96447767095484
  N   2.52671190040616      1.08861039188882     -1.66920141956247
  C   1.49018803599089     -1.27922519090377      0.64272273703419
  N   2.02202401755894     -2.14117037776319      1.24420489863832
