12
Coordinates from ORCA-job run
  C   -0.41490593095818      0.05542252025223      0.03939233158927
  C   0.89442233650003     -0.22779068499695     -0.15223556163076
  N   -0.84175037583369      1.34084615694727      0.58889704303651
  O   -0.77162003710708      1.46308845182539      1.80591888813881
  O   -1.23385266382122      2.14765710849227     -0.24764192703844
  N   -1.53428479447951     -0.85240873574819     -0.24207007455373
  O   -1.29037335340698     -1.83375316804987     -0.93020881712631
  O   -2.60521436906203     -0.53209642975581      0.26427059906532
  C   1.86829062502113      0.76074778962564      0.19963428505294
  N   2.67481447875705      1.56909698442057      0.48854185920693
  C   1.38286040234202     -1.45373782191879     -0.69578471320495
  N   1.87161368204844     -2.43807217109378     -1.11971391253559
