12
Coordinates from ORCA-job run
  C   -0.40132085349561      0.07157355393532      0.08613125139071
  C   0.90227479659226     -0.23303074480683     -0.10595356386793
  N   -1.26724826651297     -0.50052209365037      1.12609973504246
  O   -2.47066297316004     -0.34868602659856      0.94220510104918
  O   -0.71224726990454     -1.07448130986355      2.05323490237514
  N   -1.09461038869886      1.03576836561765     -0.76640006433467
  O   -1.21815546875026      2.15380496167418     -0.27840253652270
  O   -1.48642401494358      0.62064330276484     -1.84945307781440
  C   1.63614221549036     -1.15307555884306      0.70315042249686
  N   2.30388483127218     -1.90771352985396      1.31147678643090
  C   1.60758746699589      0.40169056240912     -1.17715888798744
  N   2.20177992511517      0.93402851721522     -2.04393006825811
