12
Coordinates from ORCA-job run
  C   -0.41214376250991      0.03935406073848      0.07258973296378
  C   0.90861254382245     -0.19973552945354     -0.09023950733334
  N   -1.14594259782402      0.90504256410304     -0.84891570505108
  O   -0.97081275636242      2.11084335207061     -0.72530662126534
  O   -1.85636267834295      0.31158605321625     -1.65450923422088
  N   -1.24007267602754     -0.48582154596279      1.15998621024243
  O   -0.84000296919886     -1.49682683141742      1.72469018723206
  O   -2.24932977348771      0.16697272115837      1.40101724957177
  C   1.58769460748189      0.41344591170170     -1.19094051619418
  N   2.14064862182980      0.92592284144094     -2.09616379122863
  C   1.68367495104934     -1.02389386805103      0.78207567839141
  N   2.39403648956992     -1.66688972954462      1.46571631689199
