12
Coordinates from ORCA-job run
  C   -0.41284284221230      0.09054830888641      0.01887314084351
  C   0.90290148977737     -0.20073644191638     -0.07066099638197
  N   -1.07515149438525      1.11231429350472     -0.79093649044469
  O   -0.51597932415329      2.19837439847717     -0.88979208760259
  O   -2.13594979224731      0.75392890096102     -1.29232320863515
  N   -1.31662838925856     -0.58810271719719      0.95076961080725
  O   -1.28932200870752     -1.81080062165488      0.97250722732160
  O   -1.99061401228279      0.17475323831802      1.63455190162404
  C   1.48921296307473     -1.23129568482415      0.72950464095107
  N   2.03571968597164     -2.06403956721021      1.35819622002638
  C   1.77477578699217      0.50637732762677     -0.95347677640577
  N   2.53387793743111      1.05667856502869     -1.66721318210368
