12
Coordinates from ORCA-job run
  C   -0.41530470702655      0.06818574304137      0.03710179749017
  C   0.91238185209827     -0.16029460588861     -0.05842147134382
  N   -1.26965970706646     -0.50937879667990      1.07406579226001
  O   -2.35269997934373     -0.91824374298683      0.66752021436422
  O   -0.82350162274054     -0.54504484075187      2.21380425098711
  N   -1.14636520924412      0.92567849764790     -0.89898507691847
  O   -1.00523701806953      0.69927926374499     -2.09382702766154
  O   -1.82591717754962      1.79283609210282     -0.36024960346607
  C   1.68734637864035      0.40482241204528     -1.11856618112104
  N   2.37084257263973      0.85702440324317     -1.96473374930134
  C   1.61570191170174     -0.97038758444305      0.88716359595013
  N   2.25241270596047     -1.64247684107526      1.61512745876063
