12
Coordinates from ORCA-job run
  C   -0.41247568737327      0.08644054223500      0.03089660320322
  C   0.90916157329850     -0.17054370386690     -0.07824573151782
  N   -1.29207767543982     -0.62950284250639      0.95690032225954
  O   -1.27156045660523     -1.85324938709241      0.91500968340347
  O   -1.95440622663006      0.09956335117858      1.68736081249414
  N   -1.11172609246682      1.10095313469922     -0.76178542273322
  O   -2.21084428722532      0.74831429459780     -1.17744796384532
  O   -0.53756573619680      2.16670421917426     -0.94201520897455
  C   1.75699190878274      0.56551647941683     -0.96351580367411
  N   2.50972999392624      1.11593709693224     -1.68291310719226
  C   1.52860164527882     -1.20095060939129      0.69528416427649
  N   2.08617104065102     -2.02918257537694      1.32047165230043
