12
Coordinates from ORCA-job run
  C   -0.41320817340952      0.07052144197523      0.06293078960466
  C   0.90853667396770     -0.18325076558185     -0.03793722668021
  N   -1.08082328177332      1.06547885063407     -0.76921494223704
  O   -1.45003835371354      2.06353042973169     -0.15954135994119
  O   -1.20510405956145      0.80393778407060     -1.95788690446311
  N   -1.33611789658772     -0.66125072095806      0.93837809091918
  O   -2.47777027114650     -0.76612383502517      0.50471859769665
  O   -0.88045010823580     -1.09616027994721      1.98810031426383
  C   1.69804065071343      0.55266559996482     -0.97510122279452
  N   2.35348393896663      1.17970991847098     -1.72604913022191
  C   1.59650725154692     -1.14121621604619      0.76689467868119
  N   2.28494362923317     -1.88784220728892      1.36470831517247
