12
Coordinates from ORCA-job run
  C   -0.41284763964350      0.08159134966399     -0.00077619947376
  C   0.91343908889842     -0.17534663276747     -0.01089030970179
  N   -1.05451494789362      1.06217474024537     -0.87765110478296
  O   -0.71567981567750      1.07212399078779     -2.05418035027281
  O   -1.86735803753321      1.78717383720360     -0.31285152824888
  N   -1.35292566182246     -0.59127121389056      0.89593310129155
  O   -1.06379901797629     -0.63617343393841      2.08496059406653
  O   -2.33983564657599     -1.05332506579310      0.33229306172309
  C   1.80049532030077      0.47058265024716     -0.92712987533233
  N   2.58252682877057      0.98391164423650     -1.64317847312628
  C   1.49373365511691     -1.11295300059041      0.89936159087311
  N   2.01576587403591     -1.88848886540445      1.61610949298453
