12
Coordinates from ORCA-job run
  C   -0.39250151944274      0.09145204639543      0.08707318309682
  C   0.89139567927803     -0.27049760783897     -0.12896324028805
  N   -1.26782794463372     -0.48821819767147      1.10831632454446
  O   -2.45810000268495     -0.51309277968092      0.80982229585732
  O   -0.73648740338659     -0.89303145624273      2.13427967110154
  N   -1.05454036526932      1.11419658030373     -0.72281634554558
  O   -1.24072791296151      2.17022043875683     -0.12583546917690
  O   -1.35453463783909      0.81541585724880     -1.86983299793297
  C   1.57501676469587     -1.23701812406866      0.67194932121153
  N   2.19710841361835     -2.03694184403750      1.27134373901277
  C   1.62541680285624      0.35111152242627     -1.18694033031632
  N   2.21678212576944      0.89740356440920     -2.04739615156461
