12
Coordinates from ORCA-job run
  C   -0.39673917039735      0.11445787073674      0.07307984859537
  C   0.88159750415843     -0.26128412208743     -0.14860110110317
  N   -1.06426349217914      1.16852716585515     -0.69081947007351
  O   -1.01458600252392      1.10442955594065     -1.91184105235783
  O   -1.58985612519723      2.02833402117667      0.00876032628243
  N   -1.25505749628385     -0.48699763806030      1.09453891737805
  O   -0.77494919069584     -0.65172220458672      2.20987383152633
  O   -2.38144246746903     -0.77153122713190      0.70115446978668
  C   1.52225563426186     -1.25657295082081      0.65541786513467
  N   2.09579655700491     -2.08561082654539      1.26469685050799
  C   1.65063437156826      0.31766580525256     -1.20444304589356
  N   2.32660987775293      0.78030455027078     -2.05081743978344
