12
Coordinates from ORCA-job run
  C   -0.40851167938194      0.09618579997423      0.02732397065601
  C   0.90536960710522     -0.20383325846391     -0.06084792273829
  N   -1.06321982642023      1.11740256264845     -0.79195082595814
  O   -2.11654233263158      0.75113910611624     -1.30306627411665
  O   -0.50656668382780      2.20411108872141     -0.89160065565352
  N   -1.32438424071036     -0.57464690543302      0.94885419126997
  O   -1.99623577622533      0.19451043755777      1.62811435951402
  O   -1.31768689952219     -1.79847214751369      0.96438952659902
  C   1.48289495590532     -1.25358438694628      0.71784472892325
  N   2.01577267227704     -2.08760430970208      1.35638439613553
  C   1.78069507749422      0.51015867866113     -0.93871531778762
  N   2.54741512593764      1.04463333437974     -1.65573017684359
