12
Coordinates from ORCA-job run
  C   -0.41686329324602      0.05774426706212      0.00888827206638
  C   0.92079850565658     -0.12815953022588     -0.02310022301236
  N   -1.37982406562001     -0.92467684118688     -0.48997258417034
  O   -2.31289898826975     -1.14768516145504      0.27469563282129
  O   -1.15812938297096     -1.42368621320970     -1.58602817491178
  N   -1.04976622849674      1.26211996327030      0.54732540285245
  O   -0.65280106336656      1.67063504538171      1.63134747279766
  O   -1.91619611636328      1.74080108517909     -0.17733119534146
  C   1.50040724982430     -1.30307769596794     -0.59535255937448
  N   2.02946244030557     -2.25957235673544     -1.03471267259495
  C   1.82311912072431      0.84111722641430      0.51624393602185
  N   2.61069182182256      1.61544021147336      0.92599669284574
