12
Coordinates from ORCA-job run
  C   -0.40891685011308      0.09405747908822      0.03607435437156
  C   0.90464164615289     -0.20142488251165     -0.07568682208870
  N   -1.31519633999717     -0.60056434701679      0.95134315749637
  O   -1.26482739957712     -1.82387754358469      0.97297718695641
  O   -2.02848552844537      0.14494889124737      1.61510449564658
  N   -1.07018191679398      1.13790010444235     -0.74790251980914
  O   -0.50614521180788      2.22156710943022     -0.83163498178475
  O   -2.13354059187957      0.79108751420825     -1.25201661584500
  C   1.76485642731025      0.52795795512765     -0.95440430013169
  N   2.51318300806017      1.08138533470335     -1.67654389270839
  C   1.49950064629644     -1.26098417149755      0.67778006397854
  N   2.04411211079442     -2.11105344363673      1.28490987391822
