12
Coordinates from ORCA-job run
  C   -0.39432272793667      0.12644190041795      0.08653638554527
  C   0.86502866810858     -0.28162650174001     -0.17721574797262
  N   -1.02062128953472      1.26972579544527     -0.57952008226383
  O   -1.57729072205837      2.05158227749569      0.18629180248892
  O   -0.91465323335713      1.34514735001126     -1.79626731178450
  N   -1.27080821128345     -0.53168608598351      1.05770382210166
  O   -0.77319246611937     -0.86943657181219      2.12461744555079
  O   -2.42797609477830     -0.67897192060746      0.67634090349081
  C   1.47105478212544     -1.36669961928878      0.53028595146807
  N   2.01780406900280     -2.26587876321467      1.05890826725064
  C   1.66208486834660      0.35747629547086     -1.17723422461032
  N   2.36289235748455      0.84592584380559     -1.98844721126489
