12
Coordinates from ORCA-job run
  C   -0.38664497140223      0.11166293204366      0.07874470912768
  C   0.88033529152108     -0.29310328949944     -0.15042264915124
  N   -1.01660479623438      1.20530809957093     -0.66298019487844
  O   -1.01028974252585      1.12130057806114     -1.88719169157386
  O   -1.48828467613465      2.09968096265617      0.03047247971362
  N   -1.27534830835468     -0.50170583764701      1.06537970042402
  O   -2.44395867695499     -0.58617666772018      0.70800396455377
  O   -0.77476760094226     -0.87715726186011      2.11620667966598
  C   1.48356543939640     -1.36480395478264      0.57535859216180
  N   1.99875524524011     -2.25364385630079      1.15931164902119
  C   1.67526319848616      0.38072705684791     -1.13369633055831
  N   2.35797959790528      0.95891123863035     -1.89918690850622
