12
Coordinates from ORCA-job run
  C   -0.41196927217252      0.08547334740923      0.02923711200317
  C   0.91313391088072     -0.16197446240758     -0.06079461991583
  N   -1.29607332622265     -0.62044972571824      0.95522403691163
  O   -1.23761538365729     -1.84372166415880      0.97227924937964
  O   -2.00369839821676      0.11918967749249      1.63215389304157
  N   -1.10969116702454      1.07351746638138     -0.79379571379863
  O   -2.17230989915905      0.67828803072972     -1.26242517245728
  O   -0.56966873677799      2.16209967149860     -0.94564425227605
  C   1.76128047018324      0.56915527815909     -0.94893659781967
  N   2.50727432839490      1.12142903564901     -1.67455864512882
  C   1.53032347822829     -1.18137843553550      0.73002539188145
  N   2.08801399554366     -2.00062821949940      1.36723531817884
