12
Coordinates from ORCA-job run
  C   -0.41758969521200      0.07645791875774     -0.01086591116382
  C   0.91672720692767     -0.13378291507712     -0.01592342866208
  N   -1.08495116015363      1.04369976029270     -0.89304372343769
  O   -0.54052435737508      2.13784937415517     -0.99447167686447
  O   -2.11437059476848      0.65643532084155     -1.43199494656654
  N   -1.30411213362454     -0.65907241258821      0.89266917518309
  O   -2.02636382904732     -1.50881874689987      0.38578455690630
  O   -1.22711164441521     -0.32684006023169      2.07487276290297
  C   1.48467809739398     -1.08940452492471      0.88482302492917
  N   1.95877536440377     -1.88507608305461      1.61234398470047
  C   1.80066857398631      0.56470601041814     -0.89447709911050
  N   2.55217417188453      1.12284635831091     -1.60871671881690
