12
Coordinates from ORCA-job run
  C   -0.40162973270937      0.12507016330201      0.07316191722380
  C   0.87020340001951     -0.26868713333896     -0.15990929947762
  N   -1.08352134457301      1.15259288282102     -0.72086555299670
  O   -0.96017573135106      1.08507643346424     -1.93632829090883
  O   -1.68606018690156      1.98935740912563     -0.05758037865812
  N   -1.23207086475129     -0.43743217295702      1.14061113216794
  O   -0.70736835821461     -0.58722658351548      2.23730629320596
  O   -2.38235452695266     -0.69904011893888      0.80240838214252
  C   1.50635784865106     -1.25738841026511      0.65442710321085
  N   2.08592953655991     -2.07225073212501      1.27814251241987
  C   1.64588242352038      0.27547822330867     -1.22987614904614
  N   2.34480753670270      0.69245003911890     -2.08149766928352
