12
Coordinates from ORCA-job run
  C   -0.39515441348416      0.09849089819331      0.01708214332117
  C   0.91874760091012     -0.20558434371340     -0.07597153298036
  N   -1.07550240122406      1.11364195947832     -0.80638855409288
  O   -2.25988263715084      0.88181049305711     -1.03030648671780
  O   -0.41508830546054      2.07747124938657     -1.16897514699663
  N   -1.30976797360734     -0.59541627572836      0.91975159246951
  O   -1.82855404835838      0.12425548951817      1.76565624866548
  O   -1.46715831798878     -1.79559451105722      0.73116647984193
  C   1.47019829167593     -1.23578680926525      0.75180904738444
  N   1.96161032262366     -2.06741554145525      1.42528093043780
  C   1.81723547211719      0.50186163425617     -0.93333375350064
  N   2.58331640994720      1.10326575732982     -1.59477096783204
