12
Coordinates from ORCA-job run
  C   -0.38848752753928      0.10160165427641      0.06907764216478
  C   0.89447674272842     -0.27276743469681     -0.13636654245673
  N   -1.03878586398072      1.16317482083910     -0.69496329058916
  O   -1.40905655904619      2.11759083399032     -0.02110541943350
  O   -1.15393281998064      0.98346705182108     -1.90120272321017
  N   -1.29893077030005     -0.53802143090892      1.03617652819436
  O   -0.79757583258473     -1.02257518695654      2.04148874333465
  O   -2.48585599569293     -0.50006770426021      0.72539823697906
  C   1.53835885729039     -1.28706095076233      0.63749123742221
  N   2.10266400288614     -2.08826940452737      1.29019425275660
  C   1.67982640721308      0.40221070681207     -1.12427945960449
  N   2.35629935900649      0.94171704437319     -1.92290920555761
