12
Coordinates from ORCA-job run
  C   -0.41325499598903      0.07835943199303      0.01678452793400
  C   0.91281671100796     -0.17380334409337     -0.03787633668397
  N   -1.10583714073983      0.95879801244675     -0.92476408898397
  O   -0.86394749638440      0.81075504846199     -2.11600484577821
  O   -1.85681999460352      1.77090842959269     -0.39427343789011
  N   -1.30262335916065     -0.50161257090759      1.02387095868370
  O   -2.33763082163577     -0.97601291876693      0.56714210998804
  O   -0.93013751236331     -0.46859741348985      2.18992054943240
  C   1.55639130167971     -1.00756511219262      0.92894549309501
  N   2.13498817956909     -1.69546376093019      1.69036242014697
  C   1.73833835054637      0.38044160518198     -1.06515484923995
  N   2.46671677807338      0.82379259270412     -1.87795250070390
