12
Coordinates from ORCA-job run
  C   -0.41294203999548      0.08112526424981      0.01969814852174
  C   0.91141587405392     -0.17649164177360     -0.05029883468611
  N   -1.09397042257263      1.04452968775484     -0.84562552379666
  O   -2.13571107661383      0.62720727227627     -1.34126416838991
  O   -0.56450651221324      2.13826057981641     -0.99664563175918
  N   -1.31207349706929     -0.57752285664144      0.96903949602791
  O   -1.22474100751392     -1.79411474947139      1.07652956434410
  O   -2.05837447758856      0.18957103855617      1.56863051278228
  C   1.52606503987471     -1.16021987643106      0.78598380088505
  N   2.08090012664162     -1.95047809512858      1.46123776324704
  C   1.76561470493947      0.52249290119610     -0.95870112382014
  N   2.51832328805723      1.05764047559647     -1.68958400335613
