12
Coordinates from ORCA-job run
  C   -0.41587555167664      0.08336580224456      0.04796315469232
  C   0.89348594236084     -0.20950160808062     -0.09985526892831
  N   -1.25880781889827     -0.55478654333145      1.06623111735522
  O   -1.88948190154798      0.20252406288572      1.79452188228087
  O   -1.23699921713742     -1.78050610651770      1.08365157948786
  N   -1.09298989173743      1.06695473668069     -0.80061396567566
  O   -1.42569838106706      2.11543703424561     -0.26402394103734
  O   -1.25297685417776      0.72184466453647     -1.96870174042731
  C   1.67130272674040      0.45262654452044     -1.09942055993037
  N   2.32603492620278      0.99552984231287     -1.91471655156105
  C   1.54965207215630     -1.16515137346715      0.73529822941842
  N   2.13135394878223     -1.92733705602942      1.41966606432535
