12
Coordinates from ORCA-job run
  C   -0.40991110684610      0.06077199666466      0.02695006611021
  C   0.90338844549817     -0.24637089357351     -0.05371783669418
  N   -1.03097174022229      1.07600796450004     -0.82411959846046
  O   -1.90464677469715      0.64805269958757     -1.57040655074566
  O   -0.62374229157083      2.22588610327397     -0.70068064170571
  N   -1.35104309322251     -0.53785602763338      0.98006103664096
  O   -1.13510071417175     -1.69140201341988      1.32917176634374
  O   -2.25033663860339      0.20900280752881      1.35002407811960
  C   1.53191199877651     -1.22934630728593      0.77042281554418
  N   2.12593808661536     -1.99863939859456      1.43589856210530
  C   1.72935694777883      0.45825856490939     -0.98724185697988
  N   2.41715688066516      1.02363450404280     -1.75836184027809
