12
Coordinates from ORCA-job run
  C   -0.40572047735082      0.10900760850062      0.02392047791251
  C   0.89714668854277     -0.23948004749666     -0.05460603292885
  N   -0.86807671617630      1.37853917215361      0.58603115173694
  O   -1.69744769792705      1.96208861975888     -0.10419767019448
  O   -0.38462347321071      1.72982579259103      1.65494540118023
  N   -1.49798223502195     -0.74475248561638     -0.44468469324836
  O   -1.37854987411060     -1.25534341203338     -1.55125835747525
  O   -2.42288393398853     -0.86047258264732      0.35287874671139
  C   1.93027447637604      0.60724473284413      0.45500544273928
  N   2.82175807410928      1.26934019586451      0.84821200658922
  C   1.30677316156752     -1.47240252407228     -0.65126705869939
  N   1.69833200719034     -2.48159506984674     -1.11597941432324
