12
Coordinates from ORCA-job run
  C   -0.38785431258759      0.13593957755716      0.08244237441707
  C   0.87322981338250     -0.29594270925199     -0.13894995408648
  N   -1.27948807580265     -0.44198923013533      1.09741864277272
  O   -2.44157501577419     -0.57062550862310      0.73016276332839
  O   -0.78020783967376     -0.76209933646555      2.16729387093116
  N   -1.00053328479084      1.22487321904751     -0.67803839493940
  O   -1.45743460164176      2.13170632113196      0.00971692598070
  O   -1.00684475085012      1.11476545062787     -1.89914394871347
  C   1.66668297736139      0.28268559941700     -1.17802823663009
  N   2.34053721787343      0.74738684537540     -2.02441394562470
  C   1.46720634479935     -1.34391695078426      0.63064274777913
  N   2.00628152770423     -2.22278327789667      1.20089715478496
