12
Coordinates from ORCA-job run
  C   -0.40661307360054      0.09196877509001      0.03631336609126
  C   0.91540679751904     -0.16243062326279     -0.07655367073286
  N   -1.26160948393311     -0.55696177781313      1.03037769351996
  O   -1.26223571732816     -1.78298732948899      1.04852747852679
  O   -1.90279353690916      0.21633677320750      1.73372777543651
  N   -1.13024769812198      1.03731201922130     -0.82469310101097
  O   -2.23949892606297      0.65177330193693     -1.17432686998352
  O   -0.55451365804527      2.07324898030924     -1.12893412764200
  C   1.73890199225885      0.50136321142795     -1.03809727383307
  N   2.47285228678445      0.98198517619786     -1.82454379263673
  C   1.54454027433295     -1.13233966819860      0.76439520619343
  N   2.08581074310592     -1.91826883862729      1.45380731607120
