12
Coordinates from ORCA-job run
  C   -0.41858635681176      0.05334015327794     -0.03202543819332
  C   0.92324600002594     -0.10653597935612     -0.01445260813417
  N   -1.11334917584205      0.98981039404499     -0.92628404305096
  O   -0.54272434230172      2.05526148486201     -1.13082535010316
  O   -2.19368562848138      0.61509169785312     -1.36704548984513
  N   -1.28979332700448     -0.69196838064577      0.87774199834766
  O   -1.96914180715763     -1.58282952372233      0.38833304413085
  O   -1.25320594563251     -0.31340547422259      2.04614120676454
  C   1.50535396683591     -1.01565792314885      0.92593528450037
  N   1.97508143443729     -1.76116705013381      1.70691374842808
  C   1.80481264453893      0.60950246984364     -0.88214107762073
  N   2.57199253739348      1.14955813134779     -1.59429127522403
