11
Coordinates from ORCA-job run
  C   1.17324838556520     -0.07217288282423     -0.28482759593338
  C   -0.33824204329756      0.11928018585894     -0.20153608400050
  Br  1.59863229305696     -1.85582177625675     -0.93144518066327
  H   -0.76421506577746     -0.06300739662664     -1.20015617847142
  H   1.62343030272324      0.63179237400819     -0.98276356551069
  H   1.61089739468266      0.02866480763208      0.70724914793694
  C   -0.59063007829066      1.52998136343709      0.12838008282978
  N   -0.78387691201884      2.66127828442965      0.37463140777109
  N   -0.89314069860665     -0.72101984162119      0.85213695162694
  H   -0.74467493335951     -1.69330772270518      0.60799288911006
  H   -1.89142864467738     -0.56766739533196      0.92933812530444
