11
Coordinates from ORCA-job run
  C   1.19872340321040     -0.29498378008144     -0.13691989380384
  C   -0.27646028323535      0.04698993674397     -0.31734563093955
  Br  2.34049288855252      1.00060577589066     -1.01313551973268
  H   -0.48463821634289      0.10068858474763     -1.38970405893596
  H   1.47094644935071     -0.30905522816389      0.91895274541969
  H   1.38565422464590     -1.26972941989498     -0.58286999912295
  C   -0.59419485288300      1.36465284491963      0.27012879178517
  N   -0.90139682217327      2.37111823260471      0.79216216466966
  N   -1.06545226808170     -1.04500782683166      0.24191825899272
  H   -1.03814514985985     -1.01019360679992      1.25459818804471
  H   -2.03452937318347     -0.95408551313470     -0.03878504637697
