11
Coordinates from ORCA-job run
  C   1.14516739484413     -0.24000251261495     -0.39803203347487
  C   -0.33464573970012      0.10453486188861     -0.25518969314836
  Br  2.11943968964024     -0.11154322555538      1.26573472765479
  H   -0.74418380137921      0.05542937013979     -1.27955005285336
  H   1.24547958278947     -1.26624524575748     -0.75632112146318
  H   1.62032774549161      0.43490686499455     -1.10939118226080
  C   -0.50699186638371      1.49188645466958      0.19548917485040
  N   -0.63681124909058      2.60800449601374      0.53335659795396
  N   -0.99538605671325     -0.79026989357821      0.68362499201729
  H   -0.94046207167966     -1.74325094835983      0.34353367727443
  H   -1.97293362781892     -0.54345022184042      0.77674491344969
