11
Coordinates from ORCA-job run
  C   1.22901911399532     -0.01237797244396     -0.10165511288021
  C   -0.28097389754419     -0.01496368124604     -0.33241307889142
  Br  2.02602540411468     -1.69505980658295     -0.62578920727604
  H   -0.47208599001102     -0.29742149337197     -1.37194267635603
  H   1.45274125745425      0.14301312172467      0.95483374636478
  H   1.70664127296001      0.77022845796369     -0.68988715622209
  C   -0.76063894511588      1.37433373201608     -0.14782328852533
  N   -1.12881583155891      2.47415212541809      0.04079038911977
  N   -0.94224094773263     -0.98157318582148      0.52466266921382
  H   -0.91546136264357     -0.67363679521977      1.48970719832534
  H   -1.91321007391807     -1.08569450243635      0.25851651712739
