11
Coordinates from ORCA-job run
  C   1.19683015599934     -0.21667285150589     -0.36318026271135
  C   -0.30544161495774      0.03020789030331     -0.38114854302521
  Br  1.92684908384116     -0.09164116974532      1.43212549128978
  H   -0.61126912249044     -0.04501955677776     -1.43203093959786
  H   1.38948684405452     -1.22768241351772     -0.71884505100037
  H   1.72466961993499      0.51621858124923     -0.97209689803722
  C   -0.62052143461285      1.40571350940681      0.06251723328229
  N   -0.91727676103312      2.48250824434238      0.42594216846080
  N   -1.00364243611133     -1.01261165984488      0.35172267723531
  H   -0.77366139754221     -0.94904209628589      1.33689825489389
  H   -2.00502293708233     -0.89197847762425      0.25909586920993
