11
Coordinates from ORCA-job run
  C   1.14316734607415     -0.04650386328069     -0.11828967539771
  C   -0.36992301375928      0.10576632544159     -0.33413395263371
  Br  1.71679509426068     -1.84362196050274     -0.57646631651902
  H   -0.58760469712491     -0.10451199766377     -1.38666068116683
  H   1.40112501157139      0.12035623975305      0.92824866773906
  H   1.70576528268615      0.64051176014678     -0.75073842608154
  C   -0.70150662368604      1.51854032986170     -0.08724812580215
  N   -0.95014830193829      2.64076542570209      0.15034464571190
  N   -1.23782964889760     -0.73249775883388      0.47151122013333
  H   -1.04722881187791     -0.59500173622218      1.45731645928028
  H   -1.07161163730834     -1.70580276440194      0.24711618473641
