11
Coordinates from ORCA-job run
  C   1.19529030423100     -0.32140445004793     -0.10271989500318
  C   -0.27032373781200      0.03748700328770     -0.32336819618679
  Br  2.37413895967929      0.91473869686628     -1.01494306210304
  H   -0.45956717746994      0.04905945475786     -1.40051165930590
  H   1.37171263660064     -1.31797128224955     -0.50233069766265
  H   1.45011949419392     -0.29353217246617      0.95719576972083
  C   -0.57453297613131      1.38455407330077      0.20141334140539
  N   -0.87186316249547      2.41784722290491      0.67443034210349
  N   -1.08811432777685     -1.01580560101068      0.26785929990413
  H   -1.07735913263975     -0.93800285820490      1.27846250441627
  H   -2.05050088037954     -0.91997008713829     -0.03348774728855
