11
Coordinates from ORCA-job run
  C   1.18839011157892     -0.20015025531265     -0.40016083245897
  C   -0.31541952179480      0.03566955506982     -0.37159651878695
  Br  1.96636367548235     -0.10777769735576      1.37688519842759
  H   -0.65013277376281     -0.02055622298342     -1.41481268022236
  H   1.69442858491531      0.54926153513627     -1.00751295189034
  H   1.37783398654559     -1.20206582142830     -0.78218720993312
  C   -0.62805286615089      1.39958818388653      0.10818960140404
  N   -0.92275745972764      2.46622072439378      0.50234769972998
  N   -0.98589320249682     -1.02679243328943      0.35901360140220
  H   -0.73542380769720     -0.97666919903488      1.34008091506322
  H   -1.99033672689201     -0.91572836908196      0.28975317726470
