11
Coordinates from ORCA-job run
  C   1.09245618009988     -0.22064618201354     -0.38428136841167
  C   -0.40100553026349      0.12916769694176     -0.33908428145673
  Br  1.88768812692179     -0.21810303605891      1.38461339933218
  H   -0.75178627753064      0.08752201702767     -1.37890567008212
  H   1.22097173459746     -1.22493477488608     -0.79041570503511
  H   1.64904500139350      0.49546462977425     -0.98981820597285
  C   -0.57966929937305      1.51735309304601      0.11160998049350
  N   -0.69931238006389      2.62980123698707      0.46494286331128
  N   -1.25740103729453     -0.74385781304553      0.44269852481993
  H   -0.94264524930519     -0.76512237097488      1.40566277237595
  H   -1.21734126918184     -1.68664449679782      0.07397769062565
