14

C	0.0	0.0	0.0
C	-0.372936	0.175524	-1.505836
F	1.376817	0.0	0.0
H	0.533432	-0.151535	-2.026605
H	-0.38465	0.789256	0.641426
C	-0.422703	-1.329891	0.461987
N	-0.629733	-2.427455	0.823188
N	-0.392735	1.687047	-1.801383
O	-0.734332	2.026628	-2.924097
O	0.004497	2.449663	-0.920644
N	-1.494445	-0.441174	-2.091242
H	-1.310174	-1.42015	-2.253222
H	-2.329989	-0.338102	-1.498192
Cl	-3.695269	0.0	0.0
