14

C	0.0	0.0	0.0
C	-0.395049	-0.205902	-1.465667
F	1.378408	0.0	0.0
H	0.169029	-1.064793	-1.834286
H	-0.371335	0.948246	0.387031
C	-0.445597	-1.131746	0.821008
N	-0.688896	-2.059732	1.496475
N	0.258255	0.969542	-2.216752
O	0.158012	2.088536	-1.721957
O	0.773087	0.710793	-3.300481
N	-1.751306	-0.263919	-1.80639
H	-2.447925	0.052348	-1.117845
H	-2.030585	-1.172855	-2.137091
Cl	-4.243587	0.0	0.0
