14

C	0.0	0.0	0.0
C	-0.391176	-0.20248	-1.469191
F	1.377889	0.0	0.0
H	0.157926	-1.072732	-1.835279
H	-0.372019	0.950397	0.384529
C	-0.454373	-1.132562	0.81414
N	-0.70396	-2.080027	1.460339
N	0.298534	0.960844	-2.208627
O	0.140921	2.089989	-1.753224
O	0.905924	0.683259	-3.240641
N	-1.74705	-0.226785	-1.806945
H	-2.441154	0.074773	-1.109473
H	-2.045127	-1.110034	-2.187501
Cl	-4.244316	0.0	0.0
