14

C	0.0	0.0	0.0
C	-0.490181	-0.205749	-1.42072
F	1.382956	0.0	0.0
H	-1.580964	-0.314517	-1.357858
H	-0.368079	0.973325	0.324403
C	-0.399149	-1.030103	0.973483
N	-0.531464	-1.808622	1.841144
N	0.069542	-1.540437	-1.92356
O	0.922568	-1.508273	-2.812904
O	-0.372326	-2.560654	-1.404669
N	-0.089905	0.892249	-2.227944
H	-0.598749	0.88799	-3.100852
H	0.900765	0.835531	-2.427736
Cl	-3.359098	0.0	0.0
