14

C	0.0	0.0	0.0
C	-0.517227	-0.369017	-1.416656
F	1.37999	0.0	0.0
H	-1.367494	-1.037169	-1.317461
H	-0.371061	0.988689	0.267344
C	-0.391328	-0.977137	1.030009
N	-0.506926	-1.765774	1.891511
N	0.589614	-1.174306	-2.056564
O	1.324862	-0.619176	-2.86501
O	0.696763	-2.338718	-1.676208
N	-0.884316	0.717816	-2.260929
H	-0.224462	1.482202	-2.189364
H	-1.80251	1.012371	-1.9385
Cl	-3.224645	0.0	0.0
