13

C	-0.481683	-0.021345	-1.449014
C	0.0	0.0	0.0
Cl	0.294549	1.391956	-2.321536
H	1.094891	0.0	0.0
H	-0.063046	-0.902369	-1.936782
N	-1.901978	-0.020522	-1.555843
H	-2.279109	0.823591	-1.138054
H	-2.185029	-0.049442	-2.528287
C	-0.455509	-1.202824	0.679493
N	-0.783213	-2.203221	1.203493
C	-0.491937	1.183573	0.686581
N	-0.899399	2.142684	1.232853
H	2.530509	0.0	0.0
