13

C	-0.276095	0.09172	-1.512189
C	0.0	0.0	0.0
Cl	-0.012217	-1.601545	-2.23994
H	1.097443	0.0	0.0
H	-1.319821	0.290378	-1.759419
N	0.592144	1.078792	-2.007319
H	0.585861	1.133536	-3.017837
H	1.538766	0.89884	-1.650849
C	-0.546348	-1.164618	0.666577
N	-0.952084	-2.09816	1.255915
C	-0.455515	1.217426	0.652581
N	-0.801177	2.199506	1.199642
H	2.577293	0.0	0.0
