13

C	-0.273182	0.101383	-1.513349
C	0.0	0.0	0.0
Cl	-0.01057	-1.587734	-2.250817
H	1.097556	0.0	0.0
H	-1.31682	0.30134	-1.761759
N	0.59566	1.091234	-2.002906
H	0.585962	1.151957	-3.01133
H	1.542211	0.911131	-1.649812
C	-0.547291	-1.169882	0.657752
N	-0.956855	-2.107258	1.238074
C	-0.4558	1.212891	0.661141
N	-0.802624	2.190636	1.214682
H	2.579129	0.0	0.0
