13

C	-0.28393	0.096537	-1.509985
C	0.0	0.0	0.0
Cl	-0.008801	-1.58619	-2.250025
H	1.097526	0.0	0.0
H	-1.331578	0.287604	-1.747419
N	0.568492	1.099906	-2.004107
H	0.543718	1.166467	-3.012306
H	1.52155	0.928946	-1.663768
C	-0.541743	-1.169845	0.662651
N	-0.949305	-2.106637	1.245509
C	-0.455977	1.212759	0.660757
N	-0.802832	2.189683	1.2162
H	2.576594	0.0	0.0
