13

C	-0.398262	-0.023729	-1.473721
C	0.0	0.0	0.0
Cl	0.23489	1.512955	-2.243612
H	1.094887	0.0	0.0
H	0.174168	-0.818393	-1.956499
N	-1.793918	-0.211484	-1.675517
H	-2.313773	0.529788	-1.219557
H	-2.017923	-0.20033	-2.664137
C	-0.45195	-1.217346	0.656278
N	-0.791437	-2.222612	1.163354
C	-0.508154	1.16871	0.693364
N	-0.901746	2.118672	1.265688
H	2.525741	0.0	0.0
