13

C	-0.266543	0.093889	-1.514792
C	0.0	0.0	0.0
Cl	0.051079	-1.5907	-2.239901
H	1.097471	0.0	0.0
H	-1.312517	0.266758	-1.768679
N	0.582003	1.10174	-2.005375
H	0.576709	1.15782	-3.01385
H	1.530386	0.934419	-1.653977
C	-0.543786	-1.170973	0.658403
N	-0.937164	-2.114804	1.239336
C	-0.458195	1.213857	0.655034
N	-0.799066	2.192978	1.209505
H	2.570118	0.0	0.0
