13

C	-0.373134	0.025208	-1.481663
C	0.0	0.0	0.0
Cl	0.07642	1.607113	-2.18799
H	1.096602	0.0	0.0
H	0.296415	-0.693027	-1.971204
N	-1.78569	-0.185769	-1.703951
H	-1.957636	-0.322122	-2.693584
H	-2.073401	-1.024515	-1.211477
C	-0.418451	-1.268363	0.570785
N	-0.710616	-2.33073	0.984474
C	-0.53301	1.112554	0.761451
N	-0.889512	2.018574	1.420899
H	2.513351	0.0	0.0
