16

C	0.0	0.0	0.0
C	-0.450737	0.256885	-1.547304
Br	1.966807	0.0	0.0
H	0.477236	0.09249	-2.100521
C	-0.434537	1.012129	0.953304
N	-0.682264	1.875384	1.712672
C	-0.387985	-1.340994	0.423667
N	-0.572986	-2.466726	0.708495
C	-0.898672	1.69964	-1.704831
H	-0.16544	2.403236	-1.305199
H	-1.037775	1.897953	-2.768034
H	-1.852022	1.837232	-1.191727
N	-1.436025	-0.632069	-2.075388
H	-2.314643	-0.52954	-1.555468
H	-1.130787	-1.595761	-2.013232
Cl	-3.699672	0.0	0.0
