16

C	0.0	0.0	0.0
C	-0.464382	-0.965579	-1.221352
Br	1.967714	0.0	0.0
H	0.423041	-1.584026	-1.387494
C	-0.444532	1.382963	-0.104152
N	-0.680069	2.529268	-0.22303
C	-0.387385	-0.595414	1.275074
N	-0.608455	-1.161244	2.281676
C	-0.741377	-0.108349	-2.44577
H	-0.873266	-0.768962	-3.304428
H	-1.667419	0.450812	-2.295419
H	0.074539	0.58923	-2.652277
N	-1.564585	-1.831825	-0.961511
H	-2.42095	-1.304765	-0.74408
H	-1.377419	-2.454246	-0.184837
Cl	-3.916351	0.0	0.0
