16

C	0.0	0.0	0.0
C	-0.478662	0.201385	-1.540152
Br	1.966852	0.0	0.0
H	0.417464	-0.065988	-2.108579
C	-0.439292	1.035457	0.925599
N	-0.720121	1.916888	1.651776
C	-0.384212	-1.327956	0.468968
N	-0.585992	-2.443755	0.780011
C	-0.823633	1.664911	-1.760918
H	-1.75221	1.897826	-1.235196
H	-0.980741	1.821938	-2.829087
H	-0.029915	2.331194	-1.413065
N	-1.548544	-0.63161	-1.978421
H	-2.408962	-0.445408	-1.447191
H	-1.320212	-1.614009	-1.887182
Cl	-3.9065	0.0	0.0
