16

C	0.0	0.0	0.0
C	-0.507512	-0.265321	-1.46223
Br	1.965546	0.0	0.0
H	-1.594638	-0.288664	-1.319468
C	-0.398157	1.330079	0.456447
N	-0.583668	2.449503	0.764781
C	-0.400415	-1.047714	0.936879
N	-0.576492	-1.947522	1.673212
C	-0.027966	-1.602305	-1.998104
H	1.043234	-1.592868	-2.217664
H	-0.240458	-2.414702	-1.299773
H	-0.565643	-1.793429	-2.928182
N	-0.194492	0.805186	-2.380213
H	0.792034	1.039299	-2.352496
H	-0.734892	1.630001	-2.146559
Cl	-3.397195	0.0	0.0
