16

C	0.0	0.0	0.0
C	-0.524911	-0.651179	-1.3395
Br	1.960291	0.0	0.0
H	0.357309	-1.106386	-1.797858
C	-0.402793	1.394554	0.188993
N	-0.641648	2.538642	0.315161
C	-0.376251	-0.778475	1.185235
N	-0.577612	-1.341241	2.1975
C	-1.080943	0.413954	-2.284132
H	-0.354359	1.206878	-2.487118
H	-1.332296	-0.070414	-3.232583
H	-1.994455	0.838065	-1.863456
N	-1.427137	-1.731064	-0.994771
H	-1.606862	-2.275491	-1.830914
H	-2.322143	-1.334049	-0.68168
Cl	-3.925	0.0	0.0
