16

C	0.0	0.0	0.0
C	-0.502148	-0.07053	-1.487104
Br	1.961946	0.0	0.0
H	-1.588446	-0.121477	-1.353383
C	-0.400995	1.257671	0.626514
N	-0.581639	2.327119	1.08035
C	-0.394977	-1.165582	0.789449
N	-0.561642	-2.156152	1.400796
C	-0.011239	-1.318093	-2.199262
H	-0.553734	-1.389917	-3.143229
H	1.057736	-1.267131	-2.422813
H	-0.209578	-2.218813	-1.614484
N	-0.197179	1.118298	-2.250069
H	-0.752117	1.895363	-1.912251
H	0.785318	1.360214	-2.182494
Cl	-3.374891	0.0	0.0
