16

C	0.0	0.0	0.0
C	-0.445534	0.292623	-1.544141
Br	1.966963	0.0	0.0
H	0.483086	0.12496	-2.098956
C	-0.444153	0.980957	0.978955
N	-0.694809	1.821961	1.762388
C	-0.384158	-1.354878	0.388007
N	-0.5959	-2.476112	0.669855
C	-0.88679	1.743762	-1.662983
H	-1.016875	1.973091	-2.72114
H	-0.162145	2.437767	-1.231889
H	-1.845984	1.856464	-1.157497
N	-1.445844	-0.566787	-2.09257
H	-2.321579	-0.461387	-1.56778
H	-1.165939	-1.541366	-2.063814
Cl	-3.690707	0.0	0.0
