16

C	0.0	0.0	0.0
C	-0.574188	-0.301736	-1.403952
Br	1.959407	0.0	0.0
H	-1.656177	-0.225391	-1.217282
C	-0.381121	1.346939	0.433998
N	-0.578565	2.447902	0.79369
C	-0.397691	-1.002297	0.9913
N	-0.606388	-1.855203	1.772559
C	-0.240822	-1.706433	-1.878096
H	-0.577894	-2.462179	-1.165425
H	-0.759423	-1.882532	-2.824171
H	0.835315	-1.827762	-2.042318
N	-0.155524	0.758671	-2.303279
H	0.554483	0.436799	-2.948169
H	-0.952366	1.099846	-2.823472
Cl	-3.543927	0.0	0.0
