16

C	0.0	0.0	0.0
C	-0.534453	-0.231893	-1.45619
Br	1.968945	0.0	0.0
H	0.268413	0.116734	-2.112118
C	-0.345806	1.33084	0.506043
N	-0.507129	2.438038	0.867282
C	-0.445327	-1.029318	0.934517
N	-0.750217	-1.87871	1.687621
C	-1.800704	0.566931	-1.735167
H	-2.620652	0.34476	-1.039782
H	-1.608495	1.640794	-1.724975
H	-2.154951	0.297962	-2.73459
N	-0.655548	-1.671391	-1.63656
H	-0.64248	-1.874205	-2.629513
H	-1.565888	-1.965686	-1.288739
Cl	-4.730584	0.0	0.0
