17

C	-0.302331	-0.114176	-1.488685
C	0.0	0.0	0.0
Br	-0.186192	-1.974466	-2.081312
H	1.107543	0.0	0.0
N	-1.740483	0.296158	-1.789005
O	-1.97755	0.790021	-2.888116
O	-2.577903	0.097246	-0.912469
C	0.678308	0.72985	-2.270451
H	0.470243	1.777709	-2.047205
H	0.596916	0.557871	-3.342137
H	1.667539	0.47886	-1.871024
C	-0.546063	-1.048246	0.847788
N	-0.962293	-1.834133	1.61818
N	-0.373353	1.351126	0.422573
H	-1.252932	1.353117	0.92254
H	0.366014	1.695793	1.022569
F	2.584508	0.0	0.0
