17

C	-0.493593	-0.052496	-1.455747
C	0.0	0.0	0.0
Br	0.409859	1.350725	-2.477425
H	1.105284	0.0	0.0
N	-0.061368	-1.368088	-2.110821
O	-0.638333	-1.683773	-3.15128
O	0.831303	-2.003077	-1.570638
C	-1.9886	0.09125	-1.646918
H	-2.250334	0.066468	-2.701835
H	-2.492855	-0.731352	-1.130077
H	-2.321518	1.040026	-1.222856
C	-0.592302	-1.133479	0.697414
N	-1.151816	-2.029829	1.21476
N	-0.32799	1.230238	0.70531
H	-1.242237	1.603636	0.480197
H	0.391931	1.907656	0.48661
F	2.520265	0.0	0.0
