17

C	-0.367208	-0.137824	-1.47147
C	0.0	0.0	0.0
Br	-2.292618	-0.495293	-1.753674
H	1.105385	0.0	0.0
N	-0.065613	1.204871	-2.132335
O	1.087961	1.338013	-2.531198
O	-0.940192	2.058783	-2.186224
C	0.465885	-1.225158	-2.112966
H	0.355692	-1.221491	-3.198712
H	1.500174	-1.03557	-1.808458
H	0.142061	-2.19142	-1.722725
C	-0.415125	-1.201925	0.717745
N	-0.740694	-2.142326	1.345296
N	-0.445062	1.239301	0.600957
H	-1.344097	1.152787	1.05625
H	0.253331	1.523839	1.274477
F	2.545543	0.0	0.0
