17

C	-0.316302	-0.081719	-1.493897
C	0.0	0.0	0.0
Br	-2.187616	-0.581022	-1.869155
H	1.094926	0.0	0.0
N	-0.099095	1.327367	-2.044574
O	-1.055586	2.07008	-2.215051
O	1.075899	1.619875	-2.236199
C	0.641585	-1.043933	-2.164711
H	0.580599	-0.974098	-3.252401
H	1.637809	-0.78859	-1.783904
H	0.39083	-2.061105	-1.857124
C	-0.420732	-1.22845	0.668791
N	-0.759465	-2.183646	1.267187
N	-0.480469	1.2162	0.621823
H	-1.403173	1.1051	1.023388
H	0.176428	1.477248	1.345733
F	2.566402	0.0	0.0
