17

C	-0.573628	-0.036399	-1.41575
C	0.0	0.0	0.0
Br	0.375709	1.275295	-2.506667
H	1.100619	0.0	0.0
N	-0.288171	-1.38271	-2.072972
O	-0.903482	-1.634283	-3.109067
O	0.527117	-2.122578	-1.536392
C	-2.058965	0.230683	-1.493716
H	-2.245341	1.185899	-1.00395
H	-2.592415	-0.564317	-0.962036
H	-2.401112	0.262572	-2.526292
C	-0.553431	-1.092831	0.782946
N	-1.05296	-1.920094	1.456467
N	-0.328668	1.306545	0.606681
H	-0.961215	1.199574	1.390047
H	0.557118	1.657941	0.955512
F	2.523334	0.0	0.0
