18

C	-0.197063	0.060729	-1.522268
C	0.0	0.0	0.0
Br	0.090398	-1.901732	-2.244047
H	1.097007	0.0	0.0
C	-1.588258	0.389025	-2.016689
H	-1.851268	1.394848	-1.683257
H	-1.643176	0.349974	-3.106521
H	-2.305505	-0.324209	-1.613014
N	0.814935	0.901364	-1.996876
H	1.700564	0.680523	-1.502292
H	0.913219	0.884258	-3.001739
C	-0.623179	-1.12947	0.654637
N	-1.180579	-1.9762	1.252836
C	-0.434615	1.305612	0.677645
H	-1.521753	1.435827	0.711017
H	-0.056104	1.306542	1.702291
H	0.020502	2.144169	0.149116
F	2.625473	0.0	0.0
