18

C	-0.561132	-0.019672	-1.422719
C	0.0	0.0	0.0
Br	0.399344	-1.410883	-2.461182
H	1.094422	0.0	0.0
C	-2.041184	-0.393932	-1.500692
H	-2.619638	0.340537	-0.926451
H	-2.234463	-1.385131	-1.08895
H	-2.382186	-0.37017	-2.539455
N	-0.264154	1.243347	-2.082864
H	-0.561149	1.179979	-3.051551
H	-0.816857	1.968973	-1.635469
C	-0.485173	-1.140274	0.754239
N	-0.887704	-2.058096	1.372212
C	-0.316644	1.305122	0.743753
H	-1.381325	1.573007	0.777603
H	0.045239	1.206644	1.768855
H	0.264118	2.103757	0.280164
F	2.545987	0.0	0.0
