11
Coordinates from ORCA-job run
  C   0.69624811059822     -0.47380970162098     -0.23654280598399
  C   -0.31445557689809      0.57495803018614      0.19734485026906
  Br  0.63448137444295     -2.01119866098769      0.95726496350889
  H   -0.25446827386261      1.44688081387258     -0.45955350769612
  H   0.43797863917931     -0.84776017113166     -1.22821331651711
  H   -0.18745400490786      0.86850177628311      1.23721257210533
  C   2.03442646173465      0.09869683445715     -0.24379350680557
  N   3.09852326281431      0.59626766517143     -0.25516491412489
  N   -1.70364043586533      0.03854504832879      0.05279557990630
  O   -2.48748941970955      0.27047385315814      0.96599501900797
  O   -1.95315013752600     -0.56155548771702     -0.98834493366987
