11
Coordinates from ORCA-job run
  C   0.66300442367229     -0.53165800946707     -0.21079958879948
  C   -0.28063443246230      0.60644605587356      0.13974793004309
  Br  0.66641295290409     -1.87057557935141      1.20362912124524
  H   -0.24471781526058      1.37609684137351     -0.63592893407320
  H   0.30983162132492     -1.03986207250906     -1.10905651588161
  H   -0.06805218454838      1.03750837662400      1.11564353726783
  C   2.00910070687196     -0.01758968799912     -0.41657734666390
  N   3.08010860594005      0.42991137137177     -0.59716390705161
  N   -1.69326580189810      0.11424503151636      0.17105982105852
  O   -2.40634493978993      0.53236797439838      1.07622488207871
  O   -2.03444313675404     -0.63689030183093     -0.73777899922359
