11
Coordinates from ORCA-job run
  C   0.72595243530250     -0.67118137096242     -0.12043978483711
  C   -0.72327955478371     -0.27305067110206     -0.34397405608927
  Br  1.00239872670727     -1.24527810909724      1.72131799225496
  H   -1.38811809122948     -1.11525447178516     -0.16255391349982
  H   0.91795091141089     -1.55877543763876     -0.72893917119705
  H   -0.85893760013324      0.10180855789845     -1.36240261544432
  C   1.69766916064270      0.34899340217316     -0.49253458696992
  N   2.50713966021661      1.11818291476693     -0.85662660407959
  N   -1.17500649528970      0.82356421784314      0.56877709584864
  O   -2.33121713468481      0.75098292925217      0.97132968590886
  O   -0.37355201815902      1.72000803865179      0.80604595810463
