11
Coordinates from ORCA-job run
  C   0.71716681749535     -0.66068691350311     -0.20137985683690
  C   -0.74405204778252     -0.25856683782378     -0.30974898930091
  Br  1.11330138854711     -1.32649152851806      1.58703362830589
  H   -0.94606349990358      0.16673127078057     -1.29690771309847
  H   0.87049023450212     -1.51530577000614     -0.86552575582016
  H   -1.39454704774335     -1.11204342704042     -0.12902529534443
  C   1.66151621130055      0.38141398169139     -0.58294928192065
  N   2.44514951992313      1.17141779210723     -0.95883394711957
  N   -1.13688026356277      0.78826525375060      0.68491208839650
  O   -0.32317660844457      1.67577015577473      0.91402068853952
  O   -2.26390470433146      0.68949602278700      1.15840443419917
