11
Coordinates from ORCA-job run
  C   0.71856552606735     -0.61097143141795     -0.26726448563050
  C   -0.62758345572044     -0.34687697675254      0.38891070884407
  Br  1.43046840224102     -2.27466930102656      0.45882832804387
  H   -0.53714582408815     -0.17049112543595      1.45914650338428
  H   0.59946612898494     -0.76263195497238     -1.33895280351079
  H   -1.31403033575212     -1.17505088282019      0.20479799016468
  C   1.65482943217019      0.47798184613196     -0.02646619720928
  N   2.38999308301438      1.37002097062796      0.18236740974976
  N   -1.26858437522605      0.87337208206585     -0.20371430574293
  O   -1.00348475345909      1.12975082403227     -1.37578508240407
  O   -2.04249382823202      1.48856594956751      0.51913193431093
