11
Coordinates from ORCA-job run
  C   0.72477988917204     -0.65670815032879     -0.18831143359143
  C   -0.73351724387768     -0.25603308496091     -0.33582604210181
  Br  1.06821343574150     -1.34503944327036      1.60242533114742
  H   -0.90646111209084      0.18242520522234     -1.32273032787314
  H   0.90066077423453     -1.50242300325001     -0.85821103152630
  H   -1.38695296741580     -1.11331543666344     -0.18634073073130
  C   1.67743758047813      0.39243655937141     -0.52742261381992
  N   2.47023118862250      1.18912577492683     -0.86847602393160
  N   -1.15906261636469      0.77616174293411      0.66064894293234
  O   -2.30019433308309      0.66899602268278      1.09707104744301
  O   -0.35513459541658      1.66237381333604      0.92617288205273
