11
Coordinates from ORCA-job run
  C   0.75452843268526     -0.41077565698895     -0.16395004405284
  C   -0.38780821599392      0.55303110647254      0.11070358295008
  Br  0.87220696223042     -1.74457726785418      1.25100345148923
  H   -0.42775789614764      1.31813719488377     -0.66926587797306
  H   0.55976707964898     -0.96151027512365     -1.08510942365248
  H   -0.31704323949406      1.01126823933317      1.09487457732076
  C   2.00894185562533      0.32018048327983     -0.26501936933477
  N   3.00123891555009      0.94221641069008     -0.35701521451608
  N   -1.69549074250861     -0.17168070276544      0.05073601140129
  O   -2.51785572448315      0.09123644420037      0.92071840794814
  O   -1.84972742711270     -0.94652597612754     -0.88867610158028
