11
Coordinates from ORCA-job run
  C   0.69818660166440     -0.58305619442300     -0.36531017822757
  C   -0.73378600490755     -0.34531561103237      0.08804541873374
  Br  1.04830873561135     -2.49975548401511     -0.28751994877379
  H   -0.88639748443438     -0.61741997241822      1.13086317944915
  H   0.82634178904769     -0.28308189587496     -1.40418820576720
  H   -1.43378539786835     -0.89288675334003     -0.54541555440609
  C   1.65097316274733      0.13079441321364      0.47316825524267
  N   2.39780369799179      0.71675642099491      1.16510834401883
  N   -1.08988629486765      1.10607528008228     -0.04330884972175
  O   -1.94853626637384      1.52865985795465      0.72096972806783
  O   -0.52822253861077      1.74022993885822     -0.93341218861582
