11
Coordinates from ORCA-job run
  C   0.70197484110936     -0.47223091906264     -0.22007478373924
  C   -0.33205371692043      0.58412897941713      0.13246731055642
  Br  0.83655587721050     -1.79256481978525      1.20583786604047
  H   -0.37940997558443      1.33921248629282     -0.65677665680648
  H   0.38424584567920     -1.01729232187716     -1.10984465549326
  H   -0.13882153223990      1.04897892974411      1.09693658815661
  C   1.99697257368850      0.15295383519053     -0.44374524389238
  N   3.02420750584711      0.69022836305255     -0.63368897173511
  N   -1.69271500632389     -0.03396149022753      0.20101208862390
  O   -2.41167651052635      0.30479762188282      1.13412547711883
  O   -1.99027990193966     -0.80525066462736     -0.70624901882976
