11
Coordinates from ORCA-job run
  C   0.70558495737697     -0.55984654214310     -0.38647840348364
  C   -0.73011676350100     -0.35742330192786      0.07190706886448
  Br  1.07818263428449     -2.47386430941207     -0.38589813839000
  H   -1.42208666930003     -0.88661128925636     -0.58547442225532
  H   0.83311191831574     -0.21607299715559     -1.41178041991042
  H   -0.88230237578812     -0.67315064121039      1.10233703718866
  C   1.64772094355170      0.13039729873513      0.48332475324116
  N   2.38599637479264      0.69675211321750      1.20026406456037
  N   -1.10264882034741      1.09410940770898     -0.00144551861429
  O   -0.54809406742522      1.76959262376175     -0.86512456433131
  O   -1.96634755576453      1.47610747074958      0.77837133832224
