11
Coordinates from ORCA-job run
  C   0.73033227387384     -0.66055156559328     -0.14777317532334
  C   -0.72901743801833     -0.27798549961805     -0.32848178733858
  Br  1.06121712442006     -1.25399753016976      1.67895806159666
  H   -1.37842459027828     -1.13063845384475     -0.14006350705357
  H   0.91758774518024     -1.53819416173487     -0.77197178235138
  H   -0.89615800725090      0.10713559308374     -1.33838515716711
  C   1.67972077434863      0.37607157140484     -0.53173046104700
  N   2.47055885651648      1.15926278660590     -0.90677285427295
  N   -1.16993724698635      0.80198868000167      0.60891918175545
  O   -2.31479555271718      0.71104899037834      1.03922248761653
  O   -0.37308393908822      1.70485958948621      0.83707899358529
