11
Coordinates from ORCA-job run
  C   0.73536259668694     -0.66000818284033     -0.12553103984321
  C   -0.72701891165347     -0.29451234672330     -0.31711766721212
  Br  1.07381089360524     -1.18603775925261      1.72025689562391
  H   -0.89802777906104      0.05397154418158     -1.33958605506586
  H   0.92768487066804     -1.55775124244180     -0.71883040983948
  H   -1.37016378415470     -1.14458453562808     -0.09809019443603
  C   1.67615449443428      0.36953609002713     -0.54785474416154
  N   2.45990189048951      1.14538269404630     -0.95190918283633
  N   -1.17458437358765      0.81416734220930      0.58292375648448
  O   -0.38433257690985      1.73055056501063      0.77785427865757
  O   -2.31778732051731      0.72928583141119      1.01888436262861
