11
Coordinates from ORCA-job run
  C   0.73766913712841     -0.64315899519400     -0.18259246062809
  C   -0.72963092872571     -0.27587154521152     -0.32940807601082
  Br  1.10301275625694     -1.29459457115290      1.61735240378643
  H   -1.36382677025070     -1.14494359727457     -0.16622606245881
  H   0.92791589229212     -1.49567467141668     -0.83984596202703
  H   -0.91545573282620      0.14641677141102     -1.32093432782195
  C   1.66634139633032      0.42040450899001     -0.54296266372707
  N   2.44046450058218      1.22856790957035     -0.89945383676956
  N   -1.17228897857581      0.75919740267714      0.65627849827686
  O   -2.30140933310902      0.62355239550946      1.11535641916904
  O   -0.39279193910252      1.67510439209170      0.89243606821099
