15
Coordinates from ORCA-job run
  C   0.69552612030193      0.01154910412434     -0.77309861467093
  C   -0.79419010485563     -0.05477900193083     -0.43360001418763
  Br  1.08249828822279     -1.34498468510340     -2.11866411656153
  H   -1.38601117720574      0.00761623736359     -1.34759819563687
  H   0.88813648723606      0.96211662676461     -1.27099137992551
  C   1.59703160999475     -0.17246708312086      0.43279760453284
  H   2.64095102912651     -0.04421449118204      0.14564349140251
  H   1.36045617191297      0.56866514117059      1.20233640464586
  H   1.48478132268492     -1.17348300440068      0.85165527045547
  N   -1.09003733043428      1.28941818114574      0.27759885855598
  O   -1.08476388251824      2.29106995021531     -0.43166203503022
  O   -1.27687041065782      1.26518902954690      1.49166798247872
  N   -1.15764256795651     -1.18389750905458      0.32995731964757
  H   -0.79963101240691     -1.12519753648252      1.27373497753037
  H   -2.16123454344482     -1.29460095905616      0.37222244676336
