15
Coordinates from ORCA-job run
  C   0.78962367435597     -0.09300752157435      0.47387710751852
  C   -0.58251054136238      0.37254570582030      0.02583388066897
  Br  1.60095566913679      1.34218000737325      1.52128515355963
  H   -0.53179475875062      1.38755346754911     -0.38645585089388
  H   0.66682632601753     -0.92997656712072      1.15987907322080
  C   1.69155940826163     -0.45118707338131     -0.69333177323311
  H   1.76105313518987      0.37216788158179     -1.40894210029689
  H   2.69794434071433     -0.67324919447605     -0.33828496379580
  H   1.31092997475764     -1.34389029039694     -1.19552973847495
  N   -1.52268905259324      0.50451680140361      1.20285404085210
  O   -1.31324740322229     -0.15938635234707      2.21002400221947
  O   -2.48507457829659      1.24655052987752      1.01209558015486
  N   -1.21128725590973     -0.61287159129782     -0.83232928317671
  H   -2.15718030272978     -0.30705688479876     -1.03802426975848
  H   -0.71510863556915     -0.65588891821255     -1.71395085856452
