15
Coordinates from ORCA-job run
  C   0.60634921486764      0.03727453659877     -0.81548156174713
  C   -0.81599898742758      0.01726996997729     -0.26185970438779
  Br  0.74827342118632     -1.43766850832128     -2.10056895097027
  H   -1.52697082375475      0.15095004918629     -1.09118393078228
  H   0.73253319334419      0.93672073802040     -1.41439531103232
  C   1.67759051909620     -0.07914463122051      0.24896392492431
  H   2.66717292133654     -0.07064692250896     -0.20945501578695
  H   1.60847204207055      0.77747714628296      0.92504401851935
  H   1.55526779666203     -0.99179206157367      0.82926470715376
  N   -1.01934820030356      1.28039456201933      0.56270765351938
  O   -1.69955372181730      1.19267344919816      1.57829476796035
  O   -0.53876136973138      2.31545978193043      0.10921787592650
  N   -1.04867164643277     -1.11158916034959      0.59102223409194
  H   -1.96930874991420     -1.05800742390482      1.00596778815375
  H   -0.97804560918193     -1.95937152533479      0.04246150445741
