15
Coordinates from ORCA-job run
  C   0.59658470902821      0.04174928466707     -0.77552325085157
  C   -0.88549957667130      0.06174182542858     -0.35296662533544
  Br  0.80407003813243     -1.40739165815744     -2.07237467716873
  H   -1.49820663460198      0.23655458298039     -1.23818696365520
  H   0.80327801618587      0.95474141183844     -1.33709436105123
  C   1.57618120612675     -0.13444912082178      0.36691053330489
  H   1.48462795613170      0.69230354250706      1.07592757534260
  H   2.59858000702737     -0.14863778766119     -0.01163421779451
  H   1.40270961903129     -1.07232138221689      0.89709673764968
  N   -1.02614874340678      1.31806891256800      0.47735700479570
  O   -1.06573957854479      2.37623707466955     -0.14569063354192
  O   -1.01787816801092      1.19759740312092      1.69837664487364
  N   -1.41984995422328     -1.03291004573976      0.38866782615935
  H   -0.88109766299351     -1.22655126321835      1.22155228201252
  H   -1.47061123321106     -1.85773277996461     -0.19341787473979
