15
Coordinates from ORCA-job run
  C   0.73852169896736     -0.21082705066239     -0.66575400091504
  C   -0.74669343677514      0.04217160295062     -0.41974236796363
  Br  0.88955067023170     -1.94464188723477     -1.57063879951879
  H   -1.27340359116287      0.05946661776777     -1.38592894423610
  H   1.09659310480187      0.51189558168208     -1.39586136267625
  C   1.57773082565198     -0.19338652066384      0.59503089254721
  H   1.51794617918277      0.79733486619461      1.05394958048312
  H   2.62266417384045     -0.39383096972172      0.35542334551653
  H   1.22273840322723     -0.93150214732174      1.31184766037789
  N   -0.90536471777153      1.47302990204048      0.07473293807863
  O   -0.21217487409102      2.32361671911937     -0.47648717558930
  O   -1.75411954460546      1.68710344466235      0.93222827002991
  N   -1.28679303170644     -0.83505532130116      0.57676521049547
  H   -1.23722547045995     -1.78832010165985      0.24020874830779
  H   -2.24997038933093     -0.59905473585180      0.77422600506257
