15
Coordinates from ORCA-job run
  C   0.61208707273905     -0.59533919486584     -0.20999566513936
  C   -0.74879351418865      0.11238078243178     -0.33001782635399
  Br  0.62714819464630     -1.86305669961650      1.27808296816023
  H   -0.69617040771654      0.74029480095555     -1.22326505002708
  H   0.69297450178868     -1.22565543676470     -1.09979412820078
  C   1.80615868452720      0.33640959647067     -0.11049182293350
  H   1.80920602789567      0.88093371950507      0.83348489418902
  H   2.73304432077123     -0.23360684416108     -0.18356578623344
  H   1.77582679097403      1.06710790317673     -0.92358106337815
  N   -0.88981540493195      1.09076496278510      0.80767515525749
  O   -1.43452033234937      0.68609206874198      1.82834364194681
  O   -0.40885831502553      2.21008192827109      0.63527225117798
  N   -1.93167355555338     -0.68575493666294     -0.38240677180671
  H   -1.93852130746150     -1.37435507687357      0.35921242097627
  H   -2.01009275611524     -1.14629757339335     -1.27895321763481
