14
Coordinates from ORCA-job run
  C   -0.73159929801448      0.63545242530858      0.06728995337366
  C   0.75216956980929      0.61810615210368     -0.26966654327286
  Cl  -1.50770882860379      1.99161135588069     -0.82902494291918
  H   1.16680812897969      1.60588618194504     -0.04889324070007
  H   -0.86473951230459      0.88175315519524      1.12423647059301
  H   0.86329942679115      0.46488707683073     -1.34819959024844
  C   -1.45990778340535     -0.65279499632094     -0.26445302822870
  H   -1.32816968052812     -0.90273802314620     -1.31987125704546
  H   -1.07527522058320     -1.47554242095101      0.34257121207333
  H   -2.52814038683656     -0.55549999177251     -0.06607563027129
  C   1.52337011129189     -0.44952969450949      0.50307242116288
  H   1.23902811971347     -1.45918269991964      0.20182392671980
  H   1.35583039407797     -0.35655267368971      1.57990087506556
  H   2.59603495961263     -0.34485584695446      0.32628937369777
