14
Coordinates from ORCA-job run
  C   -0.77215096695717      0.66071106948099     -0.00289635467573
  C   0.58475023612366      0.52114049856844      0.67648147529317
  Cl  -0.60013759331763      1.60600990977851     -1.52863705721859
  H   0.99826048874801      1.52285234087652      0.82548202962474
  H   -1.41917767650754      1.27399522001864      0.62851762893670
  H   0.39921182767306      0.10582220191626      1.67499972684954
  C   -1.45735529885150     -0.65724725980927     -0.31064374015438
  H   -0.89532643068566     -1.23203294784282     -1.04729603298249
  H   -2.45883771052469     -0.48679775882006     -0.70830137260481
  H   -1.54364983159974     -1.24978462422173      0.60530633144193
  C   1.59207517255209     -0.35059517828742     -0.06478465426391
  H   2.55492588930026     -0.33403629532202      0.45039759287436
  H   1.26709646508672     -1.39140595170343     -0.11734426202464
  H   1.75131542896013      0.01036877536738     -1.08228131109589
