14

C	0.0	0.0	0.0
C	-0.419881	-0.017267	-1.505332
Cl	1.756785	0.0	0.0
H	0.489731	-0.376255	-2.012489
H	-0.385504	-0.859565	0.536258
N	-0.368878	1.19775	0.841641
O	-0.198395	2.310469	0.355891
O	-0.667473	0.959712	2.002563
N	-0.847757	1.260995	-2.048178
H	-0.949525	1.152333	-3.04927
H	-0.150259	1.96514	-1.853481
C	-1.376521	-1.092019	-1.830381
N	-1.78828	-2.060143	-2.358177
Cl	-3.064086	0.0	0.0
