11

C	-0.363559	-0.088623	-1.471185
C	0.0	0.0	0.0
Cl	-2.119405	-0.388963	-1.793638
H	1.094366	0.0	0.0
H	0.173608	-0.928791	-1.917488
H	-0.361873	0.928601	0.446898
C	0.009606	1.135984	-2.175933
N	0.259269	2.120138	-2.764844
C	-0.485048	-1.14396	0.748186
N	-0.846766	-2.076275	1.365442
H	2.683038	0.0	0.0
