11

C	-0.361283	-0.091313	-1.467755
C	0.0	0.0	0.0
Cl	-2.039366	-0.704243	-1.765446
H	1.094578	0.0	0.0
H	0.313996	-0.82327	-1.919748
H	-0.293538	-0.93141	0.492955
C	-0.209784	1.1764	-2.176336
N	-0.107912	2.200366	-2.741995
C	-0.593331	1.129258	0.68417
N	-1.048207	2.048596	1.258785
H	2.675047	0.0	0.0
