11

C	-0.386726	0.048114	-1.476774
C	0.0	0.0	0.0
Cl	-0.047386	-1.539862	-2.236763
H	1.09328	0.0	0.0
H	0.272055	0.767375	-1.974712
H	-0.381505	-0.907536	0.473132
C	-1.784756	0.389104	-1.730267
N	-2.911257	0.658541	-1.931042
C	-0.479225	1.178461	0.700863
N	-0.837513	2.143143	1.269915
H	2.693424	0.0	0.0
