11

C	-0.544321	-0.042054	-1.424709
C	0.0	0.0	0.0
Cl	0.046056	1.343828	-2.397658
H	1.093905	0.0	0.0
H	-1.633926	0.041906	-1.440383
H	-0.299109	-0.921637	0.5126
C	-0.201148	-1.296952	-2.094232
N	-0.015154	-2.319082	-2.641395
C	-0.542648	1.137295	0.722071
N	-0.977124	2.060871	1.305296
H	2.704648	0.0	0.0
