17

C	-0.453238	0.071282	-1.477152
C	0.0	0.0	0.0
Br	0.370974	-1.311972	-2.552203
H	1.094393	0.0	0.0
N	-1.977773	-0.103447	-1.520759
O	-2.418687	-1.246125	-1.489723
O	-2.642716	0.927628	-1.480765
C	-0.139307	1.362224	-2.075396
N	0.100371	2.373206	-2.624046
C	-0.467989	-1.257102	0.716327
H	0.066358	-1.304441	1.668293
H	-1.545543	-1.235974	0.914065
H	-0.239418	-2.162242	0.153671
N	-0.451766	1.225247	0.643946
H	-1.12732	1.037404	1.371347
H	0.345418	1.701636	1.045911
Br	3.472536	0.0	0.0
