17

C	-0.430363	0.142743	-1.459556
C	0.0	0.0	0.0
Br	-2.380996	0.332498	-1.623038
H	1.093888	0.0	0.0
N	0.16212	1.407904	-2.116325
O	0.768877	2.180967	-1.392185
O	-0.032003	1.532121	-3.320608
C	-0.028373	-0.982258	-2.294213
N	0.278835	-1.915279	-2.939191
C	-0.459895	-1.329202	0.578143
H	-1.549286	-1.364165	0.686197
H	-0.130386	-2.170496	-0.032509
H	0.004047	-1.441485	1.561681
N	-0.515182	1.12326	0.780689
H	-0.827617	0.7838	1.678913
H	0.252451	1.761686	0.943915
Br	3.471824	0.0	0.0
