17

C	-0.527974	0.116812	-1.436759
C	0.0	0.0	0.0
Br	0.349416	1.556561	-2.399683
H	1.094368	0.0	0.0
N	-0.279852	-1.144421	-2.260064
O	0.769223	-1.733037	-2.054206
O	-1.137869	-1.44283	-3.088327
C	-1.966381	0.371264	-1.426034
N	-3.118187	0.586356	-1.319931
C	-0.516577	-1.265561	0.67825
H	-1.61179	-1.271974	0.73361
H	-0.117147	-1.279663	1.69431
H	-0.171981	-2.17193	0.179669
N	-0.416325	1.224977	0.677294
H	0.345858	1.549722	1.259608
H	-1.233635	1.063533	1.25381
Br	3.55194	0.0	0.0
