17

C	-0.506564	0.047737	-1.440865
C	0.0	0.0	0.0
Br	-2.459878	-0.098242	-1.507437
H	1.097924	0.0	0.0
N	-0.106229	1.396675	-2.091908
O	0.983844	1.819631	-1.744221
O	-0.857951	1.882883	-2.923349
C	0.038263	-1.004773	-2.287898
N	0.462304	-1.880262	-2.949134
C	-0.398522	-1.293522	0.698322
H	0.145569	-1.337817	1.644126
H	-1.473068	-1.337096	0.897487
H	-0.111895	-2.171052	0.114031
N	-0.464722	1.207491	0.669474
H	-1.139339	0.983808	1.388671
H	0.334607	1.665012	1.094322
Br	3.49215	0.0	0.0
