17

C	-0.507459	0.056633	-1.450067
C	0.0	0.0	0.0
Br	-2.474646	-0.020848	-1.501664
H	1.102944	0.0	0.0
N	-0.083652	1.379395	-2.142285
O	-0.782069	1.800527	-3.053715
O	0.971718	1.85118	-1.743631
C	-0.030303	-1.008507	-2.319915
N	0.299779	-1.855399	-3.066573
C	-0.417983	-1.301541	0.673163
H	-1.49141	-1.329885	0.875886
H	-0.140157	-2.174145	0.077902
H	0.119926	-1.349387	1.619731
N	-0.411009	1.137786	0.792715
H	0.176553	1.934852	0.586405
H	-1.385954	1.374641	0.65371
Br	3.595946	0.0	0.0
