15

C	-0.325779	-0.115397	-1.456845
C	0.0	0.0	0.0
Br	-2.130017	-0.781607	-1.874749
H	1.107699	0.0	0.0
H	0.366569	-0.822243	-1.919639
N	-0.099995	1.19676	-2.203455
O	-0.760733	1.435488	-3.207804
O	0.810253	1.888431	-1.763293
C	-0.274757	-1.295443	0.763804
H	0.147369	-1.19196	1.765934
H	-1.335439	-1.554065	0.834362
H	0.26758	-2.10833	0.271983
C	-0.614103	1.146826	0.62734
N	-1.108686	2.066603	1.168228
F	2.505753	0.0	0.0
