15

C	-0.542805	0.041884	-1.415854
C	0.0	0.0	0.0
Br	0.27759	1.437045	-2.479424
H	1.094837	0.0	0.0
H	-1.619621	0.194082	-1.480841
N	-0.31754	-1.294404	-2.074527
O	-1.319342	-2.013624	-2.135813
O	0.807662	-1.600455	-2.4393
C	-0.371491	-1.298226	0.725014
H	0.181736	-2.121633	0.271332
H	-1.442274	-1.526995	0.718348
H	-0.025257	-1.214319	1.756785
C	-0.518357	1.152955	0.70816
N	-0.949485	2.072986	1.301732
F	2.513711	0.0	0.0
