15

C	-0.228082	-0.17969	-1.459526
C	0.0	0.0	0.0
Br	-2.116842	-0.282374	-2.0504
H	1.106538	0.0	0.0
H	0.238152	-1.100838	-1.79993
N	0.404299	0.899643	-2.296266
O	0.285877	2.058801	-1.922782
O	0.977942	0.522961	-3.315711
C	-0.373864	-1.260063	0.777382
H	-1.443856	-1.490307	0.740396
H	-0.072645	-1.130557	1.818751
H	0.197825	-2.101659	0.376385
C	-0.598992	1.175821	0.588042
N	-1.099015	2.074074	1.160662
F	2.495763	0.0	0.0
