15

C	-0.312273	-0.115549	-1.472852
C	0.0	0.0	0.0
Br	0.297613	-1.780147	-2.251135
H	1.108107	0.0	0.0
H	0.17931	0.68117	-2.025536
N	-1.782044	0.025691	-1.791859
O	-2.558139	-0.822585	-1.362173
O	-2.10577	1.031784	-2.425062
C	-0.469596	-1.125651	0.912588
H	-0.115089	-0.907014	1.92235
H	0.000835	-2.057702	0.59765
H	-1.554187	-1.255775	0.93077
C	-0.466572	1.29564	0.456227
N	-0.835151	2.342609	0.848537
F	2.510624	0.0	0.0
