15

C	-0.541652	0.0005	-1.417256
C	0.0	0.0	0.0
Br	0.260924	1.376527	-2.517923
H	1.095589	0.0	0.0
H	-1.620026	0.139654	-1.48641
N	-0.303763	-1.350577	-2.040253
O	-1.297254	-2.083189	-2.076534
O	0.822359	-1.653253	-2.402131
C	-0.370286	-1.278725	0.760678
H	-0.02329	-1.165206	1.789263
H	-1.441268	-1.509233	0.761973
H	0.184162	-2.114194	0.32976
C	-0.522863	1.171024	0.674857
N	-0.95835	2.107047	1.241319
F	2.513485	0.0	0.0
