16

C	0.0	0.0	0.0
C	-0.24999	-0.003898	-1.569365
Br	1.934929	0.0	0.0
H	0.469849	0.738908	-1.92001
N	-0.430037	1.314126	0.635558
O	-0.622072	1.297618	1.840002
O	-0.442242	2.286269	-0.105967
C	-0.490923	-1.139336	0.749405
N	-0.692037	-2.130048	1.351391
C	-1.564821	0.337285	-2.271785
H	-1.958907	1.284071	-1.919687
H	-1.313939	0.408826	-3.337302
H	-2.327449	-0.41266	-2.110854
C	0.211244	-1.308236	-2.060526
N	0.533964	-2.349603	-2.498619
Cl	-3.437268	0.0	0.0
