18

C	0.0	0.0	0.0
C	-0.384256	-0.024169	-1.490974
F	1.415507	0.0	0.0
H	-0.105742	-0.990381	-1.91483
N	-0.50533	1.160738	0.619958
H	-0.409908	1.139318	1.623941
H	-0.123876	2.003929	0.215984
C	-0.505863	-1.240201	0.694277
H	-0.08187	-2.133087	0.230595
H	-0.200464	-1.22105	1.74433
H	-1.597003	-1.262222	0.639157
N	0.571885	0.929486	-2.223615
O	0.552741	2.115369	-1.902501
O	1.275163	0.454703	-3.112874
N	-1.71341	0.345075	-1.772205
H	-2.199693	0.744195	-0.973746
H	-2.280007	-0.418129	-2.106902
Br	-4.543831	0.0	0.0
