18

C	0.0	0.0	0.0
C	-0.11604	0.260793	-1.541103
F	1.434006	0.0	0.0
H	0.492973	1.160582	-1.701272
N	-0.495542	1.030416	0.827
H	-1.481921	0.832919	1.009926
H	-0.464469	1.923779	0.349097
C	-0.493335	-1.349577	0.438431
H	-0.271157	-1.466573	1.501172
H	-1.57536	-1.396524	0.288919
H	-0.010328	-2.137372	-0.134416
N	-1.449165	0.712782	-2.075248
O	-1.765167	1.858453	-1.76417
O	-2.054636	-0.018392	-2.84874
N	0.321343	-0.897543	-2.281366
H	0.208175	-0.742395	-3.274336
H	1.30066	-1.037814	-2.070294
Br	-3.967634	0.0	0.0
