18

C	0.0	0.0	0.0
C	-0.369572	0.099684	-1.514342
F	1.381604	0.0	0.0
H	-0.126033	-0.865011	-1.964605
N	-0.465742	1.158812	0.705668
H	-0.30781	1.018857	1.698567
H	-1.475601	1.208947	0.580797
C	-0.482749	-1.320433	0.56762
H	-1.575083	-1.341375	0.549773
H	-0.146274	-1.405273	1.605569
H	-0.082543	-2.166631	0.001379
N	0.610848	1.051897	-2.158899
O	0.379609	2.251703	-2.053824
O	1.569926	0.563384	-2.753923
N	-1.667603	0.522715	-1.92154
H	-2.409519	-0.068579	-1.550012
H	-1.855256	1.456608	-1.578613
Br	-4.284409	0.0	0.0
