18

C	0.0	0.0	0.0
C	-0.38984	-0.036296	-1.492519
F	1.407143	0.0	0.0
H	-1.479766	-0.113624	-1.544404
N	-0.476018	1.190565	0.618923
H	-1.467848	1.04703	0.813859
H	-0.411379	1.948964	-0.052421
C	-0.441832	-1.216268	0.779115
H	-0.204653	-1.032546	1.8288
H	-1.516735	-1.363396	0.666719
H	0.094762	-2.102779	0.442199
N	0.149692	-1.317379	-2.124581
O	-0.51667	-2.340873	-1.989375
O	1.227384	-1.254827	-2.719844
N	0.107738	1.124736	-2.153662
H	-0.268391	1.194395	-3.08946
H	1.117072	1.066428	-2.206459
Br	-3.81893	0.0	0.0
