18

C	0.0	0.0	0.0
C	-0.428572	-0.080786	-1.485166
F	1.39964	0.0	0.0
H	-1.512438	-0.220092	-1.502019
N	-0.46472	1.197198	0.628876
H	-0.310206	1.991003	0.01831
H	-1.472765	1.097631	0.759889
C	-0.442796	-1.202061	0.803674
H	-0.143063	-1.036181	1.840084
H	-1.526572	-1.307065	0.744534
H	0.037173	-2.106994	0.431131
N	0.173011	-1.320836	-2.096468
O	1.300035	-1.227244	-2.579377
O	-0.488445	-2.358183	-2.040167
N	-0.043622	1.034048	-2.302781
H	-0.743342	1.759812	-2.250591
H	0.868119	1.383358	-2.03614
Br	-3.811687	0.0	0.0
