18

C	0.0	0.0	0.0
C	-0.236964	-0.057539	-1.549557
F	1.362101	0.0	0.0
H	0.632464	0.50596	-1.911998
N	-0.371683	1.306308	0.64959
O	-0.532738	1.308285	1.863485
O	-0.311919	2.30518	-0.060975
C	-0.504441	-1.123492	0.783038
N	-0.604245	-2.133904	1.37856
C	-1.447104	0.53593	-2.255981
H	-2.331029	-0.064615	-2.076806
H	-1.200187	0.573492	-3.328522
H	-1.658104	1.543348	-1.907271
C	-0.044468	-1.515488	-1.972058
H	0.023404	-1.577154	-3.062658
H	-0.89933	-2.108914	-1.642242
H	0.86465	-1.950631	-1.549594
F	-2.271897	0.0	0.0
