18

C	0.0	0.0	0.0
C	-0.19809	0.019962	-1.566728
F	1.359355	0.0	0.0
H	0.539504	-0.754064	-1.827642
N	-0.426209	1.187921	0.820646
O	-0.406112	1.013896	2.035752
O	-0.613207	2.2595	0.264297
C	-0.505661	-1.226166	0.611269
N	-0.580762	-2.31763	1.047493
C	0.32741	1.317813	-2.193987
H	1.216954	1.697711	-1.689826
H	0.59291	1.113583	-3.237116
H	-0.434433	2.095674	-2.175873
C	-1.487343	-0.396201	-2.25506
H	-2.266757	0.340786	-2.097047
H	-1.256384	-0.505205	-3.326449
H	-1.86453	-1.342404	-1.873018
F	-2.291805	0.0	0.0
