18

C	0.0	0.0	0.0
C	-0.402734	0.244646	-1.468499
F	1.358399	0.0	0.0
H	-1.367151	0.739048	-1.403031
N	-0.384977	1.158466	0.90748
O	-0.390754	0.926457	2.11254
O	-0.512179	2.265094	0.398308
C	-0.496303	-1.238984	0.59985
N	-0.585666	-2.325207	1.045238
C	-0.616144	-1.091941	-2.170219
H	-0.797892	-0.927512	-3.239897
H	-1.487931	-1.573674	-1.734058
H	0.25308	-1.75055	-2.073564
C	0.628679	1.099342	-2.208425
H	0.859349	2.014676	-1.665752
H	1.559023	0.557462	-2.394463
H	0.203886	1.383784	-3.176507
F	-2.38069	0.0	0.0
