18

C	0.0	0.0	0.0
C	-0.406639	0.176484	-1.48071
F	1.356286	0.0	0.0
H	-1.338714	0.731463	-1.44165
N	-0.388962	1.200135	0.845999
O	-0.477453	2.283497	0.280305
O	-0.437327	1.025976	2.059343
C	-0.486922	-1.213785	0.657382
N	-0.575929	-2.284522	1.137375
C	-0.721748	-1.178197	-2.106283
H	-0.931589	-1.049292	-3.173695
H	0.111115	-1.884675	-2.009467
H	-1.607848	-1.573364	-1.612605
C	0.666775	0.918676	-2.278986
H	0.250355	1.172285	-3.258309
H	1.560203	0.309088	-2.441524
H	0.962364	1.848024	-1.791362
F	-2.372943	0.0	0.0
