18

C	0.0	0.0	0.0
C	-0.338754	0.228693	-1.516571
F	1.358563	0.0	0.0
H	0.658513	0.375527	-1.953811
N	-0.348158	1.118885	0.966697
O	-0.670574	0.814475	2.106968
O	-0.122788	2.259847	0.57526
C	-0.480222	-1.263076	0.56702
N	-0.570333	-2.362217	0.976287
C	-1.187868	1.439885	-1.903243
H	-1.363623	1.394724	-2.984944
H	-0.682846	2.378726	-1.681063
H	-2.127249	1.366528	-1.360194
C	-0.931529	-1.04212	-2.129501
H	-1.019549	-0.911161	-3.213411
H	-0.305128	-1.921113	-1.949705
H	-1.911206	-1.186738	-1.677247
F	-2.364568	0.0	0.0
