18

C	0.0	0.0	0.0
C	-0.288471	-0.053035	-1.53609
F	1.361525	0.0	0.0
H	0.652048	0.341136	-1.944251
N	-0.337193	1.316397	0.66987
O	-0.142359	2.325327	-0.003882
O	-0.61871	1.304618	1.860292
C	-0.514852	-1.103186	0.806428
N	-0.57419	-2.090193	1.446275
C	-1.406317	0.744965	-2.198243
H	-1.462665	1.759148	-1.810892
H	-1.174593	0.795463	-3.273043
H	-2.363731	0.269468	-2.022539
C	-0.388685	-1.52516	-1.938036
H	0.456148	-2.114922	-1.568151
H	-0.4128	-1.606795	-3.030174
H	-1.315099	-1.931872	-1.529389
F	-2.298724	0.0	0.0
