18

C	0.0	0.0	0.0
C	-0.342171	0.154148	-1.523675
F	1.358823	0.0	0.0
H	0.655099	0.256501	-1.971428
N	-0.342226	1.174429	0.904991
O	-0.7184	0.939816	2.043849
O	-0.060068	2.284315	0.464017
C	-0.485989	-1.227613	0.635578
N	-0.570805	-2.301328	1.109206
C	-1.166165	1.368345	-1.955531
H	-2.085751	1.353336	-1.374624
H	-1.391694	1.258245	-3.022637
H	-0.628098	2.304341	-1.81593
C	-0.977085	-1.121422	-2.081501
H	-0.415958	-2.021801	-1.812468
H	-1.006002	-1.058666	-3.17549
H	-1.980948	-1.181624	-1.665484
F	-2.3713	0.0	0.0
