18

C	0.0	0.0	0.0
C	-0.305946	-0.141009	-1.529563
F	1.361451	0.0	0.0
H	0.657864	0.141782	-1.972576
N	-0.330205	1.349206	0.610743
O	-0.642881	1.391539	1.792558
O	-0.094572	2.326133	-0.095878
C	-0.513064	-1.056974	0.869004
N	-0.564524	-2.002372	1.569619
C	-1.367435	0.703417	-2.230773
H	-2.353165	0.321648	-1.996527
H	-1.326015	1.744651	-1.920235
H	-1.157517	0.657293	-3.308743
C	-0.546384	-1.619792	-1.832134
H	0.251762	-2.261081	-1.445013
H	-0.607207	-1.767394	-2.915095
H	-1.49288	-1.904782	-1.371825
F	-2.306538	0.0	0.0
