18

C	0.0	0.0	0.0
C	-0.474679	0.073614	-1.471862
F	1.387006	0.0	0.0
H	-1.554301	-0.115194	-1.487751
C	-0.460763	1.236372	0.748551
H	-1.539364	1.351894	0.64543
H	0.069801	2.114958	0.387417
H	-0.217145	1.074749	1.799667
N	-0.471184	-1.164602	0.672406
H	-0.320439	-1.987528	0.102174
H	-1.479106	-1.050121	0.791993
N	0.220723	-0.948561	-2.322391
O	0.014337	-2.122913	-2.024982
O	0.938815	-0.565766	-3.240088
N	-0.244267	1.385765	-2.152045
O	-1.125525	1.741362	-2.934113
O	0.797361	1.992505	-1.9176
Cl	-3.581648	0.0	0.0
