18

C	0.0	0.0	0.0
C	-0.499624	-0.081942	-1.447185
F	1.40321	0.0	0.0
H	-1.590404	0.045247	-1.426015
C	-0.482205	1.264766	0.668446
H	-0.100266	1.259991	1.692013
H	-1.574436	1.273154	0.669562
H	-0.102504	2.145916	0.153609
N	-0.484317	-1.172177	0.645088
H	-0.986283	-0.988043	1.498654
H	0.229252	-1.877767	0.726095
N	-0.20684	-1.386127	-2.119083
O	0.672181	-2.114559	-1.670176
O	-0.871476	-1.603776	-3.128711
N	0.122355	0.962073	-2.321397
O	1.115838	0.649515	-2.973735
O	-0.391659	2.076338	-2.284236
Cl	-3.684278	0.0	0.0
