18

C	-0.460807	-0.081101	-1.463486
C	0.0	0.0	0.0
Br	0.173936	1.636027	-2.3651
H	1.094268	0.0	0.0
C	0.249745	-1.199117	-2.203322
H	0.039424	-1.140996	-3.274013
H	1.326175	-1.116492	-2.039975
H	-0.10978	-2.161478	-1.830694
N	-1.875936	-0.199768	-1.559151
H	-2.32945	0.586431	-1.1052
H	-2.163486	-0.215654	-2.530474
C	-0.424863	-1.242528	0.801853
H	-1.505735	-1.389639	0.781746
H	0.071787	-2.126391	0.400474
H	-0.089941	-1.12288	1.834105
C	-0.548269	1.187311	0.648025
N	-1.078556	2.090068	1.182606
Cl	3.358696	0.0	0.0
