18

C	-0.448184	-0.022383	-1.470327
C	0.0	0.0	0.0
Br	0.033889	1.704596	-2.295424
H	1.096086	0.0	0.0
C	0.316854	-1.094959	-2.239611
H	-0.005401	-2.084882	-1.898571
H	0.099857	-1.017647	-3.307609
H	1.391615	-0.992551	-2.068758
N	-1.899801	-0.110382	-1.563597
H	-2.177696	0.019523	-2.531215
H	-2.174352	-1.049939	-1.290829
C	-0.433665	-1.262286	0.764225
H	-1.521355	-1.346636	0.839895
H	-0.025622	-1.208777	1.77507
H	-0.019107	-2.157199	0.29806
C	-0.515714	1.168652	0.707395
N	-0.916322	2.072259	1.342011
Cl	3.376068	0.0	0.0
