18

C	-0.383619	0.035633	-1.505374
C	0.0	0.0	0.0
Br	0.05006	-1.738277	-2.278897
H	1.096794	0.0	0.0
C	-1.858695	0.282035	-1.768538
H	-2.145464	1.257859	-1.364989
H	-2.477112	-0.48577	-1.301441
H	-2.035592	0.27638	-2.844401
N	0.414988	0.995679	-2.23256
H	1.393438	0.867913	-1.970345
H	0.139288	1.926575	-1.930682
C	-0.534623	-1.144675	0.85671
H	-1.627677	-1.188761	0.848037
H	-0.201087	-1.00552	1.887375
H	-0.133016	-2.090966	0.497505
C	-0.429949	1.283245	0.559743
N	-0.830635	2.308701	0.972931
Cl	3.337648	0.0	0.0
