18

C	-0.27416	-0.038406	-1.507141
C	0.0	0.0	0.0
Br	-2.230973	-0.267452	-1.85168
H	1.100802	0.0	0.0
C	0.138499	1.260389	-2.184926
H	1.204681	1.409526	-1.982698
H	-0.423887	2.117102	-1.810213
H	-0.017612	1.182576	-3.264338
N	0.390653	-1.212946	-2.02241
H	1.380553	-1.139708	-1.76744
H	0.315183	-1.224923	-3.036077
C	-0.47965	-1.227055	0.772374
H	-0.17	-2.123116	0.235676
H	-0.018416	-1.22934	1.762482
H	-1.566294	-1.229024	0.881372
C	-0.490791	1.228054	0.611283
N	-0.904426	2.199451	1.128147
Cl	3.350869	0.0	0.0
