18

C	-0.227185	-0.030201	-1.527544
C	0.0	0.0	0.0
Br	-2.165692	-0.285415	-1.923535
H	1.100072	0.0	0.0
C	0.220562	1.273746	-2.159987
H	-0.363148	2.119294	-1.795502
H	0.124106	1.196972	-3.243555
H	1.273328	1.424615	-1.895034
N	0.482823	-1.114811	-2.170598
H	1.472298	-0.980872	-1.94879
H	0.20312	-2.000938	-1.765683
C	-0.471595	-1.226523	0.776731
H	-1.560131	-1.311125	0.776008
H	-0.117474	-1.153746	1.806951
H	-0.037834	-2.132928	0.350863
C	-0.517894	1.215422	0.612623
N	-0.96941	2.174138	1.121248
Cl	3.322273	0.0	0.0
