18

C	-0.47501	-0.063172	-1.472147
C	0.0	0.0	0.0
Br	0.067216	1.634808	-2.328151
H	1.095143	0.0	0.0
C	0.240908	-1.183612	-2.206225
H	1.316613	-1.107522	-2.033352
H	-0.110381	-2.153807	-1.84013
H	0.020185	-1.120693	-3.272257
N	-1.907277	-0.170447	-1.672347
H	-2.383988	0.547638	-1.135219
H	-2.212044	-1.077857	-1.33523
C	-0.411269	-1.249359	0.796864
H	-1.496574	-1.383408	0.835863
H	0.05659	-2.138553	0.372948
H	-0.042638	-1.147897	1.819305
C	-0.550962	1.172184	0.671212
N	-1.091516	2.061112	1.218175
Cl	3.355796	0.0	0.0
