16

C	-0.295606	-0.064216	-1.468926
C	0.0	0.0	0.0
F	-0.141247	1.176103	-2.037379
H	1.093751	0.0	0.0
H	0.342737	-0.7721	-1.988931
N	-1.718541	-0.462759	-1.825869
O	-2.618071	-0.16863	-1.042036
O	-1.87582	-1.004899	-2.918524
N	-0.398597	-1.266411	0.606063
O	-0.47868	-2.254982	-0.137415
O	-0.571849	-1.313316	1.82477
C	-0.494687	1.201032	0.767055
H	-0.20591	2.09783	0.218375
H	-1.575425	1.195869	0.919501
H	0.009419	1.22397	1.732746
F	2.503408	0.0	0.0
