16

C	-0.529124	0.060138	-1.406559
C	0.0	0.0	0.0
F	0.040408	-0.898458	-2.181857
H	1.0911	0.0	0.0
H	-1.612448	-0.020024	-1.495576
N	-0.184217	1.405331	-2.002836
O	-0.973052	2.313587	-1.735
O	0.819061	1.50143	-2.69338
N	-0.489006	-1.276826	0.593379
O	0.084623	-1.664048	1.607986
O	-1.445119	-1.870156	0.073665
C	-0.453669	1.13697	0.899019
H	0.026774	2.061362	0.581224
H	-1.540037	1.282185	0.896539
H	-0.106865	0.919175	1.909702
F	2.519797	0.0	0.0
