16

C	-0.416124	-0.304493	-1.408946
C	0.0	0.0	0.0
F	0.211675	0.519666	-2.285795
H	1.098244	0.0	0.0
H	-0.244701	-1.343587	-1.679878
N	-1.909711	-0.062609	-1.583482
O	-2.636212	-0.849552	-0.980822
O	-2.287005	0.894824	-2.25096
N	-0.384387	-1.110722	0.886619
O	-0.7532	-0.838688	2.032303
O	-0.238244	-2.263115	0.471553
C	-0.491457	1.336672	0.498524
H	0.035525	1.590541	1.416967
H	-1.568608	1.356647	0.69204
H	-0.242395	2.089291	-0.252939
F	2.501128	0.0	0.0
