16

C	-0.435851	0.139166	-1.422102
C	0.0	0.0	0.0
F	-1.79382	0.334102	-1.599567
H	1.099278	0.0	0.0
H	0.100328	0.972102	-1.875752
N	-0.113475	-1.047216	-2.292063
O	0.504137	-0.819282	-3.331322
O	-0.552318	-2.137649	-1.939614
N	-0.550082	-1.237892	0.627917
O	-1.738226	-1.230718	0.965038
O	0.209379	-2.188419	0.794291
C	-0.469995	1.205565	0.795084
H	-0.08381	1.122238	1.8128
H	-0.030958	2.104699	0.356568
H	-1.556657	1.296243	0.824346
F	2.548843	0.0	0.0
