12
Coordinates from ORCA-job run
  C   -0.42516839942041      0.60566026357779     -0.29685496742766
  C   0.92196553117299      0.60466754747147      0.42168480391817
  F   -0.17512947267117      0.71716985817177     -1.66139164137565
  H   1.48164080820612      1.49813355339592      0.13303043084856
  H   -0.96958846117214      1.50853575563893     -0.00109816797356
  H   0.76395382280964      0.64507127582124      1.50364526238163
  C   -1.25431667340253     -0.63235060794536     -0.05250630440173
  H   -1.47528805498201     -0.74593255677069      1.01145755084268
  H   -2.19648909120342     -0.55923871423505     -0.59724309859640
  H   -0.72066025841931     -1.51870583310226     -0.39936729721395
  C   1.71565262173788     -0.57993692920737      0.09806559008748
  N   2.33342762734436     -1.54307361281639     -0.15942216108957
