12
Coordinates from ORCA-job run
  C   -0.43889701946613      0.60137358067670     -0.28409501089403
  C   0.94018338374455      0.60971409284528      0.37071524928528
  F   -0.25280477087591      0.69670904080875     -1.66004038733805
  H   1.48494898076163      1.49944248945055      0.04441012250279
  H   -0.96967662173494      1.50755421143755      0.02595599939965
  H   0.83295266093074      0.66453467836706      1.45823059275018
  C   -1.25522289819959     -0.63352079464721      0.01311797888092
  H   -2.21968552174505     -0.56791656269901     -0.49235211637569
  H   -0.73613984109605     -1.52494538739452     -0.34303728014983
  H   -1.43104333719736     -0.73160086391852      1.08711681937689
  C   1.71952718596442     -0.57840515741939      0.02607638537135
  N   2.32685779891370     -1.54393932750724     -0.24709835280945
