12
Coordinates from ORCA-job run
  C   -0.42536849625044      0.60025274485843     -0.30642077701321
  C   0.94258359606637      0.60540864153722      0.37146925429749
  F   -0.21467529922516      0.65705191293824     -1.68098313586841
  H   0.81803268360327      0.68690056067917      1.45550012660844
  H   -0.94767791894661      1.52182535730609     -0.02898803089693
  H   1.50508618103327      1.47980854673328      0.03392547272266
  C   -1.26474356693426     -0.61462716841735      0.00865757330218
  H   -0.75315480699128     -1.52232938322563     -0.31548169631636
  H   -2.21966377718383     -0.54894029878581     -0.51444147516735
  H   -1.45959782982295     -0.68198215368510      1.08159732516953
  C   1.71068337947616     -0.60112170168929      0.06776622626462
  N   2.30849585517546     -1.58124705824926     -0.17260086310267
