18

C	-0.4449	0.062986	-1.485253
C	-0.001472	0.041467	-0.023541
F	-0.504786	-1.230173	-1.948294
H	1.08942	0.057605	0.003517
N	-1.905647	0.524387	-1.606465
O	-2.252923	1.08474	-2.64311
O	-2.656615	0.219691	-0.683115
C	0.453094	0.841551	-2.404664
H	0.41011	1.902549	-2.176998
H	0.158768	0.668386	-3.439461
H	1.468236	0.476045	-2.23127
N	-0.330931	-1.128418	0.697984
H	0.47603	-1.335407	1.284236
H	-1.161969	-1.002399	1.257565
N	-0.404327	1.299293	0.641736
O	-0.55348	2.314534	-0.055452
O	-0.481215	1.294685	1.873079
H	2.468783	-0.322041	0.39935
