18

C	-0.484454	-0.069543	-1.489578
C	0.114012	0.047399	-0.085479
F	-1.846511	-0.201638	-1.400777
H	1.148035	0.413578	-0.133573
N	-0.229317	1.186064	-2.313558
O	-1.190308	1.80263	-2.756429
O	0.95241	1.452722	-2.507004
C	0.089781	-1.231495	-2.255164
H	-0.13895	-2.135323	-1.69539
H	-0.354171	-1.263638	-3.253694
H	1.171718	-1.12777	-2.327979
N	0.105316	-1.164049	0.611133
H	1.027958	-1.106962	1.201611
H	-0.72037	-1.233352	1.194445
N	-0.663676	1.185849	0.602942
O	-1.348185	0.9172	1.584382
O	-0.555016	2.305328	0.104151
H	2.299797	-0.645027	1.594577
