14
Coordinates from ORCA-job run
  C   0.76300001914550      0.26275507804646      0.66262322833137
  C   -0.44243591847981      0.20408609587948     -0.28288840905320
  Cl  0.50317326252095     -0.60215271752058      2.16084660467706
  H   -0.12141749129887      0.73992438913503     -1.18539525966511
  H   1.03682581376590      1.29237527658279      0.89483801886139
  N   1.94670594708993     -0.29221227200867     -0.10412012942089
  O   2.43130769399266     -1.36561174362070      0.20696731611023
  O   2.29856992550943      0.43233046826064     -1.03223899231253
  N   -1.58579142595979      0.81202197531604      0.38737616064016
  H   -2.38478722277750      0.77461916247255     -0.23451012468457
  H   -1.40810098492153      1.78857683810020      0.59931401322838
  N   -0.66872961939387     -1.16525922538565     -0.65836879306512
  H   -1.22051263104269     -1.22781626364658     -1.50279792936527
  H   -1.14680736815033     -1.65363706161102      0.08935429571810
