14
Coordinates from ORCA-job run
  C   0.84540818352498      0.45327027315178      0.40105398038024
  C   -0.58520347357897     -0.04418600248927      0.21789350548298
  Cl  1.19873478948301      0.87224892790112      2.07434584957547
  H   -0.79212900279577     -0.77115337343504      1.01179050920583
  H   1.04210601538809      1.31557292639125     -0.23334133996138
  N   1.82848186271271     -0.60100078349765     -0.02530849733357
  O   2.81233017230257     -0.22313356665282     -0.65099624172069
  O   1.57623013486105     -1.75805718613486      0.30461596803516
  N   -0.67431948284363     -0.59453853369462     -1.13433996714883
  H   -0.28194428639110     -1.52855025313876     -1.16710389028671
  H   -1.65072930137610     -0.66136321676496     -1.39387557412428
  N   -1.45222539341352      1.09212793827171      0.40352786332414
  H   -1.47564814118501      1.64572644243383     -0.44521537371917
  H   -2.39209207668831      0.80303640765829      0.63595320829081
