14
Coordinates from ORCA-job run
  C   0.76625072380236      0.12171592639030      0.81523168378755
  C   -0.66623489855381     -0.10754612978277      0.32199101013570
  Cl  1.33645130999074     -1.14523131828588      1.88366082026478
  H   -1.29244334053366     -0.07104912552492      1.22596641226126
  H   0.84590866591209      1.07260387360524      1.33982957188160
  N   1.68704091518824      0.26829017170632     -0.36822394296807
  O   1.84717118673415     -0.71043542368960     -1.08667314552682
  O   2.17707591925517      1.38104619171880     -0.53156759287977
  N   -0.83810703425639     -1.41133667351599     -0.24886046728133
  H   -1.81876481895086     -1.62517605457889     -0.36609459161045
  H   -0.36222563580488     -1.47636355925006     -1.13939995406672
  N   -0.92867094982214      0.97293716164453     -0.62933511322916
  H   -1.84715070837307      0.84612601801711     -1.03594645856304
  H   -0.90730133458797      1.88341894154582     -0.18157823220552
