14
Coordinates from ORCA-job run
  C   0.67137122943643      0.13271166605565      0.84454691095847
  C   -0.72181440844650     -0.11125880043932      0.21011028063724
  Cl  1.04399444492355     -1.10716576130119      2.03808807031369
  H   -1.38887226926834     -0.29446342047148      1.06461763537198
  H   0.71962769034057      1.10805661827483      1.32895635656986
  N   1.71260857041217      0.16185326600226     -0.24305100373361
  O   1.62254511637824      1.14944787156844     -0.97347787544677
  O   2.48276822318132     -0.77324447638872     -0.38649551234926
  N   -0.60274702789959     -1.23679925441416     -0.69029396533657
  H   -0.85088932195437     -2.10883745146639     -0.24547777673779
  H   -1.20843835581611     -1.08512898914016     -1.48563538288331
  N   -1.26523541212906      1.00979005364902     -0.52767379408578
  H   -1.68914707773869      1.67581977847941      0.10622344168709
  H   -0.52677140141963      1.47921889959181     -1.04043738496525
