14

C	-0.325466	0.021083	-1.482041
C	0.0	0.0	0.0
Cl	-2.042926	-0.322008	-1.870752
H	1.096944	0.0	0.0
C	0.037771	1.300179	-2.080475
N	0.271073	2.348724	-2.559116
N	0.498865	-1.091399	-2.176662
O	0.364267	-2.209672	-1.707359
O	1.191991	-0.759716	-3.128003
C	-0.484722	-1.166636	0.706655
N	-0.792965	-2.075195	1.388819
C	-0.459513	1.210083	0.645166
N	-0.762314	2.206903	1.194335
H	2.397903	0.0	0.0
