14

C	-0.354995	-0.010026	-1.465436
C	0.0	0.0	0.0
Cl	0.206052	1.481719	-2.239008
H	1.098448	0.0	0.0
C	0.223744	-1.168517	-2.14263
N	0.668444	-2.099489	-2.706014
N	-1.893773	-0.076801	-1.741159
O	-2.221033	-0.342774	-2.890241
O	-2.636707	0.166321	-0.802347
C	-0.441121	-1.217196	0.646493
N	-0.735476	-2.242039	1.14508
C	-0.440256	1.188113	0.698113
N	-0.688963	2.169399	1.297846
H	2.39695	0.0	0.0
