14

C	-0.446906	-0.016731	-1.452573
C	0.0	0.0	0.0
Cl	0.354121	-1.362367	-2.307957
H	1.095633	0.0	0.0
C	-1.889661	-0.132554	-1.639067
N	-3.056908	-0.242694	-1.743938
N	-0.00877	1.287737	-2.152739
O	0.77059	2.008911	-1.549323
O	-0.458592	1.451061	-3.281598
C	-0.424407	-1.22391	0.655016
N	-0.688348	-2.231478	1.20289
C	-0.511555	1.155568	0.710016
N	-0.879463	2.091077	1.323404
H	2.401602	0.0	0.0
