14

C	-0.327806	-0.006558	-1.481496
C	0.0	0.0	0.0
Cl	-2.042494	-0.36577	-1.862461
H	1.097017	0.0	0.0
C	0.027008	1.263854	-2.102316
N	0.255406	2.303994	-2.600406
N	0.499677	-1.125587	-2.160503
O	0.395178	-2.230863	-1.656182
O	1.159829	-0.813475	-3.140332
C	-0.484755	-1.152797	0.729404
N	-0.826688	-2.05897	1.398027
C	-0.45701	1.222372	0.623805
N	-0.758194	2.22995	1.153594
H	2.400168	0.0	0.0
