16
Coordinates from ORCA-job run
  C   0.93595041709299      0.32259987615635      0.36137826365709
  C   -0.47978143541597      0.53087311338315     -0.15768503878422
  F   1.63014676685020      1.52347468450550      0.23275351938650
  H   -0.37464462220566      0.98366457766556     -1.15087984808387
  H   0.89487380598285      0.10107116475064      1.43645302236894
  C   1.72935467929347     -0.74135227548721     -0.36722965349485
  H   1.34086932760532     -1.74138920539518     -0.16991301694640
  H   1.71022866339751     -0.55889106622256     -1.44466446861514
  H   2.76752501283949     -0.70492830782185     -0.03336762964586
  N   -1.14607433545100      1.51721256126179      0.69256321797136
  H   -1.42996178792225      1.07605031520590      1.56137049574343
  H   -1.98927106658394      1.84667226168300      0.23783613289611
  C   -1.24205439189557     -0.78990350576863     -0.28121263421758
  H   -2.27870311703465     -0.59036093942749     -0.56327598749633
  H   -1.25497113278531     -1.31771683568616      0.67890908281505
  H   -0.81348678376751     -1.45707641880282     -1.03203545755423
