16
Coordinates from ORCA-job run
  C   0.88137158247528      0.48223429740036     -0.47489312173387
  C   -0.61562906876097      0.50745808238322     -0.18038942598956
  F   1.03716942020160      0.31566047292816     -1.85729142947596
  H   -1.04658074148519      1.23497809078014     -0.88676305990730
  H   1.30051749103869      1.46881869131605     -0.23984421149635
  C   1.65748389561561     -0.59909751173731      0.23688871747843
  H   2.72635514217247     -0.47850871841496      0.05123510500512
  H   1.35993350500081     -1.58340245376492     -0.12744547271145
  H   1.46908466870393     -0.54154365905953      1.30924973371826
  N   -0.79183184522867      0.89903459934460      1.21944227794843
  H   -1.75972762840915      0.76928159912934      1.48937356414519
  H   -0.58201434765834      1.88463572991735      1.33337582065825
  C   -1.27893303329802     -0.83806368562590     -0.42259851761228
  H   -1.01786157626283     -1.22172185327656     -1.41001578477695
  H   -2.36721819431492     -0.73856222190680     -0.37710264757028
  H   -0.97311926979028     -1.56020145941325      0.33677845232031
