16
Coordinates from ORCA-job run
  C   0.86647680231532      0.25558589827203      0.40680118762067
  C   -0.54757193447639      0.40995123752243     -0.11998105258538
  F   1.43975679359268      1.54087708837247      0.43039633047623
  H   -0.45734847933412      0.83629468848119     -1.13394197124385
  H   0.81870156780992     -0.07353673073504      1.45023691441712
  C   1.76562410161040     -0.63426855124559     -0.41877611549282
  H   2.79168987909209     -0.54772210694743     -0.05766973251096
  H   1.46373702748862     -1.67992243572629     -0.34174612586128
  H   1.74355695103546     -0.33448503997844     -1.46914785312710
  N   -1.26845512481992      1.28613156594494      0.80145640744327
  H   -2.18986833041537      1.48713376424751      0.43068333375512
  H   -0.77212143616556      2.16636105009759      0.87347360206828
  C   -1.26715570354467     -0.92782509224289     -0.20007131997483
  H   -2.31310143961558     -0.77604782289518     -0.47963072955886
  H   -1.25294385799752     -1.42068520627537      0.77525249045658
  H   -0.81997681657536     -1.58784230689194     -0.94533536588219
