15

C	-0.396387	-0.02286	-1.472947
C	0.0	0.0	0.0
Cl	0.169598	-1.576792	-2.168648
H	1.092162	0.0	0.0
H	0.190251	0.74972	-1.965892
C	-1.880537	0.125646	-1.741354
H	-2.226908	1.088515	-1.360685
H	-2.082963	0.084058	-2.813928
H	-2.436187	-0.678612	-1.254067
C	-0.576557	-1.078915	0.769336
N	-1.027092	-1.985078	1.367997
N	-0.356219	1.299922	0.606846
O	-0.325441	2.291507	-0.128225
O	-0.577808	1.341603	1.816952
F	2.447033	0.0	0.0
