15

C	-0.24029	0.052825	-1.504347
C	0.0	0.0	0.0
Cl	-1.981349	0.328354	-1.920377
H	1.093632	0.0	0.0
H	-0.028988	-0.962394	-1.845093
C	0.669773	1.014943	-2.243416
H	0.675811	0.76996	-3.307062
H	0.349053	2.044826	-2.110292
H	1.660888	0.880907	-1.80165
C	-0.554405	-1.201239	0.5904
N	-0.930321	-2.224581	1.029935
N	-0.47033	1.201382	0.722052
O	-1.108732	1.050595	1.765546
O	-0.154081	2.291896	0.250774
F	2.506776	0.0	0.0
