15

C	-0.276764	0.065629	-1.493478
C	0.0	0.0	0.0
Cl	-2.021986	0.380047	-1.866265
H	1.093641	0.0	0.0
H	-0.100836	-0.952618	-1.846133
C	0.640345	1.008133	-2.249542
H	1.642516	0.836744	-1.842704
H	0.60569	0.782935	-3.319307
H	0.356449	2.04531	-2.087702
C	-0.545071	-1.19862	0.603641
N	-0.939561	-2.216781	1.039434
N	-0.423543	1.194896	0.761842
O	-0.824663	1.034285	1.914704
O	-0.284556	2.289619	0.218621
F	2.498987	0.0	0.0
