15

C	-0.406163	-0.079395	-1.469522
C	0.0	0.0	0.0
Cl	0.060159	1.460555	-2.268707
H	1.091928	0.0	0.0
H	-1.487825	-0.156509	-1.594211
C	0.370919	-1.222731	-2.098755
H	1.417401	-1.099885	-1.805904
H	-0.00139	-2.17761	-1.71563
H	0.263501	-1.21661	-3.184834
C	-0.509041	-1.159831	0.710347
N	-0.917422	-2.116779	1.259318
N	-0.592578	1.208318	0.659163
O	-1.77264	1.464473	0.405914
O	0.119933	1.852834	1.420656
F	2.524454	0.0	0.0
