18

C	-0.373034	-0.086667	-1.494672
C	0.0	0.0	0.0
Cl	0.180393	1.384467	-2.295462
H	1.090577	0.0	0.0
C	0.312666	-1.289769	-2.113313
H	-0.047991	-2.203727	-1.642665
H	0.107539	-1.326427	-3.185223
H	1.387104	-1.185197	-1.942237
N	-1.882658	-0.234246	-1.714375
O	-2.361961	-1.269386	-1.247159
O	-2.509274	0.60767	-2.336599
N	-0.428653	-1.056031	0.857496
H	0.325745	-1.71176	1.000885
H	-1.277867	-1.506746	0.550779
N	-0.548954	1.283673	0.559355
O	0.210657	2.060883	1.121456
O	-1.769429	1.425252	0.444162
Br	3.458946	0.0	0.0
