18

C	-0.429216	0.030542	-1.463188
C	0.0	0.0	0.0
Cl	0.383272	1.340849	-2.325283
H	1.091338	0.0	0.0
C	-0.061997	-1.283115	-2.132859
H	1.008994	-1.441233	-1.985012
H	-0.284175	-1.220727	-3.199502
H	-0.610338	-2.099914	-1.664807
N	-1.942132	0.194754	-1.605992
O	-2.615851	-0.214173	-0.6621
O	-2.391608	0.612812	-2.664078
N	-0.378216	-1.191851	0.689317
H	-1.326345	-1.144186	1.0349
H	0.273043	-1.345457	1.447401
N	-0.44961	1.245712	0.746742
O	-1.057716	2.12938	0.146096
O	-0.180673	1.26553	1.943333
Br	3.402267	0.0	0.0
