18

C	-0.534414	-0.028051	-1.459486
C	0.0	0.0	0.0
Cl	0.089952	-1.504216	-2.218444
H	1.09003	0.0	0.0
C	-2.041854	0.003045	-1.597945
H	-2.309259	-0.010984	-2.655416
H	-2.456812	0.895945	-1.137539
H	-2.468016	-0.882991	-1.126341
N	0.057903	1.168895	-2.214582
O	-0.685181	2.146939	-2.311691
O	1.202905	1.084207	-2.62824
N	-0.426164	-1.065454	0.837697
H	0.213962	-1.838905	0.755468
H	-1.382424	-1.351544	0.701819
N	-0.48129	1.303336	0.592734
O	0.220244	2.294586	0.418311
O	-1.56517	1.285513	1.179373
Br	3.473605	0.0	0.0
