18

C	-0.496203	0.00484	-1.468484
C	0.0	0.0	0.0
Cl	-0.092899	-1.608691	-2.142268
H	1.09552	0.0	0.0
C	-1.966934	0.276756	-1.626409
H	-2.496031	-0.417056	-0.975428
H	-2.259423	0.137915	-2.664665
H	-2.173275	1.309399	-1.343875
N	0.301914	0.992602	-2.340165
O	-0.356778	1.721712	-3.094747
O	1.516717	0.947091	-2.280088
N	-0.634874	-1.091166	0.717905
H	0.057372	-1.834115	0.788145
H	-0.799618	-0.744622	1.656753
N	-0.396695	1.280547	0.589117
O	-0.746974	1.32684	1.777521
O	-0.126288	2.297269	-0.051672
Br	3.189404	0.0	0.0
