18

C	-0.367606	-0.055426	-1.496454
C	0.0	0.0	0.0
Cl	0.177119	1.43626	-2.264504
H	1.09059	0.0	0.0
C	0.331621	-1.238155	-2.138138
H	-0.022912	-2.165588	-1.689124
H	1.404534	-1.127675	-1.95895
H	0.133495	-1.253262	-3.21185
N	-1.874984	-0.212717	-1.72892
O	-2.348144	-1.258245	-1.277229
O	-2.503615	0.630455	-2.348906
N	-0.428078	-1.075936	0.832588
H	-1.263035	-1.536727	0.50532
H	0.333567	-1.719968	0.985163
N	-0.5531	1.270014	0.585682
O	-1.769517	1.4238	0.452996
O	0.200719	2.023961	1.184836
Br	3.458281	0.0	0.0
