16

C	0.0	0.0	0.0
C	-0.486656	0.123404	-1.452513
F	1.377635	0.0	0.0
H	-0.242261	-0.810924	-1.96198
C	-0.445425	1.100497	0.871351
N	-0.765058	1.949561	1.61726
C	-0.452228	-1.291153	0.546178
N	-0.680095	-2.374927	0.938529
N	0.361096	1.157279	-2.134859
O	0.489327	2.240923	-1.57239
O	0.828981	0.853446	-3.22966
C	-1.946172	0.497791	-1.57515
H	-2.617968	-0.168999	-1.022646
H	-2.121474	1.497959	-1.178362
H	-2.241458	0.469142	-2.626226
Br	-4.970241	0.0	0.0
