16

C	0.0	0.0	0.0
C	-0.526304	0.165605	-1.428325
F	1.372938	0.0	0.0
H	-1.623447	0.042692	-1.363657
C	-0.418912	1.155949	0.819421
N	-0.596183	2.103008	1.491409
C	-0.427036	-1.238708	0.685722
N	-0.564849	-2.196843	1.352818
N	-0.022822	-0.950026	-2.297681
O	0.473569	-1.939763	-1.763777
O	-0.187693	-0.814433	-3.50963
C	-0.15569	1.507272	-2.031452
H	-0.514181	1.550969	-3.058122
H	0.927367	1.657612	-2.020884
H	-0.639104	2.303523	-1.463988
Br	-3.503598	0.0	0.0
