16

C	0.0	0.0	0.0
C	-0.534358	-0.251421	-1.413352
F	1.372585	0.0	0.0
H	-1.620563	-0.409807	-1.295961
C	-0.412389	1.340378	0.466334
N	-0.532102	2.443267	0.854236
C	-0.42685	-1.0044	0.996828
N	-0.577513	-1.808031	1.840258
N	0.030269	-1.52765	-1.95855
O	-0.114795	-1.717594	-3.165124
O	0.544271	-2.328043	-1.180385
C	-0.250558	0.899357	-2.357819
H	-0.806914	1.776668	-2.024142
H	-0.589069	0.638511	-3.358683
H	0.816936	1.132759	-2.388339
Br	-3.490296	0.0	0.0
