13

C	0.0	0.0	0.0
C	-0.508694	-0.263379	-1.47018
Br	1.945242	0.0	0.0
H	0.375718	-0.382775	-2.108881
H	-0.331548	-0.770283	0.690176
H	-0.32308	0.967021	0.375844
N	-1.310536	0.839369	-1.973851
H	-2.112137	0.831854	-1.318542
H	-0.782874	1.694586	-1.829462
N	-1.309799	-1.475149	-1.559562
H	-2.116425	-1.238325	-0.954945
H	-0.786155	-2.223721	-1.11526
F	-2.861398	0.0	0.0
