13

C	0.0	0.0	0.0
C	-0.566819	0.137523	-1.383828
Br	1.956756	0.0	0.0
H	-1.660997	0.109252	-1.105946
H	-0.324444	-0.939354	0.433167
H	-0.324757	0.833865	0.611288
N	-0.219033	-1.032476	-2.192875
H	0.739126	-0.945973	-2.525004
H	-0.82535	-1.050218	-3.005224
N	-0.219819	1.445334	-1.945964
H	-0.817254	1.614398	-2.746524
H	0.741394	1.429198	-2.277349
F	-2.823222	0.0	0.0
