13
Coordinates from ORCA-job run
  C   0.94377120696486     -0.41826944912466     -0.49847941347974
  C   -0.42444857461093      0.18570356636081     -0.17343717571544
  F   0.96580479382916     -0.92694101812757     -1.77727133650567
  H   -0.58299856445055      1.01241999887523     -0.87200543300119
  H   1.15739352165558     -1.24384454771592      0.19297125509072
  C   2.00683666883088      0.58934151237574     -0.37081834665489
  N   2.88180383598940      1.36527376143887     -0.27975145275890
  N   -0.31282384563389      0.75170247138450      1.16305763650323
  H   -0.38531812873271      0.02360373485201      1.86452003191568
  H   -1.04663650877638      1.42614737101975      1.33561254746673
  N   -1.44341477192705     -0.81012319026303     -0.43968543452770
  H   -1.39519618886960     -1.56221250147839      0.23880836948242
  H   -2.36477344426878     -0.39480170959734     -0.38352124781523
