13
Coordinates from ORCA-job run
  C   0.81067609048207     -0.29434819951353     -0.77233206645167
  C   -0.29378461295307     -0.29623876707489      0.28447666682299
  F   0.39096880780721      0.39359178351393     -1.89162623442976
  H   0.04399409876908     -0.97962507189048      1.08002032856409
  H   1.01362284968980     -1.32642181300627     -1.06744617556605
  C   2.03888576271400      0.32778595264992     -0.25361471676362
  N   2.99853750273821      0.81410365747967      0.21476155289358
  N   -1.45685652612623     -0.89320651095822     -0.32951172940469
  H   -1.85906811828029     -0.21932667343123     -0.97088246190741
  H   -2.15042504767466     -1.12322742457691      0.37033174113283
  N   -0.53135323132957      1.06970508900641      0.73517953062128
  H   -1.29113776516484      1.07343441445966      1.40464652052382
  H   0.28594018932831      1.45677356334195      1.19499704396461
