13
Coordinates from ORCA-job run
  C   0.86002607538181     -0.45617748358324     -0.38687440356789
  C   -0.45040396051476      0.28405434373391     -0.09156365529382
  F   0.73688306513973     -1.13150253494345     -1.59257562454839
  H   -0.54525083172487      1.07688087622100     -0.84014813868889
  H   1.04789516392860     -1.20659095366479      0.39030360869156
  C   2.00114243869055      0.46171155516970     -0.46979470406945
  N   2.91405991542923      1.19264086382366     -0.56490831941729
  N   -0.29466107790129      0.90067761716310      1.20331827155026
  H   -0.30195353424672      0.19388779317960      1.93118385070764
  H   -1.07832139987873      1.51797222868873      1.37631793887234
  N   -1.62707804502922     -0.56002968590046     -0.21075084254737
  H   -1.55222312575190     -1.35775747301585      0.41251125998117
  H   -1.71011468352243     -0.91676714687191     -1.15601924166987
