18

C	-0.463096	0.031897	-1.451126
C	0.0	0.0	0.0
F	-0.237783	-1.261863	-1.977546
H	1.095233	0.0	0.0
H	-0.346318	-0.943631	0.435409
C	-1.953751	0.276119	-1.611935
H	-2.521454	-0.427551	-0.995631
H	-2.235876	0.126053	-2.657575
H	-2.22394	1.293497	-1.320466
C	0.37616	0.98128	-2.285372
H	0.2266	2.015953	-1.966349
H	1.431661	0.732631	-2.15786
H	0.100599	0.897426	-3.340807
C	-0.48498	1.179764	0.840025
H	-0.011557	1.144238	1.823649
H	-0.201268	2.133691	0.387096
H	-1.569545	1.177788	0.985722
Cl	3.657399	0.0	0.0
