18

C	0.0	0.0	0.0
C	-0.550662	0.233797	-1.400231
F	1.364903	0.0	0.0
H	-1.649842	0.286024	-1.270728
N	-0.583569	1.049705	0.843725
O	-0.24149	2.230616	0.574711
O	-1.758496	0.678868	1.288112
C	-0.435088	-1.362465	0.497354
H	-1.509256	-1.482509	0.346223
H	0.117537	-2.125264	-0.051579
H	-0.215373	-1.422965	1.564833
N	-0.180221	-0.823608	-2.292764
H	-0.684728	-0.727572	-3.166178
H	0.814107	-0.757828	-2.47904
N	-0.130726	1.571513	-1.983397
O	-1.009387	2.395751	-2.223968
O	1.052639	1.68741	-2.310409
H	-2.925843	0.0	0.0
