18

C	0.0	0.0	0.0
C	-0.569104	0.150213	-1.411157
F	1.357901	0.0	0.0
H	-1.653176	0.30316	-1.262522
N	-0.586153	1.097217	0.783684
O	-1.757054	0.746601	1.25327
O	-0.248818	2.262508	0.451418
C	-0.437788	-1.32585	0.589638
H	-0.21787	-1.318349	1.657798
H	-1.513528	-1.456187	0.452704
H	0.125142	-2.129893	0.109931
N	-0.355885	-0.960496	-2.306875
H	0.569773	-1.348108	-2.172256
H	-1.050211	-1.669781	-2.113299
N	-0.044346	1.359202	-2.12614
O	1.146797	1.340503	-2.433701
O	-0.843153	2.235617	-2.443498
H	-2.936755	0.0	0.0
