18

C	0.0	0.0	0.0
C	-0.563985	0.315825	-1.42627
F	1.362688	0.0	0.0
H	-0.810149	1.373932	-1.47294
N	-0.321887	1.177735	0.934879
O	-0.178598	2.304505	0.468336
O	-0.56902	0.92307	2.108183
C	-0.511766	-1.277293	0.58609
H	-1.600245	-1.203398	0.676278
H	-0.051335	-1.439873	1.560083
H	-0.235204	-2.092131	-0.087116
N	-1.663473	-0.446824	-1.893469
H	-2.476503	-0.242786	-1.225713
H	-1.449861	-1.434916	-1.809857
N	0.608867	0.137223	-2.360363
O	1.216572	1.138432	-2.728444
O	0.891516	-1.017498	-2.673575
H	-3.375951	0.0	0.0
