13
Coordinates from ORCA-job run
  C   0.62103861567397     -0.57004451582889     -0.20485036022505
  C   -0.31342868155926      0.56314238659115      0.16110505399588
  Cl  0.47791316175247     -1.04307400640808     -1.90174937376500
  H   -0.04400549994865      0.88377818220696      1.17394821347811
  H   0.47625698916434     -1.45820576090999      0.40719359512951
  H   -0.11267667589979      1.39827436305968     -0.51363956388672
  N   2.04028591972852     -0.13534721320808      0.06414016667227
  O   2.63483785383458     -0.75163426775145      0.94546088919582
  O   2.46455763227026      0.82097706678511     -0.57161682205157
  C   -1.77893557816879      0.14845639926002      0.11565548725302
  H   -2.41411849830623      0.97921268599983      0.42781017841407
  H   -2.07848427257929     -0.14345915295162     -0.89140651274052
  H   -1.97224096596214     -0.69107616684464      0.78794904853018
