13
Coordinates from ORCA-job run
  C   0.84468751163920     -0.49459940148523      0.34186102558534
  C   -0.64284592429842     -0.54014158760433     -0.00979786904489
  Cl  1.53052624542147     -2.08641869857905      0.63857443990820
  H   -0.74128600736743     -0.77417359622621     -1.07426385052100
  H   1.03818408017833      0.12843034822537      1.21379258765857
  H   -1.08732114450656     -1.37573917855587      0.53455122152514
  N   1.57458064897716      0.19565711422821     -0.79278315357312
  O   2.07729657904159     -0.47327184720707     -1.68275810329410
  O   1.45282499761022      1.41903830199237     -0.78399060760157
  C   -1.36900609867617      0.75717475400023      0.33543418732851
  H   -2.40961898917022      0.70661471358674      0.00899804806272
  H   -0.90144014100284      1.61565359068281     -0.14617764092054
  H   -1.36658175784633      0.92277548694202      1.41555971488673
