12

C	-0.593389	-0.004641	-1.399682
C	0.0	0.0	0.0
Br	-0.311685	1.766632	-2.186288
H	1.08822	0.0	0.0
H	-1.67465	-0.135565	-1.365547
H	-0.344683	0.869549	0.559819
C	-0.038889	-1.009497	-2.296726
N	0.370417	-1.79756	-3.064427
N	-0.474768	-1.18747	0.760931
O	-0.286591	-1.176031	1.971578
O	-1.023471	-2.100162	0.136933
Cl	3.259814	0.0	0.0
