12

C	-0.594876	0.049348	-1.39915
C	0.0	0.0	0.0
Br	-0.379651	1.869092	-2.091747
H	1.08811	0.0	0.0
H	-1.671887	-0.121037	-1.369813
H	-0.349656	0.841114	0.59785
C	-0.010862	-0.885822	-2.352436
N	0.411157	-1.614044	-3.171598
N	-0.465411	-1.223279	0.706776
O	-0.941881	-2.140047	0.032227
O	-0.337278	-1.237716	1.925916
Cl	3.255627	0.0	0.0
