12

C	-0.592801	-0.138325	-1.394197
C	0.0	0.0	0.0
Br	-0.379172	1.574514	-2.320625
H	1.09204	0.0	0.0
H	-1.669445	-0.305478	-1.345244
H	-0.349567	0.913561	0.479843
C	-0.007091	-1.190793	-2.215034
N	0.392695	-2.031897	-2.930394
N	-0.466036	-1.117946	0.863422
O	-0.337245	-0.970936	2.073304
O	-0.94495	-2.114859	0.31704
Cl	3.25507	0.0	0.0
