13

C	0.0	0.0	0.0
C	-0.464993	-0.143113	-1.484158
Cl	1.780997	0.0	0.0
H	0.393683	-0.526531	-2.042205
H	-0.359729	0.925161	0.446196
C	-0.416839	-1.13424	0.826155
N	-0.580103	-2.068708	1.518957
C	-0.687968	1.225421	-2.022399
N	-0.816707	2.274962	-2.536687
N	-1.556203	-1.077443	-1.614101
H	-2.342803	-0.686197	-0.987024
H	-1.871095	-1.07433	-2.581566
H	-3.088428	0.0	0.0
