13

C	0.0	0.0	0.0
C	-0.275666	-0.056026	-1.567502
Cl	1.780899	0.0	0.0
H	0.554294	-0.645978	-1.965873
H	-0.375449	0.910741	0.456145
C	-0.485238	-1.173303	0.71729
N	-0.577451	-2.15319	1.361753
C	-0.062915	1.316407	-2.076382
N	0.089556	2.371788	-2.569804
N	-1.51155	-0.673058	-2.000747
H	-2.20056	-0.437083	-1.227054
H	-1.82293	-0.231203	-2.867341
H	-2.620316	0.0	0.0
