15

C	0.0	0.0	0.0
C	-0.558809	-0.223351	-1.423964
F	1.370899	0.0	0.0
H	-1.495909	-0.777772	-1.292894
C	-0.357523	1.354051	0.512606
N	-0.53942	2.402458	1.010022
N	-0.437763	-1.078189	0.829169
H	-1.46068	-1.066057	0.829111
H	-0.118309	-0.919672	1.778758
C	0.381018	-1.058089	-2.174619
N	1.103239	-1.716978	-2.82424
N	-0.772417	1.052872	-2.108573
H	-1.662864	1.398827	-1.751535
H	-0.911516	0.867232	-3.09594
Br	-3.604362	0.0	0.0
