15

C	0.0	0.0	0.0
C	-0.176996	-0.170144	-1.550716
F	1.410674	0.0	0.0
H	0.519611	0.569169	-1.971398
C	-0.392809	1.351106	0.437672
N	-0.528052	2.47222	0.759159
N	-0.49515	-1.00998	0.837855
H	-1.490131	-0.810081	0.98892
H	-0.440364	-1.877745	0.310566
C	-1.443432	0.101299	-2.24161
N	-2.155224	0.307387	-3.15646
N	0.236716	-1.54768	-1.848592
H	-0.124171	-1.830045	-2.750202
H	1.247725	-1.587063	-1.869785
Br	-3.561638	0.0	0.0
