15

C	0.0	0.0	0.0
C	-0.539589	0.421868	-1.395255
F	1.397801	0.0	0.0
H	-1.389186	-0.233011	-1.605954
C	-0.341201	1.00686	1.04421
N	-0.492286	1.748774	1.944799
N	-0.432295	-1.331269	0.284261
H	-1.456325	-1.312658	0.289502
H	-0.116245	-1.593648	1.212992
C	0.496578	0.205333	-2.406099
N	1.282784	0.092909	-3.268353
N	-0.908563	1.83043	-1.372145
H	-0.96726	2.212949	-2.30874
H	-1.846401	1.861012	-0.964475
Br	-3.611961	0.0	0.0
