15

C	0.0	0.0	0.0
C	-0.286085	0.442233	-1.485344
F	1.374878	0.0	0.0
H	0.250808	-0.323834	-2.063925
C	-0.431893	1.028918	0.965393
N	-0.67949	1.884728	1.729691
N	-0.537996	-1.261534	0.361896
H	-0.460685	-1.907718	-0.416338
H	-1.528155	-1.150125	0.588616
C	0.406883	1.716284	-1.746445
N	0.955051	2.73142	-1.962584
N	-1.635777	0.515999	-1.97047
H	-2.211703	1.107458	-1.377215
H	-2.085604	-0.38921	-1.89688
Br	-4.120464	0.0	0.0
