15

C	0.0	0.0	0.0
C	-0.485815	0.133763	-1.453456
F	1.37179	0.0	0.0
H	-1.581225	0.182336	-1.355087
C	-0.391048	1.225541	0.738142
N	-0.574535	2.203631	1.359624
N	-0.463857	-1.15158	0.702589
H	-0.289655	-1.979296	0.137916
H	-1.47593	-1.048346	0.816906
C	-0.136558	-1.093448	-2.186765
N	0.170875	-2.050201	-2.794541
N	0.01699	1.345894	-2.074935
H	0.902834	1.185547	-2.53142
H	-0.650711	1.693868	-2.746505
Br	-3.642617	0.0	0.0
