15

C	0.0	0.0	0.0
C	-0.491807	0.111227	-1.441421
F	1.382188	0.0	0.0
H	-1.590074	0.136202	-1.372126
C	-0.346565	1.24431	0.746906
N	-0.516347	2.17646	1.441185
N	-0.47819	-1.203081	0.586919
H	-1.502071	-1.185119	0.518575
H	-0.234283	-1.218389	1.571223
C	-0.076917	-1.087263	-2.193273
N	0.287558	-1.961296	-2.889017
N	-0.008112	1.349345	-2.030583
H	-0.579793	1.59362	-2.827651
H	0.951028	1.243016	-2.335204
Br	-3.666431	0.0	0.0
