15

C	0.0	0.0	0.0
C	-0.483904	-0.336542	-1.409858
F	1.383671	0.0	0.0
H	-1.582445	-0.285585	-1.364136
C	-0.347726	1.412731	0.321621
N	-0.489327	2.528474	0.658976
N	-0.478777	-0.965734	0.926167
H	-1.503733	-0.964529	0.856553
H	-0.235483	-0.677199	1.867081
C	-0.071926	-1.708716	-1.753523
N	0.289693	-2.760621	-2.1321
N	0.017509	0.660847	-2.343107
H	0.987815	0.473622	-2.565379
H	-0.523885	0.628821	-3.196852
Br	-3.661578	0.0	0.0
