15

C	0.0	0.0	0.0
C	-0.444453	-0.183663	-1.463047
F	1.412578	0.0	0.0
H	-1.544197	-0.196269	-1.418079
C	-0.346823	1.367079	0.441961
N	-0.500555	2.479279	0.785803
N	-0.48214	-0.996629	0.880951
H	-1.011037	-1.693537	0.372028
H	-1.133337	-0.603736	1.549394
C	0.028869	-1.494327	-1.930506
N	0.399008	-2.545576	-2.298762
N	0.001397	0.853313	-2.378036
H	-0.573192	1.675886	-2.235861
H	0.963774	1.094214	-2.170711
Br	-3.60341	0.0	0.0
