13
Coordinates from ORCA-job run
  C   1.06775437956660     -0.22428098139943      0.19831439249800
  C   -0.31534270663584      0.25747113452393     -0.25977681128699
  F   1.61221775015552     -1.00568087104947     -0.80231200632618
  H   -0.16371752909694      0.88832392900208     -1.14280177043453
  H   0.97573238050537     -0.84357331072777      1.09604613814917
  C   1.97140439687046      0.90244337144137      0.46893133733107
  N   2.68926372873450      1.80745857693170      0.67674366351187
  C   -0.90011059947712      1.07935884485014      0.80101577094179
  N   -1.37696985972199      1.70614160246207      1.67180575949025
  C   -1.22191412707458     -0.92490359702619     -0.61128839971271
  H   -0.76990134053800     -1.51334234013270     -1.40899984388885
  H   -2.19488632067611     -0.56544882017232     -0.94788311519245
  H   -1.37453015261186     -1.56496753870340      0.26020488491955
