13
Coordinates from ORCA-job run
  C   1.14165668761201      0.17962280225983     -0.40818738059875
  C   -0.38347557913216      0.24469134825385     -0.51720102821797
  F   1.69261835345809      1.32377749219462     -0.94304383083888
  H   -0.60581237287662      0.37953884427181     -1.58178862182897
  H   1.50882967004294     -0.67210927460644     -0.98966826721161
  C   1.57653717249449      0.02962218804420      0.98799954877171
  N   1.90446709234596     -0.12196065749949      2.10477340788604
  C   -0.88667618889361      1.41914696570689      0.19838055310961
  N   -1.30806075067671      2.34255312987693      0.78792929625335
  C   -1.03581705329367     -1.04175236221581     -0.00300364627102
  H   -2.11563774618542     -0.99799248810762     -0.14733871235183
  H   -0.83722906566720     -1.18001924521200      1.06099734502976
  H   -0.65140021922809     -1.90611874296675     -0.54984866373144
