13
Coordinates from ORCA-job run
  C   1.06947095216217     -0.22020871391543      0.19803823563333
  C   -0.31620067010301      0.24689715267336     -0.26698418121552
  F   1.60288505671974     -1.04253819163209     -0.77512431730027
  H   -0.17042824703186      0.83993548553859     -1.17686805432072
  H   0.98388195513649     -0.80274450080409      1.12060412473837
  C   1.97850484429391      0.91353773384891      0.41568449032104
  N   2.69941294845699      1.82493810302168      0.58081764971164
  C   -0.88956838772346      1.11513455641867      0.76247629555897
  N   -1.36033918141873      1.78222704411570      1.60622279885959
  C   -1.23010022251842     -0.94548393542802     -0.56083690719165
  H   -0.78484289789359     -1.57163605423890     -1.33354757879883
  H   -2.20286111922399     -0.59611342687792     -0.90891858916006
  H   -1.38181503085624     -1.54494525272045      0.33943603316410
