13
Coordinates from ORCA-job run
  C   1.09338064799498     -0.17255916360124      0.08643735839854
  C   -0.35024504533382      0.25921283639461     -0.20412608574767
  F   1.59080972511575     -0.81554890440303     -1.03032757142434
  H   -0.31347955828238      0.98169879099894     -1.02716185122467
  H   1.11757035142988     -0.88056243401973      0.92071650471448
  C   1.95042790563789      0.98054079855881      0.39480198087396
  N   2.62659812016405      1.91008154752991      0.63230674098688
  C   -0.88558484684796      0.93396553998667      0.97919922190067
  N   -1.32269665614716      1.44223190039698      1.94314559259974
  C   -1.21569325658779     -0.93978979771835     -0.59988435292059
  H   -1.25781394830343     -1.66879292889780      0.21208474310630
  H   -0.80093151217728     -1.41874190567662     -1.48622198188566
  H   -2.23234192666273     -0.61273627954915     -0.82097029937765
