13
Coordinates from ORCA-job run
  C   1.15541705705249      0.13493301150366     -0.38682324318996
  C   -0.36389008992143      0.25258572058559     -0.52708561384072
  F   1.75697293596135      1.25373661584259     -0.92078444386164
  H   -0.55992484975254      0.38250557261506     -1.59745100690441
  H   1.50324035429725     -0.73482890487200     -0.95337586863870
  C   1.55749442627514     -0.01758494433073      1.01888288883238
  N   1.85727081275683     -0.17135736285863      2.14323192378482
  C   -0.83937202534067      1.45255408918244      0.16478202967520
  N   -1.23925498286564      2.39739494168222      0.73511219691161
  C   -1.07194488386611     -1.00373756811142     -0.01215703183614
  H   -0.89954008091596     -1.13658768284713      1.05708527880697
  H   -0.70796774889639     -1.88738835894849     -0.54182473982617
  H   -2.14650092478432     -0.92322512944317     -0.17859236991324
