13
Coordinates from ORCA-job run
  C   1.15041995794417      0.16479136873358     -0.38984813521597
  C   -0.37132333550326      0.26855518102396     -0.51417577538670
  F   1.73385502941895      1.31208151963178     -0.88181564065057
  H   -0.57775959568363      0.43812801948900     -1.57699207227983
  H   1.50463288155467     -0.67640787659190     -0.99423575286788
  C   1.56520396654810     -0.03936651714190      1.00554358270764
  N   1.87644678072143     -0.23334726931543      2.12052267417121
  C   -0.85606109770869      1.43432553477089      0.22796349607142
  N   -1.26419581002840      2.35053117612017      0.83768810720156
  C   -1.05966588012770     -1.01587694599226     -0.04384401803831
  H   -0.88208083153560     -1.18546717961976      1.01935134156625
  H   -0.68473659645679     -1.87430331450333     -0.60640866191042
  H   -2.13573546914326     -0.94464369660481     -0.20474914536840
