13
Coordinates from ORCA-job run
  C   1.17003038287173      0.06939015034186     -0.35789115088552
  C   -0.33743151889709      0.26022729739402     -0.54061725002864
  F   1.84051467077794      1.14667137759831     -0.89577582903720
  H   -0.49885291403533      0.38144315877051     -1.61775181441940
  H   1.48837448698579     -0.82709774524569     -0.89955956077320
  C   1.52752543732838     -0.07435261102962      1.06062035028666
  N   1.79035388962109     -0.21683663123720      2.19566914567642
  C   -0.76909787310638      1.49426559846950      0.11915529683548
  N   -1.13572866476547      2.46732771410426      0.66380931788624
  C   -1.12072105908684     -0.95027176873980     -0.02510890829498
  H   -0.78682148130717     -1.85981745540639     -0.53015030831882
  H   -0.98413197988361     -1.07290237840757      1.05049490660419
  H   -2.18501337650303     -0.82004670661218     -0.22289419553123
