13
Coordinates from ORCA-job run
  C   1.16537047719925      0.11159132033972     -0.36506765455448
  C   -0.34725981424096      0.28120682107552     -0.52297568157581
  F   1.80936169494185      1.23092707210935     -0.84507107789117
  H   -0.52346145379434      0.44887077669427     -1.59168710806888
  H   1.49496939796515     -0.74515965678276     -0.96112482701039
  C   1.54035288474413     -0.10883246886218      1.03880637709361
  N   1.81693078592063     -0.31920254929775      2.16000461950473
  C   -0.79605173873539      1.47604693861250      0.19560825219544
  N   -1.17749789300653      2.41892628013114      0.78134685914251
  C   -1.10225700895235     -0.96653070414704     -0.05631971332038
  H   -2.16960374214196     -0.85132710781589     -0.24714332034708
  H   -0.96007434109190     -1.13011244756663      1.01317184930663
  H   -0.74977924880757     -1.84740427449024     -0.59854857447474
