13
Coordinates from ORCA-job run
  C   1.16158769029768      0.10678206517720     -0.37646319774564
  C   -0.35315169809588      0.26189518852775     -0.53006425439914
  F   1.79517994567267      1.21126989291234     -0.90328927721628
  H   -0.53671515001442      0.39811673065489     -1.60181812167103
  H   1.49290826001657     -0.77031596599776     -0.94151420804009
  C   1.54724919511888     -0.05640573208700      1.03260692694569
  N   1.83335330093669     -0.21529042517612      2.15982609299003
  C   -0.80515551954231      1.47195188240047      0.15987470497200
  N   -1.18779589145373      2.42541545505204      0.72764059509197
  C   -1.09608085452991     -0.97758389024321     -0.02338159994623
  H   -0.94101456227924     -1.11313757894033      1.04819397800030
  H   -2.16619806300519     -0.87277781318650     -0.20433059924721
  H   -0.74516665312181     -1.86991980909376     -0.54728103973437
