15

C	0.0	0.0	0.0
C	-0.387816	-0.001836	-1.508038
Cl	1.7901	0.0	0.0
H	0.296186	0.706746	-1.990697
H	-0.313096	0.962055	0.410251
C	-0.572667	-1.140816	0.802659
H	-1.666416	-1.052974	0.756113
H	-0.247145	-1.077099	1.844355
H	-0.250468	-2.100688	0.39234
N	-1.739827	0.362482	-1.861729
H	-1.806384	1.373909	-1.801909
H	-2.456615	0.035858	-1.157478
C	-0.037871	-1.318184	-2.085709
N	0.241269	-2.355652	-2.559739
H	-3.546991	0.0	0.0
