15

C	0.0	0.0	0.0
C	-0.437039	0.051837	-1.49219
Cl	1.790238	0.0	0.0
H	0.275589	0.718788	-1.992315
H	-0.294806	0.956916	0.43617
C	-0.589827	-1.13915	0.792816
H	-1.682438	-1.033576	0.744673
H	-0.287957	-2.102594	0.376246
H	-0.267922	-1.087794	1.836202
N	-1.771825	0.525911	-1.776326
H	-1.77603	1.53186	-1.637666
H	-2.503416	0.170814	-1.096234
C	-0.222692	-1.274097	-2.106294
N	-0.055435	-2.323204	-2.606412
H	-3.615443	0.0	0.0
