15

C	0.0	0.0	0.0
C	-0.609506	0.024386	-1.386469
Cl	1.793819	0.0	0.0
H	-1.711654	0.047646	-1.125061
H	-0.297001	0.925401	0.498415
C	-0.507009	-1.187236	0.788407
H	-0.127174	-1.15449	1.812649
H	-1.602648	-1.100042	0.784405
H	-0.200265	-2.117197	0.310065
N	-0.300032	-1.180965	-2.144858
H	0.63764	-1.117278	-2.525603
H	-0.952168	-1.265224	-2.914529
C	-0.267665	1.258652	-2.109392
N	-0.005402	2.213966	-2.744107
H	-3.176595	0.0	0.0
