15

C	0.0	0.0	0.0
C	-0.425266	0.086781	-1.494435
Cl	1.790179	0.0	0.0
H	0.273098	0.788934	-1.966977
H	-0.30116	0.943494	0.461461
C	-0.585026	-1.165169	0.75702
H	-0.257257	-1.147449	1.799187
H	-1.676681	-1.063639	0.719392
H	-0.279467	-2.113338	0.308857
N	-1.771198	0.527119	-1.786339
H	-2.492667	0.167955	-1.101663
H	-1.799584	1.533282	-1.652039
C	-0.163541	-1.214115	-2.145235
N	0.053648	-2.237224	-2.679338
H	-3.607352	0.0	0.0
