12

C	-0.440574	-0.001392	-1.442859
C	0.0	0.0	0.0
F	-0.08803	1.170792	-2.032451
H	1.092983	0.0	0.0
H	-0.051458	-0.83878	-2.01934
H	-0.359416	0.919419	0.46856
N	-1.947784	-0.096477	-1.533168
O	-2.413157	-1.15835	-1.941377
O	-2.587585	0.88191	-1.163489
C	-0.517941	-1.160741	0.711373
N	-0.960339	-2.090453	1.275033
Cl	3.287917	0.0	0.0
