12

C	-0.460853	0.087692	-1.428873
C	0.0	0.0	0.0
F	-1.830126	0.134438	-1.529859
H	1.091752	0.0	0.0
H	-0.033316	0.926881	-1.974631
H	-0.358642	-0.93368	0.437233
N	-0.045774	-1.152767	-2.180808
O	-0.368673	-2.228578	-1.68539
O	0.524335	-0.987687	-3.255754
C	-0.514269	1.135771	0.753987
N	-0.947384	2.0487	1.350854
Cl	3.27851	0.0	0.0
