12

C	-0.501103	0.118132	-1.418889
C	0.0	0.0	0.0
F	-1.82817	0.441721	-1.462639
H	1.091757	0.0	0.0
H	0.071936	0.856172	-1.977467
H	-0.299174	0.921623	0.510499
N	-0.332456	-1.182699	-2.167074
O	-1.282117	-1.958838	-2.165328
O	0.760325	-1.351841	-2.697342
C	-0.573919	-1.130981	0.717058
N	-1.052151	-2.021197	1.313168
Cl	3.29099	0.0	0.0
