12

C	-0.458184	0.083348	-1.431034
C	0.0	0.0	0.0
F	-1.825403	0.142901	-1.535772
H	1.091724	0.0	0.0
H	-0.020468	0.914512	-1.980204
H	-0.360092	-0.931842	0.440723
N	-0.053379	-1.1646	-2.174126
O	0.533845	-1.012483	-3.242279
O	-0.399327	-2.234581	-1.678381
C	-0.513257	1.140002	0.748371
N	-0.942492	2.059198	1.338825
Cl	3.278948	0.0	0.0
