15

C	0.0	0.0	0.0
C	-0.473217	-0.129713	-1.508259
Cl	1.790718	0.0	0.0
H	0.410925	0.146562	-2.095743
H	-0.349443	-0.8275	0.617046
C	-0.412148	1.271296	0.586552
N	-0.646204	2.326464	1.046188
N	-1.548934	0.721759	-1.941656
H	-1.299789	1.698344	-1.827556
H	-2.395953	0.548502	-1.38922
C	-0.838989	-1.58594	-1.759668
H	-0.059149	-2.266127	-1.404307
H	-0.994688	-1.743502	-2.826525
H	-1.776189	-1.80261	-1.240582
Cl	-3.957613	0.0	0.0
