15

C	0.0	0.0	0.0
C	-0.542145	0.195824	-1.447687
Cl	1.781793	0.0	0.0
H	0.323205	0.466669	-2.061647
H	-0.316007	-0.963152	0.403676
C	-0.414481	1.051019	0.931918
N	-0.611351	1.910685	1.706703
N	-1.460944	1.321087	-1.487004
H	-1.701547	1.496321	-2.456888
H	-2.331264	1.054685	-1.013756
C	-1.110107	-1.135324	-1.947017
H	-1.426349	-1.032938	-2.989172
H	-1.991639	-1.392814	-1.355617
H	-0.367068	-1.940351	-1.892873
Cl	-4.035733	0.0	0.0
