15

C	0.0	0.0	0.0
C	-0.620031	0.252796	-1.383526
Cl	1.783497	0.0	0.0
H	-1.603472	0.675753	-1.157126
H	-0.33956	-0.96487	0.375428
C	-0.382554	1.055354	0.945623
N	-0.572552	1.939722	1.694072
N	-0.760934	-1.04759	-2.041822
H	-1.622627	-1.444825	-1.668447
H	-0.937409	-0.884605	-3.027721
C	0.17038	1.225313	-2.237982
H	1.103201	0.777886	-2.588661
H	0.404201	2.137218	-1.682878
H	-0.432913	1.508277	-3.105002
Cl	-3.571537	0.0	0.0
