15

C	0.0	0.0	0.0
C	-0.578552	-0.13295	-1.406242
Cl	1.793079	0.0	0.0
H	-1.659123	-0.179358	-1.216126
H	-0.323201	-0.864284	0.57931
C	-0.405759	1.234354	0.674572
N	-0.638231	2.238571	1.23651
N	-0.149573	-1.421339	-1.946503
H	0.718365	-1.311036	-2.45931
H	-0.855836	-1.752261	-2.591479
C	-0.272791	1.066035	-2.29362
H	0.804476	1.176546	-2.459344
H	-0.658768	1.990508	-1.856804
H	-0.75849	0.925086	-3.263115
Cl	-3.655311	0.0	0.0
