15

C	0.0	0.0	0.0
C	-0.522826	0.767297	-1.250195
Cl	1.790463	0.0	0.0
H	0.220411	0.575452	-2.03194
H	-0.298381	-1.049144	-0.047651
C	-0.463658	0.584109	1.252645
N	-0.773437	1.122512	2.249158
N	-0.612199	2.205746	-1.077038
H	-1.407013	2.417949	-0.483821
H	0.221266	2.57654	-0.636242
C	-1.863684	0.207693	-1.694433
H	-2.654212	0.262827	-0.938991
H	-1.763812	-0.840214	-1.991069
H	-2.204901	0.774247	-2.563677
Cl	-4.943368	0.0	0.0
