15

C	0.0	0.0	0.0
C	-0.532137	-0.108819	-1.457374
Cl	1.793581	0.0	0.0
H	0.335348	0.037636	-2.108506
H	-0.317346	-0.853518	0.600681
C	-0.40284	1.227283	0.689916
N	-0.600656	2.179797	1.347329
N	-1.449199	0.985952	-1.728135
H	-2.325763	0.81824	-1.221827
H	-1.674709	0.973736	-2.716857
C	-1.096531	-1.513779	-1.694536
H	-0.363331	-2.293099	-1.454792
H	-1.361771	-1.607016	-2.752355
H	-2.003195	-1.645605	-1.100607
Cl	-4.004938	0.0	0.0
