15

C	-0.496427	-0.073554	-1.427533
C	0.0	0.0	0.0
Cl	-2.288061	-0.142588	-1.555517
H	1.093989	0.0	0.0
N	-0.001145	1.178816	-2.163502
O	1.058389	1.053756	-2.76581
O	-0.655581	2.202744	-2.023089
C	0.040491	-1.248758	-2.105424
N	0.413311	-2.203846	-2.678672
N	-0.292075	-1.254132	0.673018
H	0.561473	-1.526465	1.155896
H	-1.049108	-1.165223	1.333972
C	-0.493306	1.176304	0.692243
N	-0.888865	2.085478	1.327144
H	2.520426	0.0	0.0
