15

C	-0.492923	-0.095283	-1.426654
C	0.0	0.0	0.0
Cl	-2.279207	-0.188034	-1.560183
H	1.094006	0.0	0.0
N	-0.004564	1.156526	-2.170136
O	1.085855	1.043581	-2.719625
O	-0.687705	2.166513	-2.080831
C	0.067066	-1.267387	-2.091667
N	0.433644	-2.216915	-2.676128
N	-0.284623	-1.24522	0.691991
H	-1.044807	-1.153754	1.349277
H	0.570645	-1.508654	1.174884
C	-0.497826	1.184729	0.671099
N	-0.907295	2.104272	1.281927
H	2.519564	0.0	0.0
