16

C	-0.492687	0.077072	-1.460318
C	0.0	0.0	0.0
Cl	0.074584	1.595105	-2.155227
H	1.100828	0.0	0.0
N	0.113397	-1.090744	-2.255818
O	0.1285	-2.163668	-1.663279
O	0.426379	-0.901423	-3.420388
C	-1.997084	-0.04269	-1.605944
H	-2.332078	-1.001596	-1.203803
H	-2.271659	0.032173	-2.659673
H	-2.478342	0.767891	-1.05589
C	-0.512786	-1.159283	0.733539
N	-0.965913	-2.026365	1.384222
C	-0.457951	1.194826	0.715029
N	-0.863708	2.133049	1.293646
Br	3.311408	0.0	0.0
