16

C	-0.52891	0.002404	-1.447945
C	0.0	0.0	0.0
Cl	0.198223	1.369534	-2.30499
H	1.094222	0.0	0.0
N	-0.058439	-1.271113	-2.157279
O	0.665202	-2.037427	-1.537049
O	-0.472965	-1.424706	-3.301708
C	-2.037455	0.054355	-1.555938
H	-2.472246	-0.826331	-1.075678
H	-2.327421	0.073649	-2.605001
H	-2.404832	0.95352	-1.060167
C	-0.521235	-1.142871	0.74933
N	-0.957306	-2.062619	1.335494
C	-0.443772	1.231568	0.65877
N	-0.82605	2.214197	1.176517
Br	3.324545	0.0	0.0
