16

C	-0.526277	0.062074	-1.446492
C	0.0	0.0	0.0
Cl	0.205693	1.461446	-2.248406
H	1.106637	0.0	0.0
N	-0.052455	-1.184242	-2.204456
O	-0.468367	-1.295698	-3.352713
O	0.681706	-1.967235	-1.616552
C	-2.03421	0.121604	-1.557079
H	-2.472286	-0.77653	-1.113404
H	-2.40049	1.00079	-1.025538
H	-2.320439	0.184027	-2.605348
C	-0.524002	-1.176462	0.693627
N	-1.003723	-2.09517	1.246511
C	-0.441222	1.200428	0.712757
N	-0.802459	2.159449	1.286158
Br	3.320982	0.0	0.0
