16

C	-0.539986	-0.149082	-1.444101
C	0.0	0.0	0.0
Cl	0.196439	1.098381	-2.447169
H	1.100058	0.0	0.0
N	-0.073529	-1.526607	-1.948111
O	-0.859446	-2.44812	-1.730056
O	1.021949	-1.616007	-2.477589
C	-2.048979	-0.072791	-1.539699
H	-2.509726	-0.814398	-0.888439
H	-2.364316	-0.258314	-2.567505
H	-2.370202	0.926969	-1.246671
C	-0.486619	-1.080435	0.856833
N	-0.898567	-1.93937	1.544743
C	-0.443985	1.283766	0.544016
N	-0.807609	2.318591	0.964903
Br	3.308027	0.0	0.0
