10
Coordinates from ORCA-job run
  C   -0.00425153024028      0.61260883567380     -0.03896486445511
  C   -0.99783232574883     -0.49252698509015     -0.27398386763964
  F   -0.40330020368238      1.41861801943361      0.97710569084617
  H   -1.96143941312318     -0.05844873246203     -0.54177528844868
  H   0.19962577881323      1.22065168578372     -0.92067379607321
  H   -1.11395315545060     -1.07246544205693      0.64311666528086
  H   -0.65714735894013     -1.14249585919421     -1.07890207747071
  N   1.32912382019921     -0.00086542520649      0.33367311299816
  O   1.91553002221661     -0.54132658423373     -0.59896693787885
  O   1.69164436595637      0.05725048735242      1.49937136284099
