15

C	-0.578129	0.094213	-1.383669
C	0.0	0.0	0.0
F	-0.268765	-1.022489	-2.111671
H	1.089125	0.0	0.0
H	-0.372066	-0.957933	0.379186
N	-1.975964	0.296455	-1.383345
H	-2.17226	0.928768	-0.612748
H	-2.306505	0.653728	-2.270189
N	0.081925	1.241753	-2.189021
O	-0.088851	1.217956	-3.40882
O	0.634579	2.145394	-1.571375
N	-0.556113	1.097148	0.828639
H	0.139423	1.834435	0.788169
H	-0.56889	0.77755	1.789617
F	2.672237	0.0	0.0
