15

C	-0.20535	-0.069645	-1.507369
C	0.0	0.0	0.0
F	-0.707184	1.155856	-1.993138
H	1.098379	0.0	0.0
H	-0.46927	0.895786	0.41297
N	0.956481	-0.44778	-2.156322
H	0.858675	-1.21412	-2.796765
H	1.772129	-0.457797	-1.520773
N	-1.383348	-1.006297	-1.849289
O	-2.462884	-0.720209	-1.339701
O	-1.196785	-1.954075	-2.609624
N	-0.400922	-1.267733	0.61162
H	-1.28458	-1.175299	1.093982
H	0.312974	-1.52861	1.277868
F	2.721807	0.0	0.0
