15

C	-0.314406	0.066232	-1.497033
C	0.0	0.0	0.0
Cl	0.102808	-1.646623	-2.136356
H	1.092267	0.0	0.0
H	-0.393055	-0.912259	0.454401
N	-1.673047	0.378822	-1.788936
H	-2.289846	-0.288741	-1.338306
H	-1.836995	0.341651	-2.788389
C	0.668441	1.006758	-2.169288
H	0.412729	2.029991	-1.872936
H	1.660271	0.753539	-1.775653
H	0.627934	0.925434	-3.25811
C	-0.511434	1.165238	0.698297
N	-0.922676	2.108698	1.266659
F	2.616498	0.0	0.0
