15

C	-0.074487	0.008555	-1.524837
C	0.0	0.0	0.0
Cl	-1.76876	0.341339	-2.151107
H	1.095975	0.0	0.0
H	-0.372263	0.945028	0.398445
N	0.788764	1.097924	-1.922781
H	0.976026	1.024538	-2.917887
H	1.668619	0.931536	-1.404913
C	0.368481	-1.339479	-2.07496
H	-0.293594	-2.152168	-1.769778
H	1.373422	-1.497048	-1.668556
H	0.408566	-1.30513	-3.168078
C	-0.61598	-1.135986	0.642871
N	-1.119574	-2.058634	1.169957
F	2.6485	0.0	0.0
