16

C	-0.014131	-0.015105	-0.009726
C	-0.401606	-0.038713	-1.485605
F	1.415695	0.05463	0.024066
H	-1.494997	-0.041392	-1.474683
H	-0.055628	0.906426	-1.925289
N	-0.55379	1.12311	0.671332
H	-1.589231	0.927696	0.616536
H	-0.384164	1.937328	0.084424
C	-0.447176	-1.262393	0.724611
H	-1.541064	-1.244686	0.697255
H	-0.091903	-1.199711	1.755319
H	-0.040043	-2.164335	0.260079
N	0.131573	-1.140929	-2.294973
H	1.099747	-1.27379	-2.021776
H	-0.360425	-1.988712	-2.03941
F	-2.952568	0.159467	0.121814
