16

C	-0.014477	-0.003057	-0.037109
C	-0.231299	-0.068435	-1.555356
F	1.392882	0.055924	0.161067
H	0.532986	0.585039	-1.989613
H	-0.011933	-1.091253	-1.889307
N	-0.582496	1.218842	0.472409
H	-1.608906	1.029613	0.451688
H	-0.327926	1.267695	1.455916
C	-0.503966	-1.243592	0.687768
H	-0.078894	-2.156138	0.257095
H	-1.595754	-1.224667	0.619942
H	-0.210352	-1.181108	1.7414
N	-1.549559	0.338889	-2.033895
H	-1.557772	1.352162	-1.99478
H	-2.253049	0.080248	-1.321849
F	-3.061794	0.143529	0.234471
