14

C	-0.4368	0.050444	-1.471288
C	0.0	0.0	0.0
Cl	-0.083567	-1.526119	-2.25753
H	1.093627	0.0	0.0
H	-0.314686	0.936851	0.474271
C	-1.879318	0.283065	-1.593123
N	-3.025985	0.523847	-1.684804
C	0.358028	1.139851	-2.184341
H	1.421704	0.935947	-2.039018
H	0.120234	2.111222	-1.741502
H	0.113326	1.160513	-3.247248
C	-0.571264	-1.113391	0.741995
N	-1.054955	-1.992979	1.350896
Cl	3.328327	0.0	0.0
