14

C	-0.401532	-0.081323	-1.47762
C	0.0	0.0	0.0
Cl	-2.199875	-0.259618	-1.646603
H	1.095019	0.0	0.0
H	-0.365593	0.922358	0.456568
C	-0.058933	1.181283	-2.136484
N	0.182919	2.198803	-2.671377
C	0.290499	-1.251901	-2.160254
H	0.04493	-1.279079	-3.222875
H	1.369095	-1.134445	-2.018961
H	-0.031725	-2.183591	-1.691919
C	-0.487991	-1.150436	0.748926
N	-0.887555	-2.077488	1.348472
Cl	3.294423	0.0	0.0
