14

C	-0.434202	0.054771	-1.47183
C	0.0	0.0	0.0
Cl	-0.061919	-1.514371	-2.264561
H	1.093638	0.0	0.0
H	-0.316185	0.934703	0.477362
C	-1.878847	0.271253	-1.59654
N	-3.029958	0.490125	-1.688515
C	0.351555	1.155455	-2.176947
H	0.101136	2.12248	-1.731484
H	1.416548	0.962006	-2.02786
H	0.111864	1.177881	-3.240864
C	-0.571951	-1.116743	0.736325
N	-1.061174	-1.996366	1.340397
Cl	3.325119	0.0	0.0
