14

C	-0.429132	-0.093503	-1.474397
C	0.0	0.0	0.0
Cl	0.013255	-1.737824	-2.057085
H	1.094417	0.0	0.0
H	-0.365808	-0.860707	0.56403
C	-1.88123	0.035976	-1.628995
N	-3.042919	0.165544	-1.751864
C	0.315431	0.941606	-2.308218
H	0.077128	0.82529	-3.36667
H	1.386257	0.803241	-2.139346
H	0.029439	1.944894	-1.982143
C	-0.496051	1.232901	0.599909
N	-0.910645	2.22946	1.063435
Cl	3.322172	0.0	0.0
