11
Coordinates from ORCA-job run
  C   0.52202174270128     -0.60261329624444      0.68308180815383
  C   -0.74755359616484     -0.28874164396468     -0.11218050732239
  H   0.61602672050210     -1.67774699942539      0.86059118092221
  H   -1.60135242947047     -0.65875647557701      0.46153684590141
  H   0.47115362986001     -0.09361625650698      1.64849942966585
  H   -0.72026362169409     -0.84393586085637     -1.06106309841234
  C   1.70913861558469     -0.13428322824674     -0.03222389245811
  N   2.62806321039707      0.26019428852155     -0.64610648036128
  N   -0.88214775267496      1.15561661766976     -0.25757364315092
  H   -1.79767161151053      1.38444765391475     -0.62314953195222
  H   -0.19841490753026      1.50043520071555     -0.92141211098603
