11
Coordinates from ORCA-job run
  C   0.60874821902858     -0.29225304923172      0.61117808347693
  C   -0.37765462648249      0.08774502506522     -0.49744441872873
  H   0.86077090526941      0.58860691441054      1.20981085316307
  H   0.11712820772925      0.77081595386849     -1.20163521387981
  H   0.13292195172140     -1.01316607016197      1.27970304131621
  H   -0.64246562862656     -0.81448477673247     -1.05343595769864
  C   1.84298876767458     -0.85885845055948      0.06980044750830
  N   2.81985492818649     -1.31120774319525     -0.39664792878176
  N   -1.58770453415005      0.62363375598606      0.11826796751878
  H   -1.43120459743882      1.57923695558968      0.41482088140993
  H   -2.34238359291179      0.63993148496090     -0.55541775530429
