14

C	-0.287434	-0.113761	-1.491858
C	0.0	0.0	0.0
Cl	-2.032536	-0.490748	-1.833969
H	1.104578	0.0	0.0
H	-0.399607	0.933453	0.399739
C	-0.05218	1.185598	-2.150544
N	0.145816	2.216784	-2.678757
N	0.517177	-1.189388	-2.012337
H	1.483208	-1.036849	-1.71276
H	0.478465	-1.216012	-3.023703
N	-0.552384	-1.14603	0.72731
H	-0.052815	-1.186942	1.610241
H	-0.266349	-1.975015	0.214642
Br	3.567848	0.0	0.0
