14

C	-0.559882	0.062644	-1.418023
C	0.0	0.0	0.0
Cl	-0.066068	1.561182	-2.253469
H	1.092552	0.0	0.0
H	-0.318336	-0.979179	0.400378
C	-0.054137	-1.066389	-2.221339
N	0.237153	-2.022875	-2.838538
N	-2.01751	0.052379	-1.360827
H	-2.306013	-0.845296	-0.981103
H	-2.391477	0.121942	-2.30206
N	-0.457301	1.13701	0.770816
H	-1.35327	0.965042	1.198454
H	0.231002	1.353545	1.478128
Br	3.59117	0.0	0.0
