14

C	-0.586053	0.0423	-1.412324
C	0.0	0.0	0.0
Cl	0.185949	1.465961	-2.305914
H	1.089046	0.0	0.0
H	-0.36342	-0.92776	0.451095
C	-0.232686	-1.152769	-2.188251
N	-0.023143	-2.133224	-2.800707
N	-2.002213	0.160885	-1.328926
H	-2.405147	0.388097	-2.229224
H	-2.186051	0.899838	-0.652382
N	-0.536544	1.149366	0.747278
H	-0.616227	0.885758	1.723275
H	0.162045	1.883153	0.703285
Br	3.613636	0.0	0.0
