14

C	-0.39107	0.046398	-1.482069
C	0.0	0.0	0.0
Cl	-0.058787	-1.564138	-2.20797
H	1.094743	0.0	0.0
H	-0.391361	-0.901663	0.483594
C	-1.835797	0.297678	-1.615909
N	-2.992163	0.49932	-1.657157
N	0.344824	1.046135	-2.227344
H	0.193378	1.915678	-1.719355
H	1.333018	0.818057	-2.103581
N	-0.429281	1.259783	0.604393
H	-1.296115	1.152058	1.113431
H	0.287153	1.580477	1.242344
Br	3.566968	0.0	0.0
