14

C	-0.580917	-0.013415	-1.414922
C	0.0	0.0	0.0
Cl	0.158962	1.403399	-2.344015
H	1.09493	0.0	0.0
H	-0.360585	-0.914161	0.481144
C	-0.185022	-1.213695	-2.16014
N	0.078516	-2.183969	-2.769685
N	-1.996889	0.073501	-1.336529
H	-2.198866	0.820749	-0.67645
H	-2.408513	0.269982	-2.23966
N	-0.550143	1.16586	0.706806
H	-0.570011	0.953749	1.696587
H	0.112841	1.925707	0.593647
Br	3.615887	0.0	0.0
