14

C	0.0	0.0	0.0
C	-0.577895	-0.212514	-1.388258
Br	1.940464	0.0	0.0
H	-1.672732	-0.11759	-1.237572
H	-0.319325	0.967743	0.382553
C	-0.406165	-1.072174	0.904202
N	-0.59109	-1.948072	1.66388
N	-0.236888	-1.456406	-1.962402
H	0.696589	-1.452923	-2.350054
H	-0.899769	-1.707675	-2.681304
N	-0.175501	0.992664	-2.240746
O	0.173945	0.77792	-3.400965
O	-0.261905	2.103224	-1.724973
Cl	-3.455708	0.0	0.0
