14

C	0.0	0.0	0.0
C	-0.421323	0.514399	-1.411413
Br	1.941812	0.0	0.0
H	0.480796	0.630992	-2.015379
H	-0.326813	0.746579	0.720967
C	-0.421474	-1.320271	0.456603
N	-0.583219	-2.367164	0.965323
N	-1.080566	1.761097	-1.309622
H	-1.974362	1.56838	-0.84606
H	-1.275102	2.108024	-2.239887
N	-1.154955	-0.54114	-2.266156
O	-1.872375	-0.09648	-3.154209
O	-0.826177	-1.714278	-2.131541
Cl	-3.205996	0.0	0.0
