14

C	0.0	0.0	0.0
C	-0.568376	-0.104934	-1.426738
Br	1.946988	0.0	0.0
H	-1.623003	0.183939	-1.311712
H	-0.32506	0.936337	0.45246
C	-0.411623	-1.14016	0.808728
N	-0.645026	-2.074575	1.481448
N	-0.482356	-1.356538	-2.079978
H	-1.265477	-1.927112	-1.789993
H	0.392844	-1.834636	-1.910328
N	0.092681	0.989149	-2.232355
O	-0.041527	2.126321	-1.781668
O	0.716296	0.697043	-3.246119
Cl	-3.392661	0.0	0.0
