14

C	0.0	0.0	0.0
C	-0.391896	0.54774	-1.442425
Br	1.947161	0.0	0.0
H	0.555287	0.783506	-1.930533
H	-0.334795	0.735516	0.730414
C	-0.429925	-1.325605	0.421107
N	-0.575079	-2.416719	0.836074
N	-1.216284	1.692382	-1.543031
H	-2.082557	1.519794	-1.02739
H	-0.727719	2.500036	-1.179177
N	-0.898221	-0.582142	-2.325514
O	-0.245371	-1.622393	-2.24048
O	-1.799921	-0.364273	-3.116318
Cl	-3.166769	0.0	0.0
