14

C	0.0	0.0	0.0
C	-0.399015	0.632877	-1.398161
Br	1.946915	0.0	0.0
H	0.542402	0.836656	-1.913115
H	-0.330522	0.694594	0.771297
C	-0.420884	-1.344034	0.373733
N	-0.54624	-2.43905	0.786167
N	-1.146023	1.839105	-1.383722
H	-0.594783	2.564621	-0.943804
H	-2.008762	1.668309	-0.862349
N	-1.023212	-0.392299	-2.32687
O	-0.536319	-1.519758	-2.261895
O	-1.841334	-0.014306	-3.149026
Cl	-3.120988	0.0	0.0
