13

C	-0.555381	0.046721	-1.396671
C	0.0	0.0	0.0
F	-0.137094	1.154146	-2.065456
H	1.100282	0.0	0.0
H	-1.647825	0.033393	-1.398181
H	-0.358063	-0.920227	0.464529
N	-0.143822	-1.173404	-2.188744
O	-0.548592	-2.238239	-1.727357
O	0.502592	-1.026374	-3.214268
N	-0.566672	1.15724	0.715663
H	-0.016973	1.96459	0.440815
H	-0.368848	1.024883	1.700822
Cl	3.496166	0.0	0.0
