13

C	-0.610174	0.029185	-1.377917
C	0.0	0.0	0.0
F	-0.075429	1.017537	-2.153523
H	1.090992	0.0	0.0
H	-1.694628	0.14228	-1.353132
H	-0.309234	0.933285	0.486097
N	-0.398235	-1.278103	-2.099951
O	-1.407544	-1.94128	-2.340756
O	0.751207	-1.574566	-2.397539
N	-0.523301	-1.180742	0.700232
H	-1.007291	-0.91129	1.543532
H	0.26498	-1.752833	0.973282
Cl	3.504005	0.0	0.0
