13

C	-0.383734	-0.059018	-1.473439
C	0.0	0.0	0.0
F	-0.032046	-1.253931	-2.012771
H	1.093264	0.0	0.0
H	0.034141	0.757466	-2.062897
H	-0.375774	-0.915269	0.468673
N	-1.882443	0.061658	-1.609325
O	-2.554761	-0.960994	-1.542446
O	-2.326271	1.207977	-1.701416
N	-0.444892	1.184703	0.717356
H	-1.378035	1.481852	0.45585
H	0.197801	1.945537	0.541143
Cl	3.444953	0.0	0.0
