13

C	-0.560192	-0.014127	-1.401044
C	0.0	0.0	0.0
F	-0.465722	1.204895	-1.997703
H	1.100202	0.0	0.0
H	-1.60347	-0.341227	-1.40638
H	-0.340577	0.947546	0.428108
N	0.159189	-1.014493	-2.28167
O	0.644981	-0.635901	-3.335644
O	0.145894	-2.167638	-1.858095
N	-0.590117	-1.098594	0.78222
H	-0.155035	-1.955645	0.459315
H	-0.273816	-0.975663	1.73801
Cl	3.491682	0.0	0.0
