13

C	-0.509263	-0.050362	-1.408702
C	0.0	0.0	0.0
F	-1.88987	-0.055244	-1.432012
H	1.09833	0.0	0.0
H	-0.144009	-0.911646	-1.96222
H	-0.353528	0.928208	0.461671
N	-0.106742	1.168013	-2.193222
O	-0.455182	2.255617	-1.738395
O	0.502917	0.988339	-3.24521
N	-0.457805	-1.220533	0.668797
H	-1.294855	-1.039739	1.204653
H	0.268718	-1.525628	1.301762
Cl	3.443256	0.0	0.0
