13

C	-0.518287	-0.012792	-1.431932
C	0.0	0.0	0.0
F	-0.298463	1.182927	-2.04544
H	1.093797	0.0	0.0
H	-1.587162	-0.24403	-1.495732
H	-0.329622	0.959713	0.411262
N	0.144305	-1.087963	-2.262531
O	-0.121882	-2.236656	-1.909298
O	0.853895	-0.763549	-3.201266
N	-0.471858	-1.084525	0.84427
H	0.013066	-1.934886	0.590377
H	-1.464467	-1.244523	0.712749
Cl	3.482028	0.0	0.0
