13

C	-0.443205	-0.111724	-1.437232
C	0.0	0.0	0.0
F	-1.811913	-0.302282	-1.523905
H	1.092471	0.0	0.0
H	0.051166	-0.913817	-1.982698
H	-0.387194	0.933022	0.414684
N	-0.166586	1.14948	-2.205404
O	-0.735526	2.165781	-1.813846
O	0.585066	1.068284	-3.17395
N	-0.444632	-1.141864	0.793856
H	-1.350571	-1.467476	0.488888
H	0.226917	-1.892798	0.705821
Cl	3.438941	0.0	0.0
