14

C	-0.495443	-0.080418	-1.429086
C	0.0	0.0	0.0
Cl	0.617799	-0.946186	-2.520563
H	1.089861	0.0	0.0
H	-1.457142	-0.578781	-1.504881
N	-0.677573	1.296833	-2.000806
O	0.270042	2.068264	-1.924501
O	-1.765764	1.530898	-2.522944
N	-0.369299	-1.187106	0.728388
O	-0.632355	-2.215623	0.075034
O	-0.21787	-1.152806	1.96059
C	-0.425051	1.179816	0.712084
N	-0.737208	2.16794	1.270853
H	2.298459	0.0	0.0
