14

C	-0.518311	0.028519	-1.416418
C	0.0	0.0	0.0
Cl	-2.270627	-0.223547	-1.549394
H	1.094307	0.0	0.0
H	-0.298263	1.012189	-1.829217
N	0.226783	-0.914058	-2.354146
O	-0.295393	-1.948085	-2.736549
O	1.340492	-0.496242	-2.655814
N	-0.340703	-1.204351	0.720341
O	-0.246694	-2.259493	0.076641
O	-0.5359	-1.122662	1.941368
C	-0.434005	1.186734	0.699195
N	-0.738958	2.213787	1.185838
H	2.354736	0.0	0.0
