14

C	-0.491524	-0.0656	-1.4346
C	0.0	0.0	0.0
Cl	0.649637	-0.839589	-2.553779
H	1.090982	0.0	0.0
H	-1.432677	-0.601549	-1.519329
N	-0.753123	1.331733	-1.930937
O	-1.932878	1.620768	-2.128153
O	0.20983	2.074146	-2.075441
N	-0.348618	-1.205037	0.706905
O	-0.272534	-1.177012	1.947498
O	-0.514319	-2.237015	0.028943
C	-0.434258	1.169334	0.721932
N	-0.740766	2.156289	1.285478
H	2.298353	0.0	0.0
