14

C	-0.517271	-0.074528	-1.42287
C	0.0	0.0	0.0
Cl	0.673297	-0.683212	-2.594034
H	1.092514	0.0	0.0
H	-1.386572	-0.719371	-1.491386
N	-0.972266	1.288216	-1.875864
O	-2.190636	1.439388	-1.961334
O	-0.120122	2.13914	-2.092536
N	-0.32746	-1.206192	0.715349
O	-0.221752	-1.176791	1.952874
O	-0.490781	-2.242248	0.042452
C	-0.408923	1.168144	0.737395
N	-0.67938	2.159866	1.311062
H	2.28702	0.0	0.0
