14

C	-0.343721	0.021067	-1.458709
C	0.0	0.0	0.0
Cl	-0.020962	1.610851	-2.157331
H	1.096957	0.0	0.0
H	0.250553	-0.715501	-1.995356
N	-1.790293	-0.322271	-1.749788
O	-2.007801	-0.864193	-2.829958
O	-2.631708	-0.0094	-0.915468
N	-0.338417	-1.277146	0.583795
O	-0.342663	-1.36893	1.816506
O	-0.435128	-2.237298	-0.202716
C	-0.471887	1.104135	0.795343
N	-0.757181	2.050341	1.432879
H	2.354876	0.0	0.0
