14

C	-0.511789	-0.051812	-1.426144
C	0.0	0.0	0.0
Cl	0.590917	-0.861134	-2.55702
H	1.092534	0.0	0.0
H	-1.467337	-0.563321	-1.484488
N	-0.759325	1.351315	-1.918159
O	-1.939896	1.695471	-1.930034
O	0.199006	2.045972	-2.225361
N	-0.365176	-1.18983	0.721251
O	-0.640723	-2.211234	0.061003
O	-0.194995	-1.162583	1.95144
C	-0.388546	1.179957	0.730531
N	-0.636906	2.183681	1.292602
H	2.303162	0.0	0.0
