14

C	-0.553868	-0.035657	-1.409948
C	0.0	0.0	0.0
Cl	0.114137	-1.396325	-2.321802
H	1.088356	0.0	0.0
H	-1.640523	-0.123669	-1.441228
N	-0.229678	1.246124	-2.145795
O	-0.844333	1.414697	-3.19659
O	0.607107	1.996119	-1.658662
N	-0.508688	-1.2577	0.662683
O	-1.726341	-1.324855	0.85784
O	0.304857	-2.128233	0.942443
C	-0.54778	1.127325	0.729167
N	-0.953141	2.047838	1.339526
H	2.571064	0.0	0.0
