14

C	-0.356537	-0.130727	-1.453798
C	0.0	0.0	0.0
Cl	0.28332	1.228995	-2.381974
H	1.093139	0.0	0.0
H	0.046609	-1.057876	-1.850034
N	-1.854254	-0.202871	-1.641295
O	-2.50396	0.833179	-1.54424
O	-2.310807	-1.330096	-1.837718
N	-0.329829	-1.203193	0.742807
O	-0.602455	-1.09707	1.945856
O	-0.14276	-2.27845	0.155124
C	-0.48626	1.191012	0.646722
N	-0.750706	2.206979	1.177545
H	2.339308	0.0	0.0
