14

C	-0.494398	-0.055353	-1.431705
C	0.0	0.0	0.0
Cl	0.648234	-0.825572	-2.558775
H	1.089746	0.0	0.0
H	-1.431671	-0.594482	-1.520641
N	-0.752884	1.332605	-1.948563
O	0.173451	2.131945	-1.908311
O	-1.885646	1.548708	-2.38181
N	-0.368057	-1.205009	0.700072
O	-0.293189	-1.184618	1.940059
O	-0.565592	-2.229632	0.016623
C	-0.428672	1.163375	0.736214
N	-0.73105	2.141735	1.317523
H	2.296766	0.0	0.0
