15

C	-0.442099	0.041954	-1.464246
C	0.0	0.0	0.0
F	-0.272422	-1.274847	-1.941699
H	1.08753	0.0	0.0
H	-0.384578	0.880099	0.516982
N	-1.783875	0.480729	-1.62331
H	-2.386274	-0.08004	-1.033562
H	-2.037658	0.361288	-2.596443
N	0.413731	0.859714	-2.269389
H	0.265752	1.827419	-2.014035
H	1.384622	0.623017	-2.071511
N	-0.562582	-1.180591	0.69998
O	-1.798079	-1.240757	0.768815
O	0.197224	-2.02067	1.164103
Cl	3.411772	0.0	0.0
