15

C	-0.420351	0.165531	-1.456563
C	0.0	0.0	0.0
F	-0.290296	-1.171871	-1.983401
H	1.085984	0.0	0.0
H	-0.416158	-0.914723	0.411707
N	-1.78051	0.572991	-1.595433
H	-2.394169	-0.203403	-1.385006
H	-1.953226	0.900409	-2.536744
N	0.44736	1.04436	-2.142608
H	1.397172	0.943991	-1.792388
H	0.436147	0.827796	-3.131716
N	-0.514311	1.120212	0.816186
O	-0.010028	2.226368	0.657541
O	-1.435603	0.86822	1.598586
Cl	3.375522	0.0	0.0
