13

C	-0.53684	-0.040053	-1.440625
C	0.0	0.0	0.0
Cl	0.179393	-1.400342	-2.336069
H	1.094137	0.0	0.0
H	-1.614021	-0.226127	-1.40409
C	-0.311655	1.206269	-2.16834
N	-0.190347	2.209849	-2.763232
N	-0.430473	-1.199385	0.707854
H	-1.245935	-1.018136	1.280741
H	0.328909	-1.510989	1.302248
C	-0.481052	1.22848	0.64713
N	-0.91652	2.156867	1.222381
Br	3.434709	0.0	0.0
