13

C	-0.395677	0.016271	-1.481563
C	0.0	0.0	0.0
Cl	-2.140818	0.337428	-1.728713
H	1.102769	0.0	0.0
H	0.153815	0.814412	-1.984461
C	-0.064155	-1.262858	-2.103148
N	0.185211	-2.290161	-2.613844
N	-0.556647	-1.181271	0.666762
H	-0.66829	-0.985544	1.654792
H	0.144541	-1.913227	0.596815
C	-0.453302	1.229476	0.644477
N	-0.807722	2.218866	1.168441
Br	3.420607	0.0	0.0
