13

C	-0.386443	-0.001939	-1.498516
C	0.0	0.0	0.0
Cl	0.056598	1.51849	-2.312226
H	1.095322	0.0	0.0
H	0.197608	-0.795019	-1.971566
C	-1.812118	-0.265012	-1.682408
N	-2.95751	-0.50766	-1.780403
N	-0.413028	-1.20187	0.695446
H	-1.368329	-1.468865	0.490559
H	0.227778	-1.956229	0.485899
C	-0.549521	1.182703	0.666647
N	-1.035013	2.109492	1.199847
Br	3.408623	0.0	0.0
