13

C	-0.451522	-0.070567	-1.464239
C	0.0	0.0	0.0
Cl	-0.046598	1.414556	-2.360386
H	1.094054	0.0	0.0
H	0.10591	-0.892216	-1.915854
C	-1.885883	-0.335859	-1.565391
N	-3.037704	-0.558243	-1.623447
N	-0.403214	-1.248461	0.636882
H	0.312931	-1.516455	1.301284
H	-1.290386	-1.158067	1.11625
C	-0.520403	1.19711	0.669558
N	-0.966287	2.104796	1.268341
Br	3.405476	0.0	0.0
