13

C	-0.543475	-0.148108	-1.432094
C	0.0	0.0	0.0
Cl	0.165378	-1.579189	-2.2168
H	1.094193	0.0	0.0
H	-1.620792	-0.329734	-1.372078
C	-0.318123	1.035443	-2.259842
N	-0.208415	1.986895	-2.939004
N	-0.43777	-1.145052	0.796599
H	0.3742	-1.521114	1.272171
H	-1.123576	-0.871956	1.487932
C	-0.483368	1.265849	0.55873
N	-0.924596	2.237725	1.05057
Br	3.406904	0.0	0.0
