13

C	-0.352562	0.024906	-1.50071
C	0.0	0.0	0.0
Cl	-2.125251	0.215306	-1.768079
H	1.09709	0.0	0.0
H	0.134242	0.878622	-1.977252
C	0.073035	-1.214371	-2.145243
N	0.399243	-2.212855	-2.671252
N	-0.46588	-1.146935	0.743388
H	-1.420065	-1.391423	0.500938
H	0.151668	-1.930476	0.567456
C	-0.471342	1.244611	0.614802
N	-0.869016	2.240972	1.092307
Br	3.397921	0.0	0.0
