13

C	-0.541289	-0.032388	-1.440291
C	0.0	0.0	0.0
Cl	0.171335	-1.392229	-2.339412
H	1.094171	0.0	0.0
H	-1.618104	-0.219354	-1.39727
C	-0.316452	1.215754	-2.1671
N	-0.206246	2.222325	-2.761784
N	-0.436853	-1.206005	0.701698
H	-1.137918	-0.99518	1.398086
H	0.369963	-1.605831	1.163464
C	-0.484255	1.218147	0.657082
N	-0.925246	2.149024	1.22381
Br	3.408961	0.0	0.0
