13
Coordinates from ORCA-job run
  C   -0.13517719991425     -0.61496205358619     -0.69812979996665
  C   0.77070723112612      0.28635521033317      0.16377962270376
  F   0.61185973262981     -1.63590689093285     -1.17234574685763
  H   1.20153346825783     -0.37255688969445      0.92883708445787
  C   -0.79644850811842      0.09983817491878     -1.78394509585306
  N   -1.27572419898249      0.69104744190573     -2.67998544270805
  N   -1.18159072537021     -1.22134516619737      0.25333856441473
  O   -2.34972876636121     -0.90383423391191      0.08569837782823
  O   -0.70650579696520     -1.95485008205121      1.10823476577121
  C   -0.02084587331296      1.33492935446720      0.80965484695930
  N   -0.66611194796461      2.16316844626888      1.33618933251992
  C   1.84297780322501      0.84499135511967     -0.66155913243876
  N   2.70505478175058      1.28312533336055     -1.32776737683087
