13
Coordinates from ORCA-job run
  C   -0.09298743223950     -0.62022418042677     -0.69904706813428
  C   0.73470703279689      0.30862084479587      0.21013997544912
  F   0.70276608656390     -1.63316268091232     -1.10762368154139
  H   1.12546482537239     -0.33453815882191      1.00917407812334
  C   -0.69217044492128      0.06693989072782     -1.83744753600716
  N   -1.11985165176328      0.63798441473816     -2.77181288753413
  N   -1.18952716280878     -1.23661334458504      0.18899605721844
  O   -0.75607053665625     -1.93457251124387      1.09458780210323
  O   -2.35176881752381     -0.96614609223830     -0.07475780345386
  C   -0.12353648104477      1.34285857804381      0.79071219681245
  N   -0.82935140809118      2.15433070617472      1.26276579048852
  C   1.84879720613823      0.88315306606274     -0.54512502041618
  N   2.74552878417743      1.33136946768508     -1.15656190310810
