13
Coordinates from ORCA-job run
  C   -0.32292730892477     -0.31279288332536     -0.95747248493045
  C   0.73757575067461      0.62952735280417     -0.34126541024079
  F   0.23705279139606     -0.94230971761364     -2.00709400175776
  H   1.07150099364191      1.27013125609673     -1.16851686598580
  C   -1.52868301212225      0.40773885788527     -1.35784794498223
  N   -2.47500410506606      1.00552034870642     -1.71727741656213
  N   -0.71025878378374     -1.37021673010820      0.09019703114029
  O   -1.38558690857669     -0.93654919339254      1.01262983022171
  O   -0.28383964039330     -2.49688164212667     -0.08941481139573
  C   1.88214432256825     -0.15598177818700      0.13088650020083
  N   2.80039246804457     -0.78588600843752      0.50376953894859
  C   0.19192661148755      1.48018492066252      0.71762951880253
  N   -0.21529317894612      2.20651521703581      1.54577651654093
