13

C	0.0	0.0	0.0
C	-0.473572	-0.047952	-1.446517
F	1.374849	0.0	0.0
H	-0.207431	0.879206	-1.950694
H	-1.562026	-0.202875	-1.44315
C	-0.431396	1.274827	0.605673
N	-0.550443	2.342182	1.082526
C	-0.422704	-1.130977	0.850112
N	-0.553339	-2.006301	1.62245
N	0.195112	-1.140126	-2.195218
O	0.513835	-0.894763	-3.357613
O	0.349379	-2.218473	-1.628311
Cl	-3.245544	0.0	0.0
