13

C	0.0	0.0	0.0
C	-0.483223	-0.209849	-1.428114
F	1.374971	0.0	0.0
H	-1.572168	-0.359959	-1.399019
H	-0.222948	0.653315	-2.037738
C	-0.421932	1.338418	0.460289
N	-0.525019	2.455213	0.809645
C	-0.426418	-1.026246	0.970334
N	-0.558288	-1.821673	1.824496
N	0.174135	-1.382476	-2.057173
O	0.426404	-1.289588	-3.257396
O	0.382806	-2.372323	-1.361218
Cl	-3.259236	0.0	0.0
