17

C	-0.412193	-0.045255	-1.459311
C	0.0	0.0	0.0
Br	0.42445	1.403757	-2.515857
H	1.116883	0.0	0.0
N	-0.039471	-1.260608	-2.117456
H	-0.558127	-2.042157	-1.745575
H	0.955333	-1.399317	-1.963559
N	-1.898894	0.29986	-1.773737
O	-2.331463	1.292822	-1.195976
O	-2.330967	-0.13483	-2.840731
N	-0.512902	-1.119843	0.835996
O	-1.74405	-1.158173	1.006242
O	0.309524	-1.576121	1.653108
N	-0.239113	1.213456	0.815637
O	-0.245823	1.051088	2.04115
O	0.119107	2.266158	0.281397
Br	2.824887	0.0	0.0
