17

C	-0.479569	-0.002638	-1.435965
C	0.0	0.0	0.0
Br	0.074371	1.67658	-2.243018
H	1.089845	0.0	0.0
N	0.0876	-1.056286	-2.183166
H	-0.097402	-1.957711	-1.760168
H	-0.166553	-1.017016	-3.161705
N	-2.043143	-0.065698	-1.505822
O	-2.536113	-0.84245	-0.695791
O	-2.629768	0.510839	-2.409388
N	-0.432271	-1.1926	0.794271
O	-0.922244	-1.001132	1.903509
O	-0.119659	-2.286874	0.324957
N	-0.442936	1.217044	0.736739
O	0.387224	1.713069	1.494102
O	-1.587695	1.625969	0.547989
Br	2.743437	0.0	0.0
