17

C	-0.335098	0.032807	-1.489388
C	0.0	0.0	0.0
Br	-2.209445	0.398633	-1.945716
H	1.092827	0.0	0.0
N	0.52136	0.94189	-2.091376
H	0.477974	0.897744	-3.099516
H	1.481107	0.824228	-1.753818
N	-0.157363	-1.436586	-2.081853
O	0.498188	-1.501877	-3.112884
O	-0.718682	-2.363723	-1.516276
N	-0.564622	-1.139591	0.773567
O	-1.764101	-1.073353	1.028752
O	0.207157	-2.031318	1.10105
N	-0.397384	1.237775	0.759707
O	-0.80458	2.219112	0.155015
O	-0.214328	1.152269	1.969863
Br	3.310752	0.0	0.0
