17

C	-0.449495	-0.121287	-1.472238
C	0.0	0.0	0.0
Br	0.8068	0.8191	-2.590549
H	1.116696	0.0	0.0
N	-0.532445	-1.476274	-1.939663
H	-1.1184	-2.020881	-1.314243
H	0.401288	-1.873682	-1.965642
N	-1.859436	0.476591	-1.710084
O	-2.091607	1.041063	-2.762984
O	-2.666735	0.243421	-0.819182
N	-0.392336	-1.196974	0.832214
O	0.540688	-1.868583	1.263614
O	-1.584121	-1.442219	1.000983
N	-0.468178	1.225228	0.691253
O	-0.643764	2.211832	-0.015652
O	-0.582477	1.169007	1.911301
Br	3.340619	0.0	0.0
