17

C	-0.618573	-0.01674	-1.397304
C	0.0	0.0	0.0
Br	0.369397	-1.229257	-2.545369
H	1.085512	0.0	0.0
N	-1.977711	-0.380253	-1.399543
H	-2.494679	0.274044	-0.82202
H	-2.33827	-0.365722	-2.344831
N	-0.359039	1.383455	-2.041681
O	0.610975	2.014578	-1.656249
O	-1.1491	1.707196	-2.921098
N	-0.481583	-1.221149	0.731964
O	0.11169	-2.26093	0.484045
O	-1.438087	-1.085858	1.492704
N	-0.4855	1.164245	0.807326
O	-1.452905	1.805271	0.389964
O	0.116179	1.371629	1.849288
Br	3.343687	0.0	0.0
