17

C	-0.508744	-0.003627	-1.426787
C	0.0	0.0	0.0
Br	-2.43198	-0.271285	-1.596466
H	1.089983	0.0	0.0
N	-0.166973	1.243717	-2.009612
H	-0.52026	1.33289	-2.953624
H	0.837275	1.40351	-1.961138
N	0.1888	-1.193011	-2.210136
O	1.397733	-1.226783	-2.054731
O	-0.444826	-1.842823	-3.027807
N	-0.35063	-1.191386	0.784275
O	-0.581765	-1.045247	1.987385
O	-0.580575	-2.222991	0.138157
N	-0.443333	1.244659	0.692671
O	0.416162	2.107845	0.852064
O	-1.615495	1.322449	1.054528
Br	2.905609	0.0	0.0
