17

C	-0.464304	-0.028968	-1.485569
C	0.0	0.0	0.0
Br	0.537965	-1.397624	-2.494106
H	1.116844	0.0	0.0
N	-1.895324	-0.26976	-1.606609
H	-2.168623	-0.238178	-2.600447
H	-2.077549	-1.230951	-1.283473
N	-0.235964	1.296129	-2.17458
O	-1.009114	2.251051	-1.708231
O	-0.205673	1.202817	-3.482475
N	-0.382301	-1.207168	0.761074
O	0.153939	-2.303883	0.250431
O	-0.210005	-1.058158	2.060925
N	-0.477766	1.194065	0.739284
O	-1.741762	1.103584	1.058864
O	0.335744	1.520212	1.725864
Br	2.64156	0.0	0.0
