18

C	-0.328917	-0.065611	-1.491857
C	0.0	0.0	0.0
Br	0.004694	1.729814	-2.316074
H	1.094764	0.0	0.0
H	-0.31493	-0.980523	0.395338
C	0.68342	-1.014487	-2.125117
H	1.67453	-0.747077	-1.732551
H	0.452454	-2.034261	-1.788525
H	0.647429	-0.990471	-3.218095
C	-1.772666	-0.403691	-1.827799
H	-2.010665	-1.383568	-1.395821
H	-1.93138	-0.449657	-2.908732
H	-2.462239	0.334288	-1.41066
C	-0.627957	1.109109	0.824388
H	-1.725071	1.120249	0.781378
H	-0.263871	2.085038	0.49586
H	-0.336327	0.987384	1.872485
F	2.766781	0.0	0.0
