18

C	-0.313647	0.070087	-1.501307
C	0.0	0.0	0.0
Br	-0.138774	-1.790186	-2.218189
H	1.094751	0.0	0.0
H	-0.414852	-0.909392	0.443957
C	-1.720425	0.515718	-1.86688
H	-1.861981	1.554033	-1.549359
H	-2.473121	-0.103042	-1.370117
H	-1.88231	0.462422	-2.947141
C	0.775515	0.894149	-2.182037
H	1.743175	0.582697	-1.763196
H	0.739058	0.80384	-3.271814
H	0.623626	1.948786	-1.918211
C	-0.475082	1.232702	0.767817
H	-0.087546	1.176317	1.789132
H	-0.067456	2.149386	0.331364
H	-1.566164	1.331515	0.824611
F	2.772075	0.0	0.0
