15

C	-0.564717	-0.030962	-1.412829
C	0.0	0.0	0.0
Cl	0.151822	-1.306863	-2.399468
H	1.095081	0.0	0.0
H	-1.646631	-0.162985	-1.434665
N	-0.356321	1.315717	-2.07353
O	-1.329985	2.069302	-2.008282
O	0.730413	1.583886	-2.563975
C	-0.487665	-1.183469	0.687161
N	-0.889631	-2.133143	1.253862
C	-0.385263	1.269184	0.763125
H	-0.020042	1.169463	1.787474
H	0.134828	2.121916	0.321297
H	-1.461342	1.463575	0.777057
H	2.673781	0.0	0.0
