15

C	-0.380106	-0.054941	-1.464008
C	0.0	0.0	0.0
Cl	0.144906	1.377841	-2.353946
H	1.095977	0.0	0.0
H	0.06768	-0.926118	-1.939748
N	-1.869945	-0.220775	-1.645613
O	-2.596836	0.748014	-1.443888
O	-2.252344	-1.358368	-1.92324
C	-0.436617	-1.229415	0.641224
N	-0.780106	-2.212659	1.188869
C	-0.462427	1.226648	0.777174
H	-1.548506	1.291973	0.870476
H	-0.088213	2.128339	0.290819
H	-0.014032	1.178863	1.771981
H	2.632783	0.0	0.0
