15

C	-0.554797	-0.006787	-1.415878
C	0.0	0.0	0.0
Cl	0.136836	-1.293319	-2.407801
H	1.095069	0.0	0.0
H	-1.638988	-0.110259	-1.447954
N	-0.304663	1.337463	-2.065142
O	-1.258318	2.117674	-2.00309
O	0.791999	1.577374	-2.545703
C	-0.492498	-1.192438	0.666659
N	-0.895071	-2.1512	1.217271
C	-0.388558	1.259992	0.776842
H	-1.46313	1.461502	0.77627
H	-0.040982	1.142659	1.805128
H	0.143598	2.115457	0.355997
H	2.673108	0.0	0.0
