15

C	-0.391709	-0.042788	-1.461223
C	0.0	0.0	0.0
Cl	0.178488	1.370467	-2.355538
H	1.095947	0.0	0.0
H	0.020166	-0.930017	-1.940373
N	-1.888262	-0.155258	-1.628224
O	-2.317061	-1.283387	-1.874175
O	-2.575831	0.845619	-1.445014
C	-0.441351	-1.228508	0.639298
N	-0.787302	-2.210219	1.188202
C	-0.4515	1.227517	0.783114
H	-0.080388	2.128347	0.293109
H	0.008532	1.177942	1.772976
H	-1.536353	1.296066	0.88929
H	2.631306	0.0	0.0
