16
Coordinates from ORCA-job run
  C   0.95184426403525     -0.42085208798234     -0.06213724741922
  C   -0.58140453274276     -0.42414321430411      0.03327777738364
  F   1.47465356632452     -1.16185841905373      0.94989683950711
  H   -0.83427301713866     -1.49685246872464      0.02230662409331
  C   1.40807545313328     -0.95320986037459     -1.34946059408282
  N   1.70133280987680     -1.45177803109105     -2.37175937946323
  N   1.48585833273381      1.00006728328015      0.08615345283682
  O   1.66025159769428      1.63294792836794     -0.94551312098929
  O   1.65072597696078      1.38282810496434      1.23696481093423
  N   -1.10311606393968      0.32385847270939     -1.09322674349299
  H   -2.04550715447444      0.63748983465415     -0.90503673330048
  H   -1.11102138022650     -0.22605888711079     -1.94314743463247
  C   -1.06526574334622      0.17806171179329      1.34363321346110
  H   -0.94394358779730      1.26239222404129      1.33546776723316
  H   -2.12591902239441     -0.05400569368575      1.46716317545938
  H   -0.52329149869874     -0.22888689748356      2.19641759247175
