16
Coordinates from ORCA-job run
  C   0.76699395186038      0.35027435860154     -0.41446061174602
  C   -0.39214262609830     -0.26600268247876      0.36720552743151
  F   0.40367148797709      0.55292925643210     -1.70649414640066
  H   -0.01482652793132     -0.43174516073007      1.37988272823646
  C   1.26124615416821      1.60152704696446      0.16621053213052
  N   1.61450162957302      2.61375391005996      0.64628048412192
  N   1.92392298665194     -0.65186555316884     -0.40453366048330
  O   2.27353465357455     -1.12015216504726     -1.47133981764362
  O   2.37169067457805     -0.88485763978543      0.70990719066084
  N   -0.63698077912386     -1.56463687482807     -0.23658442816879
  H   -1.20840606348294     -1.47384093715521     -1.06747842430922
  H   -1.11066787718324     -2.17592783140497      0.41460307974628
  C   -1.58229461527579      0.68976869098552      0.39782892665385
  H   -1.33852106137867      1.63795391794137      0.88333047490486
  H   -2.39981886713887      0.22434114116765      0.95187129597624
  H   -1.93090312077024      0.89848052244601     -0.61622915111088
