16
Coordinates from ORCA-job run
  C   1.00718364437762     -0.26743414346996     -0.03229235425460
  C   -0.50703109665585     -0.50993841536074      0.05837991860099
  F   1.62727474604645     -0.85324638122411      1.02545833162689
  H   -0.58414208392668     -1.60766149520086      0.12034802802396
  C   1.56141763833283     -0.79565689585786     -1.28215285800276
  N   1.95020431229830     -1.30311992383889     -2.26761164919777
  N   1.30553184521652      1.22736953484315      0.03143788512047
  O   1.37980778990418      1.81882184819527     -1.03618523246955
  O   1.39785221389459      1.69832556691114      1.15727870591611
  N   -1.12746107862396      0.06667474507146     -1.11759467621903
  H   -2.11071793114320      0.23464505572806     -0.95343484698731
  H   -1.03433824323919     -0.53244799170038     -1.92829059361274
  C   -1.09750156140227      0.09492282318809      1.32289762931810
  H   -2.10718714222705     -0.29798131296487      1.46438592230250
  H   -0.50505118305018     -0.15411255340764      2.20209448485176
  H   -1.15584186980210      1.18083953908817      1.23528130498298
