16
Coordinates from ORCA-job run
  C   0.92088263968574     -0.21721260206637     -0.38367253606658
  C   -0.46919966005226     -0.50951734372095      0.17997363216495
  F   1.45399722019656     -1.37390356731339     -0.86733340099335
  H   -0.29641129219706     -1.25713223368640      0.96995003634829
  C   0.92088984997212      0.80273755194356     -1.43136907676635
  N   0.90748794685420      1.61247297648036     -2.28149570463470
  N   1.82204679349218      0.23851531612250      0.76235991098020
  O   1.94085556593211      1.44727194009462      0.92535745920860
  O   2.28278702612101     -0.65622568041736      1.45687974997031
  N   -1.24731540832615     -1.00405880079265     -0.94210158772394
  H   -2.23501550128978     -0.97789564080222     -0.72542233714410
  H   -0.99212572713556     -1.95648403156795     -1.16879624144842
  C   -1.11890373114785      0.73260347640579      0.76589584808757
  H   -0.53757133147224      1.15535112896369      1.58503423590303
  H   -1.24884250542215      1.49377830491705     -0.00589520901049
  H   -2.10356188521086      0.46969920543972      1.15963522112499
