16
Coordinates from ORCA-job run
  C   0.88840813396218     -0.26051484974873     -0.34246819976148
  C   -0.49965888787066     -0.54059832842704      0.26245406417066
  F   1.43372895828117     -1.43606522454586     -0.76540511005260
  H   -0.30175203298013     -1.27347074781920      1.05374818886733
  C   0.83251499543099      0.68313974233628     -1.45891050770186
  N   0.69345137996934      1.39774660353701     -2.38094654926726
  N   1.80161085175763      0.28983028701846      0.74297817023660
  O   2.23986517355763     -0.54045690672205      1.52708506854544
  O   1.94846265041236      1.50631998712805      0.78120662377474
  N   -1.39003186818031     -1.14665532866921     -0.70066844271512
  H   -0.97962614353488     -1.96869396761826     -1.12470715850373
  H   -1.65067435725072     -0.49135817405299     -1.42854575317875
  C   -1.12492462192938      0.71311704703185      0.84966471023425
  H   -0.53195181022426      1.13200167929777      1.66306724633298
  H   -1.24894704205470      1.48536235448662      0.08520092168412
  H   -2.11047537934625      0.45129582676728      1.23524672733467
