16
Coordinates from ORCA-job run
  C   0.91999907178333     -0.23778487000379     -0.37392955145602
  C   -0.47840685281446     -0.49879939086256      0.18535237336531
  F   1.43551463947833     -1.40991678136629     -0.83828576498535
  H   -0.32193623693713     -1.23562282057976      0.98883584192087
  C   0.94263503469647      0.76773066128100     -1.43524979829829
  N   0.94711133778797      1.56611468470160     -2.29630701524130
  N   1.82236070436588      0.21874929477964      0.77053293652713
  O   1.95900119276583      1.42758303243113      0.91843379077549
  O   2.26654620284501     -0.67361696817206      1.47883993186919
  N   -1.25596898057826     -1.00037987210613     -0.93384101336274
  H   -1.01768318581040     -1.96154557077825     -1.14060958031335
  H   -2.24485523425340     -0.95000487584916     -0.72793455397066
  C   -1.11318143087451      0.76266898094131      0.74543308054909
  H   -1.23401773929999      1.50860220366868     -0.04277310508006
  H   -2.10050161321416      0.51911829228896      1.14511752417979
  H   -0.52661690994050      1.19610399962567      1.55538490352090
