16
Coordinates from ORCA-job run
  C   0.94031778274313     -0.42850774780578      0.13944890432670
  C   -0.59427049954360     -0.40159684241964      0.06942476346098
  F   1.33423793620849     -0.91385619135062      1.34599731424513
  H   -0.87580998211597     -1.44506344486538      0.28539623227187
  C   1.50977449023477     -1.25075080790184     -0.93210311898602
  N   1.89046895579521     -1.98012257031024     -1.77045002043023
  N   1.49822074303371      0.98495680593971      0.00896182185760
  O   1.79210332100586      1.35841109844527     -1.11770485114141
  O   1.55748697241342      1.62559384012787      1.05011688423840
  N   -0.97636780773751      0.06015833752455     -1.25004205156613
  H   -1.92439320222744      0.41107491615725     -1.24217221495159
  H   -0.91129407895230     -0.67480293462957     -1.94326169829878
  C   -1.19041272415518      0.49721260384849      1.14201159638918
  H   -1.03800180081106      1.54765250800772      0.88947862473745
  H   -0.74869342899920      0.30383538322144      2.11868511542038
  H   -2.26436667689233      0.30580504601076      1.20521269842648
