16
Coordinates from ORCA-job run
  C   0.98398174238425     -0.31610083860853     -0.22908725311311
  C   -0.50520564459191     -0.57075785917739      0.02982491996637
  F   1.73022196497685     -1.05551520997345      0.62865357508215
  H   -0.57012060745275     -1.66513399271821      0.02790701092902
  C   1.39397600923546     -0.58640985430630     -1.60802828981051
  N   1.78298867078869     -0.85338138643404     -2.68334356350037
  N   1.28620719685519      1.15682710832927      0.07036641046937
  O   1.94919916673391      1.40582165759377      1.06307526363064
  O   0.76659152448466      1.95442240414532     -0.70179052259919
  N   -1.27966358746539     -0.09160602557531     -1.09747834575991
  H   -2.20294022450061     -0.50411441357457     -1.08740181350318
  H   -1.37233242351254      0.91622308737172     -1.07489043715593
  C   -0.90529171068210     -0.04670131618448      1.40858462908885
  H   -0.21953393584432     -0.38328184272574      2.18923417967191
  H   -0.93182481587837      1.04649905132485      1.41349924873044
  H   -1.90725332553103     -0.40579056948691      1.65187498787343
