16
Coordinates from ORCA-job run
  C   0.88378360854155     -0.26109214403936     -0.35312851875755
  C   -0.50043932340136     -0.54144757543341      0.26007712973210
  F   1.41909849721566     -1.43405939937967     -0.79546890511705
  H   -0.29989434419173     -1.28552136337814      1.04014388252548
  C   0.82381437772551      0.69717568535340     -1.45694015366125
  N   0.68243013608522      1.42446489567708     -2.36855624293165
  N   1.80960110189953      0.27086178763593      0.73107813351864
  O   2.25151696725545     -0.57179351844795      1.49977770053306
  O   1.96231337144468      1.48605848000490      0.78429999430756
  N   -1.40191765208964     -1.13050094431405     -0.70335928523465
  H   -0.99950551199681     -1.94922639298778     -1.14119834706008
  H   -1.66524016781404     -0.46471424417640     -1.42066113700439
  C   -1.11413819801674      0.70784303132513      0.86835204787200
  H   -2.09795616741967      0.44637479392123      1.25842650862810
  H   -1.24012372283369      1.49055415669929      0.11500915732614
  H   -0.51234297240392      1.11302275153978      1.68214803532353
