16
Coordinates from ORCA-job run
  C   0.93163860466700     -0.19566868589418     -0.36968396605380
  C   -0.45932555592760     -0.51965306129006      0.17454635187464
  F   1.49696061056667     -1.33972345684814     -0.84602518003000
  H   -0.28044400818817     -1.26077707128435      0.96932889884735
  C   0.92253645973973      0.82483754886364     -1.41682880734032
  N   0.90160283904970      1.63500010744659     -2.26652949246348
  N   1.80677607239976      0.28014057992078      0.78821411022115
  O   2.28170673293651     -0.60390281129044      1.48696168708887
  O   1.89335179439032      1.49125001055360      0.95436341476143
  N   -1.20794293427451     -1.03592149577339     -0.95768946200194
  H   -0.93028363796077     -1.98410189919488     -1.17527147502682
  H   -2.19957191592527     -1.02772462202417     -0.75879478910965
  C   -1.14835252440459      0.70744250285938      0.74667070576222
  H   -1.29349460135523      1.45907506112345     -0.03205440447776
  H   -0.58587874743666      1.15273558640815      1.56723244810804
  H   -2.12827918827688      0.41899170642401      1.13455995984008
