16
Coordinates from ORCA-job run
  C   1.00191646623967     -0.26367669044761      0.11863653544802
  C   -0.51722684155557     -0.49199979231928      0.10043492606481
  F   1.50604964860691     -0.63903764973295      1.32351930544825
  H   -0.61568487886059     -1.56004458432441      0.35397310820772
  C   1.66850549325429     -1.01399759871997     -0.94962770131897
  N   2.14176983336598     -1.69579211633604     -1.78090948062030
  N   1.31421139797461      1.21772622355761     -0.06775638697816
  O   1.29737174619100      1.89194961579364      0.95352054009502
  O   1.50891172161845      1.59873025720480     -1.21329411636138
  N   -1.00870127644352     -0.14327603505183     -1.21745662442641
  H   -1.99959381090373      0.05419219767367     -1.18657003121229
  H   -0.84809663355137     -0.88177695815131     -1.89096223721524
  C   -1.22239807163335      0.33073920480062      1.16787780645177
  H   -1.25329890500184      1.38321997350250      0.88183531401989
  H   -2.24753326151389     -0.03256526270861      1.27309144643337
  H   -0.72620262778705      0.24460921525916      2.13368759596392
