16
Coordinates from ORCA-job run
  C   0.94819988467389     -0.42744761750885      0.07828826693543
  C   -0.58724755005203     -0.41670725061215      0.02869333240608
  F   1.36433326764299     -1.04385962035145      1.21545198487864
  H   -0.85087678208823     -1.48261993203456      0.12389475381474
  C   1.51612070564721     -1.10934938245325     -1.08835138680012
  N   1.89662413436898     -1.72826520264831     -2.01136799655923
  N   1.48407173075314      1.00062492687987      0.10756043460461
  O   1.75805631883089      1.50720881136253     -0.97108074429962
  O   1.54715739693613      1.51648757434949      1.21558124597576
  N   -0.99306432189622      0.18964702332128     -1.22352669643223
  H   -0.92684701650183     -0.45830928405102     -1.99850316928046
  H   -1.94531806240855      0.52326895268502     -1.16383467488334
  C   -1.18273798580779      0.34128484030545      1.20531133723441
  H   -2.25274534697777      0.12620497038065      1.25835762315544
  H   -1.04968684237235      1.41631792096687      1.07475370159993
  H   -0.72503953074846      0.04351326940844      2.14777198764997
