16
Coordinates from ORCA-job run
  C   0.93056350216688     -0.21283706238624     -0.36308503647134
  C   -0.46576921572019     -0.51206215734501      0.18150726418807
  F   1.48586427251711     -1.37135207675413     -0.81617236670184
  H   -0.29759691732691     -1.24230016366193      0.98846879909994
  C   0.93577043022984      0.78824215505537     -1.42885311964226
  N   0.92570843184580      1.58250542987087     -2.29359806128549
  N   1.80557601286797      0.27433258821029      0.78997267935261
  O   1.91889300220187      1.48686182441849      0.92593656104668
  O   2.25369116884460     -0.60217208161785      1.51570271320687
  N   -1.21731780555750     -1.03752415833505     -0.94444138057608
  H   -0.95106705832697     -1.99260708774036     -1.14526195792480
  H   -2.20946740596661     -1.01347244590252     -0.74939393581132
  C   -1.14073179011346      0.73272188036098      0.73175029257865
  H   -0.57498145465598      1.18387729168482      1.54689056644515
  H   -1.27364486421273      1.47352717121797     -0.05939949068905
  H   -2.12549030879372      0.46325889292430      1.12097647318423
