16
Coordinates from ORCA-job run
  C   0.97912198445158     -0.23744847719449     -0.36151445583415
  C   -0.42276870165896     -0.57599112273090      0.16389286813047
  F   1.62669495647477     -1.37208509249819     -0.71510557526432
  H   -0.24153227634392     -1.36244185866372      0.90474247475327
  C   0.93458722979271      0.69253271663039     -1.49129007303816
  N   0.82540766110725      1.41583558155988     -2.41004947877184
  N   1.77793731049196      0.39245804845215      0.77644289529577
  O   1.87547879631649      1.61404359697504      0.78830386204157
  O   2.18314204148359     -0.39438134439985      1.62150705165022
  N   -1.14425043129756     -1.13915459049036     -0.96361692102792
  H   -1.66678247417903     -1.96115646740778     -0.69943662445368
  H   -1.77669376882448     -0.46259049473746     -1.37096095667904
  C   -1.09825506299704      0.62299279002320      0.81846673173950
  H   -2.10071015075838      0.32927918412930      1.13530014399438
  H   -1.19128460774282      1.45021035079585      0.10877900146231
  H   -0.56009250631616      0.98589717955694      1.69553905600163
