16
Coordinates from ORCA-job run
  C   0.80928318610250      0.28366671324151     -0.38425714384122
  C   -0.42728990566279     -0.22238538044278      0.35691445327421
  F   0.53099381792464      0.44389009756314     -1.70308817859227
  H   -0.11784103881430     -0.35624381435862      1.39686947859547
  C   1.34835236927917      1.53036088516687      0.16564980902166
  N   1.73846706890687      2.54246286009367      0.61651303173658
  N   1.89781931717872     -0.78535686955843     -0.26132102922091
  O   2.27516627047973     -1.32540647127464     -1.28382943735601
  O   2.26655456346080     -0.99136368600314      0.88671450568715
  N   -0.71669000940007     -1.53468815064401     -0.19603420446606
  H   -1.23050174393992     -1.45294781736375     -1.06477735349875
  H   -1.26824596407489     -2.07912978503330      0.45281545174176
  C   -1.55684366582348      0.80070679664453      0.27039158939986
  H   -2.43021133247376      0.41448781727323      0.79968109663319
  H   -1.83681762475341      0.97359962774889     -0.77127320353080
  H   -1.28319530838981      1.75834717694683      0.72003113441615
