16
Coordinates from ORCA-job run
  C   1.01404304152929     -0.21697111664274     -0.11217143951959
  C   -0.48203005434542     -0.53350070370147      0.03576953083420
  F   1.71728288633971     -0.87328274394766      0.84744596595414
  H   -0.51333126849368     -1.63435662080140     -0.00896036228566
  C   1.51102418359333     -0.59991625760278     -1.43711152229228
  N   1.84955982881558     -0.99533486725677     -2.49003425100338
  N   1.25822661413349      1.27628408856645      0.08029921856945
  O   1.25132727182945      1.96884264257875     -0.92746997090084
  O   1.39534197714553      1.64210778293083      1.24015002767442
  N   -1.19108316828399      0.12960155372345     -1.04024029363818
  H   -2.17088179960654      0.22736740430434     -0.81115571404555
  H   -1.11443943332470     -0.37640171396663     -1.91378798903152
  C   -1.02154202405436     -0.08430303655137      1.38514569133761
  H   -2.00753317317753     -0.53024476067778      1.53682301004799
  H   -1.12216879495253      1.00167376205832      1.41493914107824
  H   -0.37279608714766     -0.39956541301353      2.20135895722094
