16
Coordinates from ORCA-job run
  C   0.80711792501297      0.27835430585844     -0.38597136088501
  C   -0.43109011493380     -0.20245592620623      0.36801792223640
  F   0.57026586363391      0.27501433509930     -1.72293657246138
  H   -0.15557227333404     -0.20410348150278      1.42604099796345
  C   1.26968481112520      1.60441020068915      0.03183055756662
  N   1.62234171891626      2.67908220574478      0.34880529330563
  N   1.93887115869825     -0.71424553128162     -0.10777241924048
  O   2.37667077732240     -1.34801730637046     -1.04908386103664
  O   2.27478152813900     -0.76940637172005      1.06713132591661
  N   -0.63990813449544     -1.58141544315310     -0.04049887297967
  H   -1.19280825689156     -2.07440699190881      0.64730506237971
  H   -1.12281679694459     -1.62273326818795     -0.92966957948823
  C   -1.60188218534625      0.74784368258638      0.13011935465033
  H   -1.38751599996971      1.76254609530215      0.47475344688166
  H   -2.47558761210648      0.38261753128046      0.67350389340235
  H   -1.85155240882612      0.78791596377033     -0.93257518821136
