16
Coordinates from ORCA-job run
  C   0.95861624626674     -0.38386427343876     -0.13157200007753
  C   -0.56860591106668     -0.44445686530931      0.02439825075679
  F   1.54487486913784     -1.18111417005096      0.79969375152603
  H   -0.78837765503029     -1.52171193733856     -0.05152233293340
  C   1.37834689562783     -0.80374402270723     -1.47172510961548
  N   1.67099885443396     -1.23071317072461     -2.52611891007197
  N   1.45580904384375      1.03866873905006      0.10331252819037
  O   1.56444780071425      1.75285595509258     -0.88335716226598
  O   1.66115549455470      1.33914825444470      1.27178471929205
  N   -1.15968646236145      0.36074633485782     -1.02582461160185
  H   -2.10030949899541      0.63449071987421     -0.77647511629360
  H   -1.19142499659489     -0.13164297220604     -1.90978081361785
  C   -1.01436403269383      0.05087690529195      1.39164293019706
  H   -2.06077071060057     -0.22501342392427      1.54281704750650
  H   -0.42275059828665     -0.39238829873866      2.19159598844820
  H   -0.92795933894931      1.13686222582707      1.45213084056066
