16
Coordinates from ORCA-job run
  C   0.79976516254113      0.26475021568476     -0.41594785880751
  C   -0.41928462901915     -0.20046046883027      0.37879549988109
  F   0.50330154119618      0.31392849736805     -1.73983583674002
  H   -0.09537033675430     -0.24724822557109      1.42199474818550
  C   1.32342480726565      1.56028490433181      0.02502309024921
  N   1.70139438258980      2.61199286038986      0.38688186668202
  N   1.90837291657403     -0.77257357843512     -0.22197286099836
  O   2.29316952737657     -0.88031795986754      0.93415765254043
  O   2.28476458701803     -1.38509370701032     -1.20315230232959
  N   -0.69262641131387     -1.55716776647071     -0.06454554182502
  H   -1.22962295937266     -2.05542471341869      0.63199616348626
  H   -1.21739046690041     -1.55248895355355     -0.93074236955391
  C   -1.56683495801220      0.79462256142286      0.22671474292334
  H   -2.42632945415796      0.43961167989424      0.79870497036777
  H   -1.30274293054452      1.78969518462215      0.59306706816287
  H   -1.86399077848632      0.87788946944356     -0.82113903222410
