16
Coordinates from ORCA-job run
  C   0.92663446144249     -0.19675606467654     -0.38130800722946
  C   -0.46053574706061     -0.51924438699361      0.17374300636424
  F   1.48013642450028     -1.33795968852079     -0.87762588723945
  H   -0.27741502347243     -1.27011936692217      0.95831633814714
  C   0.91199622429830      0.83612171036788     -1.41620033353409
  N   0.88674345944104      1.65642500541752     -2.25606738318211
  N   1.81694230724646      0.25994845892793      0.77245515488776
  O   2.29437521731889     -0.63558242743923      1.45474456350967
  O   1.91329894537343      1.46827452689878      0.95241063386524
  N   -1.22398071630552     -1.01877809976799     -0.95611317352979
  H   -0.95552732266276     -1.96676382286664     -1.18570010474438
  H   -2.21345233648704     -1.00544595879042     -0.74710232975745
  C   -1.13668271617896      0.70565384058306      0.76592619999828
  H   -0.56081515101961      1.14272129565617      1.58154721002051
  H   -2.11224009672068      0.41791967132865      1.16515528513097
  H   -1.28947792971329      1.46358530679741     -0.00518117270709
