16
Coordinates from ORCA-job run
  C   0.97377244209884     -0.22882136034792     -0.37999378700984
  C   -0.42014589859352     -0.57932854722612      0.15878739940754
  F   1.61726316275063     -1.35545535627321     -0.76514926479326
  H   -0.22746596499894     -1.37884465759220      0.88256912013722
  C   0.91210228810947      0.72317081088287     -1.49043457045243
  N   0.79073755058758      1.46491664532061     -2.39277323645407
  N   1.78878063772372      0.37950925824153      0.75843354200603
  O   2.20640783394393     -0.42335256631386      1.58212865692506
  O   1.88697016034503      1.60065374271310      0.79213702650573
  N   -1.15718350599372     -1.12174591528615     -0.96867315867239
  H   -1.66970416610833     -1.95319560124241     -0.71489619390472
  H   -1.80008449747238     -0.44047700568912     -1.35068535857697
  C   -1.08754623769682      0.60672283657587      0.84463938281354
  H   -1.19167352358041      1.44633632755381      0.15122826056719
  H   -2.08500469375108      0.30603652824574      1.17056536478328
  H   -0.53722558736402      0.95487486043745      1.72011681671808
