16
Coordinates from ORCA-job run
  C   0.88996552248795     -0.23330044971257     -0.35807762550010
  C   -0.48583927257005     -0.55729390066291      0.25299107286869
  F   1.45414535763054     -1.38613984490166     -0.81723831007838
  H   -0.26487742987251     -1.30605073205429      1.02301034298962
  C   0.80381680198720      0.73789018155548     -1.44864053170945
  N   0.64123453082128      1.47415620909587     -2.34952536907330
  N   1.80286833761116      0.30639425789629      0.73282980228518
  O   1.92485809534455      1.52418195042894      0.80297106991547
  O   2.26580246537307     -0.53557591220598      1.48985844939626
  N   -1.37358506887505     -1.15639475698363     -0.71670100839329
  H   -1.65721754000259     -0.48769490509684     -1.42345135009728
  H   -0.95082051928614     -1.95776973205220     -1.16728438498944
  C   -1.13016095374042      0.66759475070895      0.87896244469921
  H   -0.53731772467902      1.07696347208708      1.69731437179180
  H   -2.10618033563746      0.37603763108856      1.26747466342372
  H   -1.27769226659251      1.45700178080890      0.13650636247127
