16
Coordinates from ORCA-job run
  C   0.97435882451713     -0.23431156150427     -0.37700483423782
  C   -0.42294705713950     -0.57855797960819      0.15646937044616
  F   1.61468506301258     -1.36389554448797     -0.75878736737698
  H   -0.23662912165271     -1.38182852010073      0.87752588527464
  C   0.92069521008381      0.71723426948404     -1.48831821327913
  N   0.80389796061182      1.46020991845090     -2.39030335884600
  N   1.78703978021983      0.37161505785922      0.76405847616072
  O   2.19550978884850     -0.43187748098491      1.59166130783685
  O   1.89270898716151      1.59206911732945      0.79535473154245
  N   -1.15901959997557     -1.11446530094795     -0.97464943359979
  H   -1.78660444527637     -0.42366021929144     -1.36531596202153
  H   -1.68963048051188     -1.93439364723466     -0.71999405065160
  C   -1.08628418017070      0.60828911071206      0.84474117070458
  H   -0.53682559500507      0.95105601621061      1.72297964592816
  H   -2.08603938055092      0.31089127327351      1.16688315236674
  H   -1.18491575417246      1.45062549084032      0.15369947975253
