16
Coordinates from ORCA-job run
  C   0.88819232006597     -0.25118773304321     -0.34993269937159
  C   -0.49470922817092     -0.54661102400007      0.26009129384427
  F   1.43819308738502     -1.41877427488025     -0.78818184089608
  H   -0.28752553853325     -1.28658981675444      1.04240566706906
  C   0.82038371317226      0.70296321840398     -1.45688482465200
  N   0.67503768020536      1.42419483001281     -2.37264402028307
  N   1.80405744516257      0.29436510640443      0.73543307522140
  O   1.92981831795097      1.51239007456341      0.79364873689619
  O   2.26424656645688     -0.54151266268777      1.50064996570228
  N   -1.38626820997124     -1.14836727234860     -0.70453417940770
  H   -1.65736744056759     -0.48663734008266     -1.42270153820241
  H   -0.97254224137341     -1.96221806156500     -1.14091270702115
  C   -1.12527536978377      0.69647625588199      0.86405692764958
  H   -2.10886988800072      0.42470922717642      1.24783833224551
  H   -0.53306006097947      1.10785215632115      1.68185855635785
  H   -1.25431115301864      1.47794731659779      0.10980925484786
