13

C	0.0	0.0	0.0
C	-0.524606	-0.151332	-1.428436
Br	1.944744	0.0	0.0
H	-1.62021	-0.059944	-1.31937
H	-0.352028	-0.856343	0.574388
C	-0.398976	1.256711	0.628047
N	-0.61474	2.273722	1.175033
N	-0.213193	-1.483981	-1.920902
H	0.722745	-1.515422	-2.303482
H	-0.871536	-1.730085	-2.647528
C	-0.032739	0.927743	-2.303264
N	0.347191	1.730459	-3.073612
Br	-3.567901	0.0	0.0
