13

C	0.0	0.0	0.0
C	-0.547089	0.197036	-1.432002
Br	1.947963	0.0	0.0
H	-1.61714	0.416173	-1.275707
H	-0.351698	-0.958492	0.381585
C	-0.390189	1.080795	0.903699
N	-0.579418	1.979761	1.636427
N	-0.466067	-0.982397	-2.269253
H	0.437246	-1.433437	-2.172771
H	-1.201393	-1.616845	-1.976116
C	0.083801	1.345761	-2.089288
N	0.577891	2.264309	-2.629227
Br	-3.530517	0.0	0.0
