13

C	0.0	0.0	0.0
C	-0.539824	-0.076603	-1.448251
Br	1.949362	0.0	0.0
H	-1.603043	0.195126	-1.34534
H	-0.359322	-0.866277	0.554784
C	-0.386195	1.236371	0.677802
N	-0.5669	2.263753	1.219189
N	-0.490986	-1.401135	-2.031973
H	-1.253101	-1.936398	-1.630071
H	0.392443	-1.85487	-1.82874
C	0.117807	0.902511	-2.319228
N	0.625	1.682442	-3.036235
Br	-3.504415	0.0	0.0
