16

C	-0.475471	-0.208701	-1.465855
C	0.0	0.0	0.0
Br	0.349104	-1.838005	-2.184561
H	1.106724	0.0	0.0
C	-1.990687	-0.352731	-1.600272
H	-2.329033	-1.217475	-1.027951
H	-2.490631	0.545819	-1.226246
H	-2.266431	-0.485869	-2.647056
C	-0.020504	0.921261	-2.274392
N	0.249189	1.861506	-2.926442
C	-0.520984	-1.09398	0.825941
N	-1.000785	-1.953499	1.466996
N	-0.383555	1.28144	0.566766
H	0.315189	1.969481	0.315776
H	-1.299969	1.59287	0.275659
Br	3.415202	0.0	0.0
