16

C	-0.443114	-0.128986	-1.476996
C	0.0	0.0	0.0
Br	0.203823	1.442125	-2.454356
H	1.094131	0.0	0.0
C	0.162153	-1.376641	-2.112213
H	-0.074904	-1.419391	-3.176242
H	1.245416	-1.335236	-1.972664
H	-0.232405	-2.270126	-1.621224
C	-1.902535	-0.105901	-1.565076
N	-3.078756	-0.104055	-1.594725
C	-0.453736	-1.203274	0.715376
N	-0.873121	-2.133432	1.300782
N	-0.473	1.224391	0.618172
H	0.256655	1.589254	1.216603
H	-1.313425	1.073047	1.160484
Br	3.430618	0.0	0.0
