17

C	-0.385307	-0.026326	-1.480783
C	0.0	0.0	0.0
F	0.034705	1.139745	-2.032768
H	1.092812	0.0	0.0
C	0.224348	-1.19979	-2.197553
H	-0.007995	-1.123543	-3.262159
H	1.305125	-1.151453	-2.044288
H	-0.166453	-2.13684	-1.805023
N	-1.90809	-0.04629	-1.646432
O	-2.455292	0.975251	-2.042
O	-2.457178	-1.107548	-1.369162
C	-0.499496	-1.140308	0.748311
N	-0.845688	-2.072354	1.373615
N	-0.527843	1.272217	0.607073
O	0.242487	2.219019	0.687757
O	-1.714924	1.264518	0.937489
Cl	3.182145	0.0	0.0
