17

C	-0.487012	0.012251	-1.45721
C	0.0	0.0	0.0
F	-0.04902	-1.154417	-2.003514
H	1.092634	0.0	0.0
C	-1.966004	0.149731	-1.718233
H	-2.335482	1.117996	-1.390541
H	-2.500324	-0.636687	-1.184293
H	-2.123029	0.028216	-2.792757
N	0.211613	1.146745	-2.190496
O	0.714828	0.901099	-3.275242
O	0.124639	2.241005	-1.641516
C	-0.517044	-1.197799	0.646635
N	-0.940565	-2.170092	1.151585
N	-0.472421	1.184578	0.806897
O	0.381394	1.910431	1.2928
O	-1.690407	1.305359	0.946385
Cl	3.172071	0.0	0.0
