17

C	-0.410628	0.062415	-1.47732
C	0.0	0.0	0.0
F	-0.170048	1.29959	-1.987813
H	1.091623	0.0	0.0
C	0.31271	-0.97634	-2.285188
H	0.07909	-1.982324	-1.941208
H	1.382585	-0.788294	-2.161516
H	0.023614	-0.879549	-3.332891
N	-1.931641	-0.101485	-1.562502
O	-2.381488	-1.125284	-2.071756
O	-2.588705	0.821622	-1.088761
C	-0.487056	-1.239531	0.584885
N	-0.866176	-2.270864	1.000448
N	-0.482666	1.177278	0.798345
O	0.001981	2.259986	0.503474
O	-1.305488	0.967516	1.688591
Cl	3.160198	0.0	0.0
