17

C	-0.430679	-0.005548	-1.46258
C	0.0	0.0	0.0
F	0.033882	1.140953	-2.022344
H	1.092937	0.0	0.0
C	0.091714	-1.209287	-2.199372
H	1.17828	-1.222955	-2.087856
H	-0.17698	-1.121838	-3.254656
H	-0.338858	-2.121608	-1.788598
N	-1.955839	0.041713	-1.604577
O	-2.551523	-0.954084	-1.208311
O	-2.454194	1.032936	-2.120119
C	-0.500637	-1.124471	0.772209
N	-0.850393	-2.026669	1.438204
N	-0.486137	1.280043	0.642293
O	0.353482	2.10434	0.973871
O	-1.706628	1.390765	0.764289
Cl	3.18586	0.0	0.0
