17

C	-0.513527	0.000731	-1.452099
C	0.0	0.0	0.0
F	0.019218	-1.101221	-2.040515
H	1.092601	0.0	0.0
C	-2.01017	-0.007098	-1.643163
H	-2.421312	-0.899181	-1.169395
H	-2.219227	-0.04213	-2.714928
H	-2.466123	0.877455	-1.206311
N	0.043267	1.216631	-2.182447
O	-0.413878	2.292236	-1.802322
O	0.828345	1.031393	-3.097363
C	-0.495531	-1.204673	0.651667
N	-0.902933	-2.183209	1.157696
N	-0.50347	1.196444	0.764989
O	-1.664247	1.146329	1.173676
O	0.273378	2.127675	0.91558
Cl	3.163642	0.0	0.0
