14

C	-0.097377	-0.043535	-1.50483
C	0.0	0.0	0.0
Br	-1.943477	-0.715333	-2.15317
H	1.098693	0.0	0.0
H	-0.148179	0.963028	-1.933475
H	-0.336946	-0.955489	0.412182
N	0.939263	-0.867565	-2.009956
H	1.766277	-0.707397	-1.397973
H	1.15743	-0.638302	-2.968092
C	-0.662159	1.18859	0.659839
H	-0.260058	2.125137	0.260926
H	-1.747685	1.193564	0.514956
H	-0.463174	1.18623	1.734327
F	2.740977	0.0	0.0
