14

C	-0.466305	-0.012555	-1.434272
C	0.0	0.0	0.0
Br	-0.159002	1.733549	-2.339525
H	1.093184	0.0	0.0
H	0.195374	-0.669864	-2.008384
H	-0.296804	-0.988567	0.394527
N	-1.882672	-0.305098	-1.577753
H	-2.095949	-0.548288	-2.537518
H	-2.092418	-1.102589	-0.987149
C	-0.59033	1.09898	0.869854
H	-0.174865	2.066335	0.577453
H	-0.304901	0.927953	1.913153
H	-1.683148	1.159773	0.809956
F	2.719323	0.0	0.0
