12

C	-0.387168	0.17036	-1.453286
C	0.0	0.0	0.0
F	-1.712159	0.631839	-1.565014
H	1.091636	0.0	0.0
H	-0.410433	-0.907628	0.439308
H	-0.354167	0.880081	0.539169
N	0.475438	1.129529	-2.059177
H	0.472767	1.060368	-3.067393
H	1.423999	1.021251	-1.707975
C	-0.408385	-1.134991	-2.174442
N	-0.399083	-2.158059	-2.751755
Cl	3.461626	0.0	0.0
