12

C	-0.363054	-0.071182	-1.469767
C	0.0	0.0	0.0
F	-0.26546	1.239403	-2.006032
H	1.092368	0.0	0.0
H	-0.405761	0.905132	0.44879
H	-0.357888	-0.885386	0.526775
N	0.49353	-0.983459	-2.124247
H	1.455224	-0.831131	-1.823545
H	0.416221	-0.908505	-3.129921
C	-1.778638	-0.451255	-1.713399
N	-2.902392	-0.743387	-1.885797
Cl	3.492048	0.0	0.0
