12

C	-0.580713	0.020579	-1.390504
C	0.0	0.0	0.0
F	-0.132878	-1.073167	-2.112224
H	1.089796	0.0	0.0
H	-0.34433	0.876347	0.557176
H	-0.366539	-0.904631	0.489773
N	-2.020737	-0.082697	-1.34731
H	-2.388398	0.571788	-0.669022
H	-2.41902	0.130524	-2.25394
C	-0.153157	1.225846	-2.156236
N	0.085287	2.228848	-2.718868
Cl	3.543572	0.0	0.0
