12

C	-0.395184	0.181511	-1.449357
C	0.0	0.0	0.0
F	-1.718314	0.653383	-1.546725
H	1.091717	0.0	0.0
H	-0.40954	-0.910572	0.433831
H	-0.353141	0.875484	0.547157
N	0.467584	1.138995	-2.056052
H	0.455918	1.078603	-3.065126
H	1.419562	1.030221	-1.712206
C	-0.436935	-1.118431	-2.177951
N	-0.459367	-2.139131	-2.758477
Cl	3.463289	0.0	0.0
