12

C	-0.581547	0.063606	-1.38886
C	0.0	0.0	0.0
F	-0.137576	-1.007905	-2.144304
H	1.089814	0.0	0.0
H	-0.344163	0.859158	0.583531
H	-0.366679	-0.918507	0.462855
N	-2.02318	-0.038484	-1.348027
H	-2.418511	0.196139	-2.251751
H	-2.388688	0.606257	-0.658479
C	-0.157824	1.289378	-2.123399
N	0.040491	2.28763	-2.709212
Cl	3.53889	0.0	0.0
