13
Coordinates from ORCA-job run
  C   -0.31853789364562     -0.11102151889059      0.02999745775863
  C   1.02022997393107     -0.00882531427567      0.15523558439190
  H   1.57584538728529     -0.74831078589829      0.72937334461082
  N   -1.06595233055075      0.88509668831234     -0.60337069611546
  H   -0.45861847044449      1.46477528706578     -1.17131448649196
  H   -1.84968584294979      0.52249773510026     -1.12753832008604
  C   -1.10865334510630     -1.21883004900925      0.65339724093211
  H   -1.68029273983323     -1.76316371287290     -0.10648866344744
  H   -1.82473305335456     -0.81866733144699      1.37653718918581
  H   -0.45642895576209     -1.93024991118349      1.16144515667659
  N   1.69378491433036      1.10174100178057     -0.45476663042554
  H   2.56668025071396      0.80602983919382     -0.87137655234713
  H   1.90736210538614      1.81992807212441      0.22786937535770
