13
Coordinates from ORCA-job run
  C   -0.29721211130887     -0.16126257509451     -0.02227273076627
  C   0.94628508351008      0.18596740612778      0.36703932856114
  H   1.44597796973061     -0.36431555482279      1.16241507653077
  N   -0.91365220771301      0.45465289432577     -1.11460973206049
  H   -1.91005512149291      0.57099975199569     -0.99588987201391
  H   -0.44708358208098      1.32912201399373     -1.32699308791148
  C   -1.05299882757550     -1.29597062019551      0.59512103146562
  H   -2.01335575005610     -0.95138430268149      0.99440383360483
  H   -1.26702488862519     -2.06496524304346     -0.15232975605735
  H   -0.48829780050606     -1.74719482926998      1.41190996086277
  N   1.60723494176832      1.27107182746113     -0.30005639849775
  H   2.11315264401353      1.84367864648168      0.36265397586707
  H   2.27502965033608      0.92860058472195     -0.98139162958496
