13
Coordinates from ORCA-job run
  C   -0.31477008439954     -0.12494529852150      0.00777515202478
  C   0.97387493168926      0.12301476272952      0.31806149061858
  H   1.43678636533375     -0.36869088512175      1.17194784975080
  N   -0.96365004000130      0.57754470471003     -1.01096632707701
  H   -0.28055479004070      1.01656052416182     -1.61764424364406
  H   -1.62514598207031      0.01281327689856     -1.52479415551093
  C   -1.17156776985874     -1.06608270769013      0.79529467280812
  H   -1.57789205683260     -1.85342451430164      0.15076923464425
  H   -2.01949058677273     -0.53401543572566      1.23548500542469
  H   -0.60211117647848     -1.54210031176290      1.59452048579137
  N   1.71305638669663      1.06251579540669     -0.47584970079348
  H   2.65692621034731      0.73426679488995     -0.63201481458776
  H   1.77453859238744      1.96254329432701     -0.01358464944936
