13
Coordinates from ORCA-job run
  C   -0.29874653121764     -0.16032478640410     -0.00991725914049
  C   0.94891876254212      0.20489457467609      0.34862211811122
  H   1.45727142502139     -0.30676309823880      1.16410287473714
  N   -1.01568271569299      0.55459294784337     -0.97262984942119
  H   -1.60049510361645     -0.03181183771915     -1.55103994296917
  H   -0.38285692563269      1.12658026344773     -1.52014736736967
  C   -1.04752263846748     -1.26252783152594      0.67178341881051
  H   -1.35620517445078     -2.02682208361756     -0.05004747377789
  H   -0.43286175035889     -1.74396717044319      1.43336160891872
  H   -1.95416342354527     -0.87401419141394      1.14381334897580
  N   1.58135131653959      1.29210521825697     -0.34252723290924
  H   2.55502231592396      1.08422315692778     -0.52121005986712
  H   1.54597044295512      2.14383483821074      0.20583581590135
