13
Coordinates from ORCA-job run
  C   -0.40976011746453      0.11997015571276     -0.19134195622037
  C   0.79332447613506      0.72086978400706     -0.09294614618796
  H   0.91541124730148      1.72982586706301     -0.49927151729953
  N   -1.47965899354153      0.69767378934214     -0.89539419474407
  H   -1.34808894168611      1.68297265240413     -1.07954272930078
  H   -2.37150501621160      0.53685139972423     -0.44885049800587
  C   -0.68707086330894     -1.25535264346620      0.33018169048242
  H   -1.52586083583250     -1.23711946235604      1.03540068961793
  H   -0.96706555426762     -1.91910703131679     -0.49263343148550
  H   0.19458065675332     -1.64466062425919      0.83377952826054
  N   1.91780634889459      0.05463685626465      0.49494497877601
  H   2.33685858662055      0.63721045962155      1.20885807026063
  H   2.63002900660784     -0.12377120274133     -0.20318448415345
