13
Coordinates from ORCA-job run
  C   -0.29427197949641     -0.16721349862773     -0.00944502756848
  C   0.93301687808462      0.24602397358710      0.36632022209434
  H   1.41282456470962     -0.18685732409098      1.24233154184707
  N   -0.88453520734311      0.29231569397664     -1.18964632609177
  H   -1.88549594244203      0.40636684578286     -1.11500585372690
  H   -0.42326997097654      1.14007041255879     -1.49948757701814
  C   -1.05406994747884     -1.22573060843864      0.72705212563462
  H   -2.03033050962931     -0.84859067858603      1.05123216257782
  H   -1.23533942865584     -2.08737410153355      0.07857676691664
  H   -0.50874348244866     -1.55971816445234      1.61059940958709
  N   1.59953463338942      1.24787827351540     -0.41545657933303
  H   2.07874946901722      1.90802897904847      0.18246727652758
  H   2.29093092326985      0.83280019726000     -1.02953814144683
