13
Coordinates from ORCA-job run
  C   -0.42333947877051      0.14833062253998     -0.13223516590260
  C   0.80069046505598      0.71268656117540     -0.09400683381280
  H   0.92338829630354      1.73443220834493     -0.46681279654270
  N   -1.56570290095133      0.86418175894093     -0.52810139622763
  H   -1.34764777416079      1.72110123207055     -1.01818435246148
  H   -2.20975902305773      0.30224662497834     -1.06671138558480
  C   -0.70386599240053     -1.24103039870777      0.34891436510803
  H   -1.40991438801417     -1.21352442488283      1.18359330597746
  H   -1.16155395140767     -1.83831594118826     -0.44786785841172
  H   0.22150963243939     -1.71641044724011      0.66552148544068
  N   1.92835027156495      0.01973483749154      0.45583359648685
  H   2.24867005180987      0.47694227747465      1.30137174962796
  H   2.69917479158901      0.02962508900264     -0.20031471369725
