13
Coordinates from ORCA-job run
  C   -0.34491339267286      0.22431043596321     -0.15982023242345
  C   0.84866442565333      0.81778968086497      0.02894683450823
  H   0.93581627120881      1.85668664078727     -0.27430213941576
  N   -1.37570466777127      1.02929045790660     -0.76206389904086
  H   -2.15852979508122      1.12945079050341     -0.12429366134701
  H   -1.73403445256695      0.57187198301151     -1.59356327343061
  C   -0.67380242051744     -1.19012846367658      0.23041125534641
  H   0.15925418079660     -1.71562452134530      0.70402114892391
  H   -0.98572215880246     -1.77578755515864     -0.64231714203499
  H   -1.50885211888161     -1.20759476129555      0.94004857489719
  N   1.97609589162710      0.28966126559176      0.66997850874326
  H   2.02398114955447     -0.71770994077782      0.65385436314582
  H   2.83674708745349      0.68778398762516      0.32809966212785
