13
Coordinates from ORCA-job run
  C   -0.24634771635018     -0.12394147221068      0.02538261125936
  C   1.00987452428743      0.15751648944150      0.41762742225562
  H   1.44217363667741     -0.29840776404256      1.30175545054410
  N   -0.70614720090848      0.45597122804218     -1.19300645496126
  H   -1.66423487824723      0.20658827537885     -1.39208541722519
  H   -0.12173122003155      0.17894380142081     -1.97415854186763
  C   -1.19510682315070     -0.97133883911142      0.81265418865418
  H   -1.52676755429337     -1.84111555968378      0.23379487649274
  H   -2.09119291841448     -0.40646640711048      1.09510775533542
  H   -0.72769714910790     -1.33080436673766      1.73154295938390
  N   1.87294074342715      0.94488541222275     -0.37265499985952
  H   1.34304117951353      1.66136195709695     -0.85712822212016
  H   2.61019537659837      1.36680724529353      0.17216837210843
