13
Coordinates from ORCA-job run
  C   -0.34553665434309      0.24420412920270     -0.12332908345444
  C   0.88783760890074      0.77625450598126     -0.03222280574819
  H   0.98258433908166      1.83911126735488     -0.23271692737283
  N   -1.41195929280499      1.14826551266086     -0.46825870036252
  H   -2.14739267708695      1.10169899682571      0.22885679931566
  H   -1.82996715353108      0.87564465021265     -1.35174412907539
  C   -0.67448660139091     -1.20877497041833      0.08032713326995
  H   -1.11718468147144     -1.63368568664636     -0.82784451621735
  H   -1.41135296287441     -1.33468993201802      0.88221039045796
  H   0.19542552552781     -1.82174392987694      0.32947726332406
  N   2.09657455666256      0.10482944331772      0.18940544533017
  H   2.78057841416979      0.68274617834383      0.65248093344166
  H   1.99487957916032     -0.77486016493995      0.67235819709126
