13
Coordinates from ORCA-job run
  C   -0.41920167829402      0.19750325633341     -0.06500517189544
  C   0.84794977229469      0.65831601253768     -0.07027400731101
  H   1.02635977298289      1.71296993212610     -0.30216339757255
  N   -1.52563878150354      1.04694050961802     -0.23304938362936
  H   -1.27910264630443      1.95135562476279     -0.61155647891843
  H   -2.26263128054761      0.62312399574057     -0.77881907646108
  C   -0.77539181045383     -1.22502890670070      0.23499609822483
  H   0.12966647801953     -1.80939078317940      0.38308093903990
  H   -1.39902030414630     -1.27464312664935      1.13196256713828
  H   -1.35278332357750     -1.65835018367613     -0.58965074173897
  N   1.95567661529772     -0.19173852373151      0.25329578459498
  H   2.39117305704227      0.10644900688448      1.11816538840012
  H   2.66094412919015     -0.13850681406595     -0.47098251987127
