13
Coordinates from ORCA-job run
  C   -0.30363098610594     -0.15052827567882      0.00947778247802
  C   0.96865652180547      0.18826380557787      0.30101253912421
  H   1.49405961182370     -0.30418739039219      1.11749642066046
  N   -1.03601895482779      0.54407206632314     -0.95680683365500
  H   -0.40806688277846      1.06651490258724     -1.55695686174318
  H   -1.66311352073937     -0.04864045148243     -1.48215485796396
  C   -1.05844340044533     -1.19597797351776      0.76930003115060
  H   -1.42151455917681     -1.97968259718489      0.09519039010062
  H   -1.93149287859495     -0.75666471884174      1.25983922108831
  H   -0.42846836331879     -1.66459031398265      1.52635291933512
  N   1.60633807914528      1.22218329942756     -0.46289864224518
  H   2.56768859849808      0.97865133370294     -0.66170862733980
  H   1.61100673471490      2.10058631346171      0.04285651900978
