13
Coordinates from ORCA-job run
  C   -0.20297527419788     -0.18007557017684     -0.00044527236824
  C   0.98495933594424      0.23070692458125      0.48693854376190
  H   1.40222218494172     -0.25222093413416      1.36521237034702
  N   -0.76333776999541      0.39448298862118     -1.16812979491356
  H   -0.63721111890198      1.39866153037433     -1.18983398508999
  H   -1.74642223237322      0.18040823525937     -1.25711209154842
  C   -0.94068886017673     -1.35619371920994      0.55900310362317
  H   -0.42329883515758     -1.76503142670486      1.42784137067606
  H   -1.02717812505367     -2.15198496911945     -0.18845427740587
  H   -1.95666258449371     -1.07770467500863      0.86140752208911
  N   1.82328804561942      1.17901135868167     -0.14760173522239
  H   1.93432277157546      2.04721582826388      0.35709091127635
  H   1.55298246226935      1.35172442857220     -1.10491666522515
