13
Coordinates from ORCA-job run
  C   -0.24966837840102     -0.15980432264449      0.02676712162880
  C   0.97292343962829      0.21149638355431      0.46170664950824
  H   1.42686677166973     -0.34108675576119      1.27880315755180
  N   -1.01521927562174      0.55987143133670     -0.91426438666212
  H   -0.53566739580998      1.35667916005972     -1.30567975259268
  H   -1.39315989161594     -0.02211054420571     -1.64932292958514
  C   -0.95509128943098     -1.35866785396186      0.58294929300267
  H   -1.13689757187745     -2.10768070502796     -0.19687022864177
  H   -1.92742180325694     -1.07006831566654      0.99127413105866
  H   -0.36391430002235     -1.83477403543080      1.36650687554669
  N   1.79649232627573      1.22517165309298     -0.09705552301089
  H   1.86976887673743      2.05021037228863      0.48332215002020
  H   1.50998849172522      1.49176353236620     -1.02813655782446
