13
Coordinates from ORCA-job run
  C   -0.34797537361343      0.26552045748653     -0.07561779208855
  C   0.88656587402428      0.76426687562128      0.12224467952738
  H   1.00810163564766      1.83882246052445      0.02595453235253
  N   -1.37446691073641      1.20917367231603     -0.43484700366223
  H   -2.11718822039550      1.19714927464831      0.25637670032780
  H   -1.79559820762921      0.94658292827804     -1.31957097218608
  C   -0.71490245953610     -1.18646075287489      0.06022453650920
  H   -1.56399374059721     -1.29993390958791      0.74332805315360
  H   0.09719343530990     -1.80041643829764      0.45793982213018
  H   -1.02176727636844     -1.61387227171331     -0.90195805284445
  N   2.02855551284301      0.06913930777608      0.54097964544732
  H   2.88209457894407      0.51391506891067      0.24198190064396
  H   2.03238115210736     -0.90588667308763      0.28296395068935
