13
Coordinates from ORCA-job run
  C   -0.22605272844929     -0.14452422545643      0.03966439934497
  C   1.12004213007239     -0.06905741208198      0.04414484921282
  H   1.70251404963408     -0.88006397214833      0.47041027453995
  N   -1.02371453786821      0.87072757470962     -0.54405475769096
  H   -1.98564668729404      0.81219226137937     -0.24146298996572
  H   -0.66496220383964      1.79464109218819     -0.33780905370928
  C   -0.96730578523981     -1.35791988409394      0.50749743226726
  H   -1.52431855645185     -1.81446081543150     -0.31757658060102
  H   -1.69059577519283     -1.10150886997819      1.28999659546376
  H   -0.28092419947475     -2.10628815370114      0.90571782305907
  N   1.86427512301317      0.94987278828647     -0.59788056413353
  H   2.37287823603592      1.55875156439776      0.02773430507695
  H   1.30481093505485      1.48563805193010     -1.24538173286426
