16

C	-0.234142	-0.023325	-1.518194
C	0.0	0.0	0.0
Cl	-0.108936	1.715187	-2.083627
H	1.093376	0.0	0.0
H	-0.459865	0.863088	0.491243
N	0.83634	-0.757094	-2.167297
H	0.656435	-1.733739	-1.948608
H	1.695036	-0.515471	-1.640186
C	-1.587324	-0.532906	-1.967931
H	-1.635935	-0.543085	-3.057528
H	-1.71849	-1.545481	-1.579629
H	-2.387058	0.099964	-1.579376
N	-0.399407	-1.302567	0.567432
H	0.374589	-1.619069	1.138932
H	-1.209482	-1.205707	1.166175
F	2.733593	0.0	0.0
