16

C	-0.220132	-0.055777	-1.521362
C	0.0	0.0	0.0
Cl	-0.119185	1.673558	-2.11724
H	1.093421	0.0	0.0
H	-0.461592	0.875801	0.46698
N	0.867005	-0.782848	-2.14853
H	1.717172	-0.52821	-1.614477
H	0.69582	-1.760753	-1.927413
C	-1.561369	-0.593515	-1.974595
H	-1.60116	-0.619696	-3.065437
H	-1.679165	-1.602566	-1.573828
H	-2.375704	0.03209	-1.601037
N	-0.403561	-1.287558	0.592824
H	-1.240082	-1.184727	1.153497
H	0.349082	-1.579603	1.204287
F	2.73721	0.0	0.0
