16

C	-0.112339	-0.049435	-1.546002
C	0.0	0.0	0.0
Cl	-0.125509	1.82597	-2.101552
H	1.095615	0.0	0.0
H	-0.463468	0.893103	0.415782
N	1.030748	-0.708938	-2.005348
H	1.879586	-0.449661	-1.439343
H	1.170009	-0.654214	-3.005763
C	-1.391246	-0.573411	-2.167351
H	-1.507199	-1.626711	-1.902205
H	-1.347165	-0.496122	-3.256316
H	-2.259481	-0.011269	-1.819559
N	-0.466196	-1.206173	0.679982
H	-1.385667	-1.487126	0.357641
H	0.18124	-1.949419	0.450862
F	2.776872	0.0	0.0
