16

C	-0.31414	0.046947	-1.503511
C	0.0	0.0	0.0
Cl	0.006348	-1.599762	-2.203626
H	1.093659	0.0	0.0
H	-0.354049	0.964281	0.398302
N	-1.69309	0.357805	-1.893051
H	-2.308762	-0.311359	-1.436297
H	-1.904424	1.267565	-1.488789
C	0.668934	1.014293	-2.135597
H	0.611201	0.977708	-3.22496
H	1.664007	0.759954	-1.749878
H	0.427785	2.030511	-1.801046
N	-0.551387	-1.090022	0.790256
H	0.070934	-1.881174	0.679666
H	-1.458993	-1.373756	0.437669
F	2.746608	0.0	0.0
