13
Coordinates from ORCA-job run
  C   0.55410155097555     -0.02058974099714      0.04731270157685
  C   -0.81132783443415     -0.01979071209356      0.18289304250811
  N   1.38561565788267     -0.00469644333687      1.17237217714315
  H   2.03009025668982      0.77568619414028      1.13672810406478
  H   1.93387120058882     -0.85424744222737      1.23950010214249
  N   1.16376327578401      0.00804314874415     -1.27421724402438
  O   0.43181857156875     -0.02633995760453     -2.27363692256922
  O   2.39287714640115      0.07260371356970     -1.31788540533300
  C   -1.31515846169007      0.00428841718368      1.53189114051298
  N   -1.82367233552508      0.03811728025167      2.59186159100039
  N   -1.76802091050624     -0.12407915439698     -0.77799294819705
  H   -2.70625807094118      0.13864528928526     -0.52700425119706
  H   -1.46770004679404      0.01135940748171     -1.73082208762804
