13
Coordinates from ORCA-job run
  C   0.55493725077418     -0.00345257605959      0.03903279266629
  C   -0.80933016064647      0.00328173700261      0.18914718830289
  N   1.39531648469749     -0.07620070103511      1.15574199613838
  H   1.97822529252337      0.74947661316639      1.23152214879641
  H   2.01013086868312     -0.87923999979487      1.09647568147239
  N   1.15100839289128      0.06716814242118     -1.28447076252353
  O   0.40825739051099      0.12707348520923     -2.27481229163444
  O   2.38148071423344      0.05349022775708     -1.34160079413044
  C   -1.29547559625313     -0.06208757380993      1.54351270155545
  N   -1.78462117130241     -0.10256546234210      2.61248552602199
  N   -1.77630542363655      0.15164621494131     -0.75400608389103
  H   -1.49668360179306      0.05899171091036     -1.71774437523594
  H   -2.71794044068226     -0.08858181836657     -0.49528372753843
