13
Coordinates from ORCA-job run
  C   0.56125993185589     -0.01053279816799      0.06332901780239
  C   -0.81516429325077     -0.00032633323280      0.07319733468574
  N   1.37308971068439     -0.15424072840276      1.17815705659934
  H   2.28787886738061     -0.50608866677193      0.93359369280454
  H   0.94356491258770     -0.66264064433401      1.93772951784190
  N   1.29593039586943      0.26802313377483     -1.14994929656902
  O   2.52283866392774      0.14052502291593     -1.10316207937344
  O   0.66830869604151      0.60678956548827     -2.16167764521118
  C   -1.40225243373043     -0.31744869948782      1.33780828195251
  N   -1.83837820501620     -0.58143737022457      2.40015249199861
  N   -1.69185806067710      0.14725691743759     -0.98669635304810
  H   -1.29517564914017      0.59644270833993     -1.79743236970680
  H   -2.60904253653260      0.47267789266532     -0.72404964977648
