13
Coordinates from ORCA-job run
  C   0.57468823498924      0.01316980819723     -0.00764560426856
  C   -0.77816603586643     -0.20341131027611      0.12571026111769
  N   1.54047280157348     -0.27277801718871      0.94233919135238
  H   1.17269903212184     -0.41518659303422      1.87162889312717
  H   2.31667006504576      0.37307137192523      0.91320706807922
  N   1.12390844462656      0.52427314572892     -1.24265725169442
  O   2.29908256548974      0.89943048708562     -1.21500148937931
  O   0.39538429758975      0.58320872046963     -2.24146335301017
  C   -1.20163276079943     -0.61356459469109      1.42905302621533
  N   -1.52165237508011     -0.92262009645521      2.52017266304909
  N   -1.75750890388525     -0.21347655603519     -0.85226226342771
  H   -1.48673478618085      0.21812826982285     -1.72309155995936
  H   -2.67821057962432      0.03075536445107     -0.52098958120136
