13
Coordinates from ORCA-job run
  C   0.54974365361375      0.02801253438406      0.08107302429475
  C   -0.82157670307333      0.01516108892501      0.12971756794960
  N   1.30772553379544      0.07078516961047      1.25629201910334
  H   1.95544896185054     -0.70671725467350      1.30032121517814
  H   1.84797146461521      0.92603751260599      1.31709257758894
  N   1.24279035681723     -0.04271663314495     -1.19686268368219
  O   2.47350739899939     -0.07770136355865     -1.16054759514462
  O   0.57570057632470     -0.07074423514798     -2.24098317960491
  C   -1.40980002050396      0.04263960681355      1.44414899729554
  N   -1.98379360121786      0.05304449143230      2.47059200555156
  N   -1.71634548191423      0.06500358905249     -0.89286759857867
  H   -1.35439563131879     -0.10446521737841     -1.81825244182263
  H   -2.66597650798811     -0.19833928892038     -0.69072390812886
