13
Coordinates from ORCA-job run
  C   0.54487393907581      0.03457324638498     -0.07588154972933
  C   -0.80787587601514      0.05802287902790      0.09993821582217
  N   1.21169201178203     -1.18147146649364     -0.16515903078866
  H   1.16585532198318     -1.70928532576412      0.69967879330493
  H   2.17175934738553     -1.05002048147702     -0.45545731141379
  N   1.33440611826511      1.24609859835720     -0.25230421198285
  O   0.75983645638539      2.33118310210484     -0.24287472235386
  O   2.54646521570800      1.08172280869366     -0.42292991899323
  C   -1.59251621628329      1.23122002203812      0.30957847031770
  N   -2.35355692369190      2.10249522198972      0.53036560132232
  N   -1.47713724066066     -1.15603531197454      0.22350584973426
  H   -2.47237300782523     -1.09418377721297      0.06685365352995
  H   -1.03142914610886     -1.89231951567411     -0.31331383876961
