13
Coordinates from ORCA-job run
  C   0.55352759059927     -0.03554945558281      0.04844577376081
  C   -0.81379202968618     -0.05499621149191      0.16312055290607
  N   1.36892103151363     -0.28474057585906      1.15803750631747
  H   1.91302869664019     -1.13062903583219      1.03446949027784
  H   2.01725648809579      0.47844096227336      1.31035395786523
  N   1.18205354103948      0.28947275863513     -1.22330589632794
  O   0.46449582934978      0.49090525640275     -2.21365660810593
  O   2.41203881664640      0.35359253183953     -1.23518761177725
  C   -1.33708121291930     -0.33176820809539      1.47619135214687
  N   -1.86307203081404     -0.53513655807770      2.50823871318801
  N   -1.75709543835684      0.07097396365027     -0.80777631586918
  H   -1.44208837415582      0.41163751409241     -1.70292915541920
  H   -2.69719290795236      0.27879705804561     -0.51600175896280
