13
Coordinates from ORCA-job run
  C   0.54015649355475      0.01781088921954     -0.10528521284311
  C   -0.79595440694313      0.08071293647820      0.16333707402382
  N   1.14833297669065     -1.21582397596780     -0.31060688118852
  H   1.16691222721045     -1.77991752922067      0.53207635258899
  H   2.08149956196125     -1.10261037322314     -0.68452126802212
  N   1.36412334847125      1.20865656434956     -0.26662518598841
  O   0.84034787291671      2.31141773898855     -0.13563061115968
  O   2.54960576815475      1.01108289337237     -0.55084676130996
  C   -1.51882577864676      1.26943299970547      0.48229618303993
  N   -2.24587377441950      2.15362516071868      0.75903347744711
  N   -1.50624125082689     -1.11028574005983      0.26779139875902
  H   -1.11864483489556     -1.83784981906060     -0.32311807126055
  H   -2.50543820322796     -1.00425174530032      0.17209950591348
