13
Coordinates from ORCA-job run
  C   0.60736275911216      0.04191436433106      0.04609838238194
  C   -0.75573463270933      0.02725946458758     -0.06456700763623
  N   1.36084336758806     -1.04949538545130      0.25989356037307
  H   0.88330024004257     -1.93120280141126      0.33674741481978
  H   2.35898995995128     -0.96236362366840      0.31985653555275
  N   1.38892514744339      1.28766725370868     -0.06105030020197
  O   0.78224667289573      2.33766193125141     -0.24372347640256
  O   2.61111957782840      1.17320692417656      0.04712326411483
  C   -1.58868258353250      1.15627197309422     -0.28724591932419
  N   -2.41433600493365      1.97922253294021     -0.46927472736521
  N   -1.35105353379479     -1.27586551723114      0.06265637128850
  H   -2.01178775176371     -1.28036026999223      0.83251329033566
  H   -1.87019321812763     -1.50291684633540     -0.77902738793637
