13
Coordinates from ORCA-job run
  C   0.54875735658248      0.04037136957560      0.01648222394270
  C   -0.81481058700682      0.04707475120348     -0.03011640629722
  N   1.23239394911456     -1.16514326075391      0.13144551963262
  H   1.07772062627074     -1.61042437783836      1.02948616420555
  H   2.22155804072780     -1.03909152986238     -0.03889346272530
  N   1.34395568414935      1.25249628291353     -0.13079916742399
  O   2.56935503082549      1.09961652039997     -0.11860317419156
  O   0.76430646775911      2.32511649850448     -0.27566978098026
  C   -1.63385267939210      1.21570499207660     -0.05487810708665
  N   -2.43613208059156      2.07752192468007     -0.07920453341111
  N   -1.48625776001699     -1.16519289486185      0.08562826862170
  H   -2.43997853550760     -1.14164066126871     -0.24407636987327
  H   -0.94701551291448     -1.93640961476851     -0.29280117441319
