13
Coordinates from ORCA-job run
  C   0.55054841790616      0.05970731769585      0.15851965824170
  C   -0.81154410919028      0.03062129485658     -0.03393948281290
  N   1.20351488703594     -0.08056510772995      1.37105982569244
  H   0.61222571259604     -0.40364852371820      2.12331330848058
  H   2.06878398595411     -0.59582815827501      1.29512744541225
  N   1.45114567457606      0.31537699292992     -0.94469975353919
  O   0.98295352669043      0.71574361301361     -2.01829342013758
  O   2.64596273831497      0.07989609639615     -0.74909880086935
  C   -1.57662418972269     -0.37388569047761      1.10545263100838
  N   -2.17530957017469     -0.74075632094758      2.05186077275034
  N   -1.54411170117101      0.45458986862334     -1.12965495661312
  H   -0.99634484374846      0.58077192614038     -1.96753642766719
  H   -2.41220052906658     -0.04202330850747     -1.26211079994638
