13
Coordinates from ORCA-job run
  C   0.55637293646191      0.11806976390998      0.09609241845181
  C   -0.81137955205899     -0.01596430035110      0.02858623295015
  N   1.30312308622985      0.26766817329431      1.25165920247509
  H   2.19018890805035     -0.21346395919328      1.21349558943443
  H   0.78865836645368      0.09344516077670      2.10279739003545
  N   1.35683032445775      0.17346285797738     -1.10762501334472
  O   2.57531681542944      0.04222551930998     -0.96814675031273
  O   0.78811096458235      0.31394744771679     -2.19808128499227
  C   -1.46538867263152     -0.20742553167685      1.28665614930147
  N   -1.97389434627416     -0.39472685956015      2.33309462024147
  N   -1.64634099948984      0.13229708174961     -1.06533836744171
  H   -1.17068218033213      0.10671208391683     -1.95467583988532
  H   -2.49091565087868     -0.41724743787019     -1.01851434691312
