13
Coordinates from ORCA-job run
  C   0.58986404952323      0.02522428863479      0.08380007395961
  C   -0.75645200353270     -0.12815700198817      0.12199512547934
  N   1.52904874611850     -0.18534886220872      1.05356666830109
  H   1.15465353526824     -0.36489973511071      1.97699137127376
  H   2.28333604881526      0.48644399184063      1.05936331725903
  N   1.18172008368657      0.35995411590515     -1.21582399115337
  O   1.15790563251377     -0.48847779946463     -2.09549252957682
  O   1.67108206450484      1.48632040607714     -1.28886724828258
  C   -1.36607813009645     -0.41203216777106      1.38471135230334
  N   -1.86687982425594     -0.62974248362231      2.42862841033688
  N   -1.49321349300108      0.04118696511731     -1.07968559872859
  H   -1.79206809044761     -0.83557994081548     -1.48141556870527
  H   -2.29391861909663      0.64510822340606     -0.94777138246641
