13
Coordinates from ORCA-job run
  C   0.55023128530251      0.03720186897073     -0.00879798255377
  C   -0.81408127506892      0.05101905801293     -0.00445390102099
  N   1.23192480580636     -1.16730744264075      0.11137101105957
  H   1.09594023328088     -1.60114877063821      1.01827502003005
  H   2.21699600458692     -1.05165664294180     -0.08678750226919
  N   1.34552792692653      1.24244499158236     -0.20470548278065
  O   0.76562317193054      2.31273413773089     -0.36402122208133
  O   2.57040552004480      1.08635373031417     -0.21595967613050
  C   -1.62840749757864      1.22342547849252     -0.01924952566011
  N   -2.42658967353290      2.08951402869861     -0.03092970060665
  N   -1.48695877418004     -1.15526418995404      0.16260331568118
  H   -2.45151792060099     -1.13208000520508     -0.13318162840129
  H   -0.96809380691705     -1.93623624242231     -0.22416272526630
