13
Coordinates from ORCA-job run
  C   0.57033723236168      0.05957849861375      0.09597732691611
  C   -0.77966600218030      0.03960624827493     -0.09961021896131
  N   1.27518939394477     -1.06941555611520      0.44694878832767
  H   0.90878328351088     -1.89871104824726     -0.01065276271234
  H   2.27184825010636     -0.93190949097858      0.31499689877126
  N   1.35717244381238      1.28706505008445      0.01475368686612
  O   2.58339633817395      1.14802386030732     -0.00914999017177
  O   0.75821191389050      2.35787453582655     -0.04722336901811
  C   -1.56493447850856      1.12533047556439     -0.56622914640152
  N   -2.34439903092682      1.91215488703637     -0.97224606763727
  N   -1.39675487896801     -1.22910129881777      0.04111314977841
  H   -2.38042552210261     -1.19747217413928     -0.18407834212455
  H   -1.25975894311423     -1.60202398740967      0.97440004636729
