13
Coordinates from ORCA-job run
  C   0.53226135788096      0.12477905953282     -0.15526737848658
  C   -0.78872813273245     -0.19561668245476      0.06095143714038
  N   1.15036486826041      0.19251161902465     -1.39496717475600
  H   0.52228498502420      0.40687799784534     -2.15618994198424
  H   1.96536763588117      0.78931071555256     -1.37828132955473
  N   1.44481078637890      0.29394074066681      0.95312284104536
  O   2.59253949093983      0.65794121507768      0.68178065821481
  O   1.03068040249642      0.08713721336989      2.10087361468626
  C   -1.58029249430285     -0.31406222737030     -1.12360782511908
  N   -2.20274689143233     -0.41161812978480     -2.11950304002027
  N   -1.47516767235725     -0.29958781167074      1.25817248440786
  H   -2.30217886584412     -0.87395368433504      1.21018893315453
  H   -0.89019547019288     -0.45766002545411      2.06372672127169
