13
Coordinates from ORCA-job run
  C   0.52919217429276      0.03269136721982     -0.13672406039757
  C   -0.78884999569105      0.05215955220316      0.21371629787975
  N   1.17164334575668     -1.18478703849950     -0.34950883234254
  H   2.05520619450623     -1.04297106923820     -0.82353520854268
  H   1.31911462434632     -1.69689661934803      0.51367667322090
  N   1.29349262589456      1.25092195655489     -0.37424253758295
  O   2.45942044137760      1.09235227042097     -0.74925474747352
  O   0.74255150534528      2.33609609269743     -0.21278149042393
  C   -1.53821442800570      1.22314524454909      0.54155585297962
  N   -2.28725017062266      2.08332445686517      0.83444934456020
  N   -1.44965624549133     -1.15647733493671      0.39192666387543
  H   -2.45501064245013     -1.09213534456162      0.32746818144245
  H   -1.05263942925857     -1.89642353392647     -0.17674613719517
