13
Coordinates from ORCA-job run
  C   0.55049819546371      0.03891061992989     -0.00193343550497
  C   -0.81390649538903      0.04919470863334     -0.00640679566528
  N   1.23656919791382     -1.16199856562622      0.13633034436951
  H   2.22437672374812     -1.03884030373871     -0.04321996650293
  H   1.08257957498457     -1.59114156387207      1.04235800085646
  N   1.34427944178936      1.24187076406561     -0.21832949838319
  O   2.56893882994673      1.08516689056805     -0.22887792876035
  O   0.76305080050320      2.30941413992903     -0.39226437246026
  C   -1.63056010736723      1.21852928719078     -0.05244433714869
  N   -2.42899211875267      2.08374873010365     -0.08712907052531
  N   -1.48231750637572     -1.15772218325578      0.17559897314515
  H   -0.96468463899417     -1.94048338914859     -0.20954842491895
  H   -2.44883189747070     -1.13864913477898     -0.11513348850119
