13
Coordinates from ORCA-job run
  C   0.55328547324881      0.10963045026976     -0.12196550676881
  C   -0.81138711722977     -0.01890498641153     -0.00172738228153
  N   1.26315703919474      0.17082759508938     -1.30880986060383
  H   0.72235731646050     -0.06846950750683     -2.12721360293373
  H   2.15107210676215     -0.30807508893952     -1.26193304024560
  N   1.39054027916260      0.25927555918710      1.04829519709084
  O   0.85537943674416      0.48225519174545      2.14194363059835
  O   2.60438587528405      0.11765284621955      0.88142856572517
  C   -1.50406258604897     -0.30452908158344     -1.22070054951103
  N   -2.04507310402652     -0.56798181297241     -2.23392432608983
  N   -1.61240273004804      0.21245504979586      1.10299407598906
  H   -1.11008755260873      0.25514758032450      1.97686060084185
  H   -2.45716443689498     -0.33828379521787      1.12375219818909
