13
Coordinates from ORCA-job run
  C   0.52926878862824      0.01405534079255      0.01856161744425
  C   -0.82765629448790      0.05587961572821     -0.10149848902203
  N   1.18614423230118     -1.21961128864323      0.13040686846681
  H   2.10385935639077     -1.15980909467534     -0.27965966499760
  H   1.29841215532146     -1.49079320122035      1.10985046378514
  N   1.34629040615912      1.21817509376305     -0.08563646327106
  O   0.79503706439227      2.31632850402816     -0.06418797270528
  O   2.56239573031452      1.03372797187670     -0.19318293681759
  C   -1.60493450866567      1.24926845015211     -0.17081938521352
  N   -2.37417547823539      2.13713371824432     -0.22033543236878
  N   -1.55241053708220     -1.10435277387812     -0.22642118390169
  H   -2.46576581674656     -1.10924969749259      0.20077282008241
  H   -0.99546509828984     -1.93875263867546     -0.11685024148106
