13
Coordinates from ORCA-job run
  C   0.54351521159525      0.04486624308748      0.07502774783831
  C   -0.80729100381217      0.04017517221849     -0.11621217792705
  N   1.22715251555280     -1.15764549905118      0.21889987313338
  H   2.17355525596569     -1.00045704014708      0.54007233751365
  H   1.22620861331267     -1.70403784336566     -0.63570081662123
  N   1.31114983995953      1.27495286900375      0.21668078380578
  O   0.72299303386678      2.35007021091831      0.14044369187961
  O   2.51998326324940      1.13650009143356      0.42834227527830
  C   -1.60904869552772      1.19361640535992     -0.36870909466207
  N   -2.39633076981163      2.04247293388019     -0.58451352455600
  N   -1.45783147005053     -1.18559393568135     -0.20698889011650
  H   -0.99896080513293     -1.90185174411991      0.34546013477855
  H   -2.45409498916717     -1.13606786353652     -0.05280234034475
