13
Coordinates from ORCA-job run
  C   0.58620004199522      0.09118915091203      0.07539077452821
  C   -0.75294146033451     -0.10641305890131      0.12910488345428
  N   1.49641324890188      0.18465772338468      1.09255366736757
  H   2.39968201825761     -0.21227559099129      0.87470373105684
  H   1.14398344727759     -0.10950155537655      1.99321090909432
  N   1.17768908834740      0.34487523687702     -1.24357577567530
  O   1.02629200743967      1.46111409983394     -1.72335349127344
  O   1.80318568290318     -0.59602280451163     -1.73121331414368
  C   -1.33648995123447     -0.40392437527089      1.39978382863383
  N   -1.81208508667893     -0.68464327769541      2.44142092721600
  N   -1.52009314792524     -0.01407434146704     -1.06428048000595
  H   -2.15322327101410     -0.79910648169892     -1.14318587015666
  H   -2.05961261793531      0.84212527490538     -1.09855979009603
