13
Coordinates from ORCA-job run
  C   0.58472512797676      0.06419154808557     -0.14882429785577
  C   -0.74199717478647     -0.16272192950660     -0.00754471556506
  N   1.37597107919087     -0.09630094218153     -1.25503551250701
  H   0.86284085353596     -0.20078084929428     -2.12002864298326
  H   2.12809104662459      0.57519941183028     -1.34036310204970
  N   1.34857441963419      0.38341431068099      1.05827098480045
  O   1.67153796821406     -0.54966236143398      1.78283321879008
  O   1.60861937533274      1.57548389481465      1.21636740149152
  C   -1.51520923616517     -0.44092735882931     -1.18013769558519
  N   -2.18322468306934     -0.66543569818631     -2.12650802712886
  N   -1.34030482994111     -0.05284033144078      1.28017446187770
  H   -2.16125284397839      0.53264988624347      1.22087745139132
  H   -1.63937110256868     -0.96126958078216      1.62191847532379
