13
Coordinates from ORCA-job run
  C   0.54623910929729      0.03755328275609     -0.05116963917631
  C   -0.81347705849800      0.04966653168743      0.06024930897517
  N   1.24365906604080     -1.15488292169309      0.11260024305817
  H   2.20219965070940     -1.05932816393568     -0.19649758907569
  H   1.20944483244998     -1.49200026531558      1.06851293020180
  N   1.31318329701975      1.22101585560670     -0.41791409802459
  O   0.71564899246656      2.27670865115199     -0.60791837268864
  O   2.53222476681271      1.06038532682129     -0.53359713170457
  C   -1.63559526864159      1.21546910326254      0.00607045407915
  N   -2.43993603520533      2.07535850924756     -0.01607040759810
  N   -1.46260695948163     -1.13660004107696      0.38147841436258
  H   -2.44710380399791     -1.14250315374732      0.15900772750819
  H   -0.96388058897201     -1.94984271476498      0.03724816008285
