13
Coordinates from ORCA-job run
  C   0.55172989711146      0.01751800716449      0.19727540577438
  C   -0.77967859517640     -0.05420263816969     -0.05187426263438
  N   1.22412259098540     -0.19552837462914      1.36242810735607
  H   2.16771363847220     -0.54088513801793      1.28962316248198
  H   0.68560891560472     -0.59282478201063      2.11856023949042
  N   1.42238859026634      0.47203232800207     -0.89618619831583
  O   1.75560646665421      1.65172625392474     -0.87565734443672
  O   1.76262575235527     -0.38343215007506     -1.70750123467007
  C   -1.61280722090356     -0.53801921022847      1.00428730077097
  N   -2.25228722639615     -0.95215965385692      1.90366300534958
  N   -1.27078571986929      0.37058436995060     -1.31684704077195
  H   -1.92697182122530      1.13483926587869     -1.22047033952499
  H   -1.72726526787891     -0.38864827793275     -1.80630080086946
