13
Coordinates from ORCA-job run
  C   0.54369116567443      0.05197038986801      0.06400884850263
  C   -0.80737423738384      0.02548084797773     -0.12353187308464
  N   1.21485849593864     -1.11042570638013      0.42964875085252
  H   2.15783726066777     -0.90379897118528      0.73235975842852
  H   1.22363099837726     -1.79912579308356     -0.31496203114208
  N   1.32305856391727      1.27984230804233     -0.02439467255055
  O   2.52918148506107      1.17304194009503      0.21857961474190
  O   0.74651057269426      2.32634781634385     -0.30752576929079
  C   -1.59882380810249      1.12137307889702     -0.58234489502307
  N   -2.37968962856569      1.92305483624737     -0.94908375985307
  N   -1.47136178518370     -1.18812650136833      0.01314728161113
  H   -1.01460306340084     -1.79918577085357      0.68150728263498
  H   -2.46591601969413     -1.10044847460048      0.16159146417253
