13
Coordinates from ORCA-job run
  C   0.54515555744492      0.02987165377075     -0.06605853688420
  C   -0.80869590517717      0.06220298663868      0.09963028445936
  N   1.19489261199080     -1.19077977131574     -0.21751773882362
  H   2.19641665848596     -1.08220110883068     -0.12472259943743
  H   0.96554006815181     -1.64171385441169     -1.09656636110581
  N   1.37024268489231      1.22957924652389     -0.01267802366302
  O   0.82356164267128      2.31534255525830      0.16020473015932
  O   2.58729675534653      1.05373315121381     -0.12635328473008
  C   -1.60264678928521      1.24611279442804      0.17658247265581
  N   -2.38526414969796      2.12239759372829      0.25715709069073
  N   -1.50907906175638     -1.13813706817878      0.06601312602651
  H   -0.95041486838409     -1.91491311006952      0.40241727012042
  H   -2.42800520468280     -1.09149506875535      0.48089157053200
