13
Coordinates from ORCA-job run
  C   0.54484907963395      0.01684737994778     -0.05298795983361
  C   -0.80999739906213      0.03485761527493      0.10443892837187
  N   1.34147573051470     -1.12317318821046     -0.06046894355769
  H   2.26203589704443     -0.89729966486680     -0.41485429537944
  H   0.94201848687231     -1.89341537117676     -0.57674288124453
  N   1.33120844421691      1.25209849806635     -0.04841901438133
  O   2.48625888943934      1.15153523806157     -0.47445756194050
  O   0.85599287715404      2.26567734895786      0.45249127895994
  C   -1.59964339662353      1.22344640238059      0.08836276969213
  N   -2.26279497359701      2.19621298016246      0.09974119435742
  N   -1.55754768029759     -1.13981366458498      0.09393188413320
  H   -2.46190990496964     -1.08349009142633      0.52904594492002
  H   -1.07194605032577     -2.00248348258622      0.26091865590253
