13
Coordinates from ORCA-job run
  C   0.52288945814943      0.02302475441884     -0.16811481322386
  C   -0.77574811182191      0.07286398235521      0.24701105090998
  N   1.16956711531239     -1.20387746857276     -0.27437977167377
  H   1.32473724815379     -1.63597010835613      0.63001701877980
  H   2.04193144655286     -1.11097703771422     -0.77823448481214
  N   1.25608443206454      1.20859688458700     -0.59261913194425
  O   0.69283863324573      2.29876560862698     -0.54806921396480
  O   2.40807330350856      1.01658199683101     -0.99416831262136
  C   -1.52207812189201      1.26692754790618      0.48138819293734
  N   -2.26134663052064      2.15332160788976      0.71545799415092
  N   -1.40374477194725     -1.11643244384039      0.59949104227837
  H   -2.41181270925474     -1.06544882505684      0.60732242876607
  H   -1.04239129155076     -1.90637649907464      0.07589800041770
