13
Coordinates from ORCA-job run
  C   0.54810092763987      0.03654960770300      0.00922717626679
  C   -0.81568376183977      0.05049668785724     -0.02723437378142
  N   1.22339838967987     -1.16695206214237      0.18426192731944
  H   1.13377328722419     -1.77891831202455     -0.61943925493105
  H   2.19809448417863     -1.00736932385566      0.40287099843701
  N   1.34624796116608      1.25434961399353     -0.05259937238042
  O   0.77049130126656      2.33299068413945     -0.16417269175374
  O   2.56862613364606      1.10426134571017      0.03855120522101
  C   -1.62159381641292      1.19809230816234     -0.29519378740675
  N   -2.41234222172215      2.04633527435146     -0.50062375956965
  N   -1.49384159543801     -1.15902779769359      0.06905840221615
  H   -0.98067971818499     -1.83942901646217      0.61914644801737
  H   -2.46259137120342     -1.07037900973884      0.33814708234525
