13
Coordinates from ORCA-job run
  C   0.54211603746556      0.05919173659428      0.07511278861144
  C   -0.80495399462043      0.01666417907486     -0.13707463040297
  N   1.21961938985446     -1.09358327736867      0.45760920473461
  H   2.15884300507354     -0.87762939523080      0.76516014658903
  H   1.23593366118549     -1.79141749597522     -0.27819827576742
  N   1.30988192606426      1.29473478230747     -0.00669304057498
  O   2.51396871473590      1.20094253390877      0.25129587237085
  O   0.72583459749764      2.33457981199485     -0.29866084084844
  C   -1.59936734679755      1.10025442042309     -0.61888803872738
  N   -2.38103157991474      1.89141376876256     -1.00622637909843
  N   -1.45717676557111     -1.20414931670756     -0.00441423388471
  H   -1.00967312546756     -1.80267877475495      0.68129075746231
  H   -2.45599451950548     -1.12732297302867      0.11868666953608
