13
Coordinates from ORCA-job run
  C   0.52580152575791     -0.01243276883804     -0.18247832783965
  C   -0.83151705752592      0.00411392375871      0.01931436939120
  N   1.06090113375021      0.12667261977697     -1.46833338814450
  H   1.55587322628733     -0.71045951073347     -1.75349768564813
  H   1.71564723559395      0.89848825895766     -1.50623748633796
  N   1.43798834565459     -0.14172649281657      0.94402049583643
  O   2.64248564245712     -0.10157869326382      0.69046954659698
  O   0.97076398360648     -0.27505462031848      2.08430317037958
  C   -1.64681681189769      0.17700971152698     -1.15560748788721
  N   -2.40166144679736      0.32405080065258     -2.04575266218036
  N   -1.53028772675727     -0.19996300563410      1.16716538610877
  H   -1.00490633601620     -0.17627047369003      2.02766561891873
  H   -2.49427171411317      0.08715025062160      1.17996845080613
