13
Coordinates from ORCA-job run
  C   0.54981948551708      0.02703378439995     -0.01287175816459
  C   -0.81368766623070      0.06790994283639      0.01245191408184
  N   1.20752047903389     -1.19698726981154      0.03706693573426
  H   2.19820301763791     -1.07083421532546      0.19836401959019
  H   1.04848419345129     -1.75327811591960     -0.79594861042043
  N   1.37045524350117      1.23080753776834     -0.01288909029420
  O   0.81355573734135      2.32512704253223     -0.00831507681801
  O   2.59232538710400      1.05206762178210      0.00480424189916
  C   -1.60668811221470      1.24646780889984     -0.12523867731087
  N   -2.38994100336509      2.12060706923698     -0.22243304043235
  N   -1.51008545776963     -1.13561368533394      0.04413864206420
  H   -0.99340601796239     -1.86138440767826      0.52899439761803
  H   -2.46755528604417     -1.04992311338703      0.35187610245276
