13
Coordinates from ORCA-job run
  C   0.53549720274976      0.03044982115003     -0.11524882122957
  C   -0.79573887668557      0.05666576852781      0.18132553755527
  N   1.17734759347002     -1.18766349085620     -0.31398284210185
  H   1.26340105012618     -1.72159188007392      0.54407452193048
  H   2.08526577269678     -1.05484789386613     -0.74127457984986
  N   1.31854674354019      1.24532585489164     -0.30630057981449
  O   0.76124090977937      2.33291096352675     -0.18631268513699
  O   2.50467133658901      1.08167569969725     -0.60861948040100
  C   -1.54815997321060      1.22922322763509      0.49357304389966
  N   -2.29583135675742      2.09695710308170      0.76656245526615
  N   -1.47103335128762     -1.15055344613346      0.31795886793085
  H   -1.06225640902481     -1.88306652044261     -0.25195141991406
  H   -2.47295064198528     -1.07548520713796      0.22019598186544
