13
Coordinates from ORCA-job run
  C   0.57723083199316      0.00664378252727     -0.14233176480970
  C   -0.77192145821836     -0.08304104158605     -0.01438482139911
  N   1.33024970491720     -0.02349329029954     -1.27768748688411
  H   0.82138430087026      0.06540410893016     -2.14519735949751
  H   2.20814755925340      0.47182168629854     -1.25535870404048
  N   1.38206684502397      0.05538517800587      1.08598625629859
  O   1.22974483994538      1.04140834603180      1.80119610294774
  O   2.15852310889116     -0.87776083598226      1.27095788181283
  C   -1.54362531453193     -0.07798581080160     -1.21708331368776
  N   -2.16479527292851     -0.08105660757839     -2.21965995349628
  N   -1.36562034888374     -0.20711743761561      1.27189560349222
  H   -1.80535201300107      0.65704366701631      1.56329740931504
  H   -2.05503278333092     -0.94725174494649      1.28037014994851
