13
Coordinates from ORCA-job run
  C   0.59382590316731      0.04280053903494     -0.12310237768817
  C   -0.75274433631631      0.05168483144753      0.10158122670587
  N   1.30634048557830     -1.10460176553676     -0.32548949392630
  H   2.30354921171097     -0.99810159249915     -0.19132274342621
  H   0.87047728223024     -1.89769888819779      0.13293445991072
  N   1.37873593645011      1.27802678379745     -0.20007533283094
  O   0.77795089839931      2.33680866168312     -0.35228668236160
  O   2.59678509943399      1.15223554222289     -0.05603803064707
  C   -1.56478480085868      1.19623422471069      0.34256366860829
  N   -2.39474170794028      2.00128121956468      0.58130075254680
  N   -1.36737924894005     -1.22920702703004      0.15510875868083
  H   -2.21849492342714     -1.21052334241238      0.70061762517466
  H   -1.53051979948775     -1.61893918678520     -0.76579183074688
