13
Coordinates from ORCA-job run
  C   0.53066653272986      0.03182292156678     -0.14245148740648
  C   -0.78621062968812      0.05989286087971      0.21293186860718
  N   1.17569146308786     -1.18825674847585     -0.31532263872470
  H   1.27899716728587     -1.69527349388129      0.55712703680886
  H   2.07455099718254     -1.06251698480652     -0.76205363923664
  N   1.29047013060290      1.24108879768154     -0.43131355295734
  O   2.46176318811671      1.07203434938515     -0.78439919629388
  O   0.72992624194540      2.32888965960830     -0.33045372764449
  C   -1.53657473756131      1.23757656707040      0.50877932070549
  N   -2.28133689224030      2.10886855438300      0.77916538042436
  N   -1.43681963681760     -1.14826053986540      0.43748424823394
  H   -2.44373834792056     -1.08752103943879      0.40120164768048
  H   -1.05638547672325     -1.89734490410703     -0.13069526019679
