14
Coordinates from ORCA-job run
  C   0.73159190077428      0.39372946143766     -0.28610724620707
  C   -0.65144324581679     -0.25589774469505     -0.40492970072458
  Cl  0.54286758538420      2.07656829970325      0.30563096792115
  H   -0.47774330099202     -1.27771793841918     -0.76325570863788
  H   1.15840650597744      0.48242819274188     -1.28762715413323
  C   1.65237403795334     -0.38443566014592      0.63168414994155
  H   1.21730210033953     -0.46235823916360      1.62649525020870
  H   1.80023519610702     -1.39242249270822      0.23299559135002
  H   2.62406091083362      0.10625931023407      0.69771879865703
  C   -1.45726083178360      0.42999710045323     -1.43713341891072
  N   -2.13443840905904      0.96189381447647     -2.23598363949252
  N   -1.29975463924040     -0.34955190146848      0.89207450607246
  H   -1.56281466482257      0.57609449526615      1.20968555452876
  H   -2.14338314565501     -0.90458669771226      0.81875204942633
