14
Coordinates from ORCA-job run
  C   0.62099271530861     -0.51042945277088      0.15247845666297
  C   -0.74853843058933      0.03384380757335     -0.26798918609040
  Cl  1.04436313014359     -1.84069033301270     -0.97899477115315
  H   -0.65428128841224      0.39122697849139     -1.30625434734374
  H   0.50644149307976     -0.97605955540862      1.13314583599322
  C   1.72055279364076      0.53156923492037      0.14015414270387
  H   1.51200846726045      1.30846374273667      0.87880927787957
  H   1.80523204183076      0.99351242246718     -0.84602773358587
  H   2.67803511766237      0.07066815544223      0.38470115052013
  C   -1.07697612816090      1.19655298240291      0.56746021257391
  N   -1.33937154442829      2.13134056540763      1.22710361645750
  N   -1.77915566182050     -0.98061241782557     -0.07515981587720
  H   -2.68854203971390     -0.59594406788932     -0.30242108601678
  H   -1.60076066580112     -1.75344206253466     -0.70600575272403
