14
Coordinates from ORCA-job run
  C   0.68089747931977     -0.50517544054752      0.09796144751772
  C   -0.72322999316977     -0.07932836704576     -0.35381911410038
  Cl  1.23690194742267     -1.82357097187663     -0.97086839907768
  H   -0.66237157608180      0.17124552694381     -1.41812200501632
  H   0.60746267463065     -0.93783704105029      1.09999001801595
  C   1.68875386711823      0.62879862204019      0.07344126656018
  H   1.75030261605715      1.06367668418128     -0.92689296704397
  H   1.40828756122764      1.41059481907085      0.78208850133577
  H   2.67730853116509      0.25557265563805      0.34220017893875
  C   -1.11686718924754      1.14286163242197      0.37980507997072
  N   -1.43159516708600      2.08799659688504      1.00328284904117
  N   -1.67700357084217     -1.16531239967243     -0.20167435759294
  H   -2.53908251700795     -0.94682003523233     -0.68518483397483
  H   -1.89776466350596     -1.30270228175622      0.77779233542586
