14
Coordinates from ORCA-job run
  C   0.63270883049971     -0.49572285053413      0.14765371625254
  C   -0.76023296873930      0.01418069892256     -0.23763139441576
  Cl  1.02706844242805     -1.86860732067729     -0.94250015475406
  H   -0.71406647809324      0.32786972814118     -1.29313642739263
  H   0.56530370570434     -0.91967222848567      1.15131237569516
  C   1.71716852402953      0.55708361378948      0.04487554425146
  H   1.75840646796222      0.97320018299195     -0.96427792876367
  H   1.52669104602098      1.36533248395311      0.75427751542959
  H   2.68912985295323      0.11865198216455      0.27346318109209
  C   -1.06843186082224      1.20810929065862      0.56114952268913
  N   -1.31523253938248      2.16743983252087      1.19084995473100
  N   -1.76842926903538     -1.00243014809563      0.04182200364679
  H   -2.69042559939344     -0.64233121116088     -0.17363102583460
  H   -1.59965815413198     -1.80410405418873     -0.55422688262705
