16

C	-0.300121	0.055213	-1.513313
C	0.0	0.0	0.0
Cl	-0.041274	-1.633668	-2.224875
H	1.097451	0.0	0.0
C	-1.706402	0.367711	-1.80012
N	-2.828003	0.643321	-2.018151
N	0.554468	1.03169	-2.078371
H	0.499068	1.042551	-3.088667
H	1.5173	0.862655	-1.775496
C	-0.552993	-1.177552	0.650493
N	-1.025071	-2.076096	1.242018
C	-0.466204	1.274227	0.710543
H	-0.037356	2.141355	0.209265
H	-0.104244	1.254471	1.740189
H	-1.556256	1.357144	0.719199
Br	3.442092	0.0	0.0
