16

C	-0.290255	-0.020955	-1.514934
C	0.0	0.0	0.0
Cl	-2.06746	-0.243524	-1.803645
H	1.098441	0.0	0.0
C	0.064767	1.280773	-2.099321
N	0.330533	2.32445	-2.568673
N	0.417416	-1.056976	-2.226534
H	1.413954	-0.921185	-2.036245
H	0.153347	-1.952489	-1.825465
C	-0.446358	-1.261337	0.580427
N	-0.821674	-2.271949	1.048387
C	-0.535321	1.201407	0.766555
H	-0.197904	1.143676	1.802778
H	-0.133786	2.120255	0.335847
H	-1.626893	1.23709	0.747421
Br	3.409759	0.0	0.0
