15

C	-0.455953	-0.006037	-1.433962
C	0.0	0.0	0.0
Br	-2.392187	-0.212313	-1.649255
H	1.092277	0.0	0.0
H	0.011898	-0.810737	-1.990869
N	-0.010189	1.280352	-2.085616
O	-0.761131	2.245694	-2.099476
O	1.132411	1.239874	-2.535793
N	-0.369118	-1.341171	0.57589
O	-0.149814	-2.338348	-0.114561
O	-0.818917	-1.37433	1.724467
N	-0.480823	1.103196	0.742198
H	0.150429	1.272394	1.514593
H	-1.41884	0.957475	1.097069
F	2.494973	0.0	0.0
