15

C	-0.378952	0.033117	-1.475594
C	0.0	0.0	0.0
Br	0.284655	-1.478455	-2.462814
H	1.089984	0.0	0.0
H	0.074167	0.926367	-1.89906
N	-1.867387	0.192967	-1.702453
O	-2.277854	1.34475	-1.52311
O	-2.567611	-0.770502	-1.978986
N	-0.616946	-1.219449	0.617243
O	-1.831313	-1.164187	0.840998
O	0.095271	-2.188884	0.862558
N	-0.404792	1.144443	0.758265
H	-1.221213	1.620075	0.402892
H	0.390786	1.76526	0.818879
F	2.542458	0.0	0.0
