15

C	-0.535523	0.034536	-1.408947
C	0.0	0.0	0.0
Br	0.519994	-0.894931	-2.719288
H	1.092208	0.0	0.0
H	-0.543943	1.081013	-1.710187
N	-2.002461	-0.384588	-1.484006
O	-2.67269	-0.040235	-0.510692
O	-2.442901	-0.944026	-2.477063
N	-0.409892	-1.269031	0.669961
O	-0.610484	-2.260143	-0.036534
O	-0.47355	-1.269816	1.898649
N	-0.366629	1.169745	0.73879
H	0.359685	1.331076	1.426916
H	-1.26092	1.05543	1.201264
F	2.505153	0.0	0.0
