15

C	-0.66911	0.074954	-1.354542
C	0.0	0.0	0.0
Br	0.013921	1.589015	-2.35077
H	1.088166	0.0	0.0
H	-1.751606	0.186752	-1.311861
N	-0.430089	-1.130215	-2.22272
O	-1.337798	-1.42094	-2.999712
O	0.642394	-1.705928	-2.11788
N	-0.488276	-1.217475	0.708934
O	-1.227968	-2.006226	0.104371
O	-0.145061	-1.363692	1.87918
N	-0.309148	1.17969	0.773204
H	-1.087036	1.04185	1.407694
H	0.524188	1.403848	1.30406
F	2.508829	0.0	0.0
