15

C	-0.593368	0.074642	-1.386478
C	0.0	0.0	0.0
Br	0.19443	1.556418	-2.362827
H	1.087954	0.0	0.0
H	-1.672196	0.218931	-1.410239
N	-0.359791	-1.161929	-2.212688
O	0.592594	-1.872791	-1.929014
O	-1.157629	-1.346684	-3.130208
N	-0.555821	-1.229934	0.657845
O	-1.53653	-1.781235	0.13503
O	-0.032445	-1.597604	1.698767
N	-0.366993	1.124535	0.822872
H	0.466824	1.679645	0.954539
H	-1.110788	1.692472	0.439368
F	2.530161	0.0	0.0
