15

C	-0.679797	-0.017826	-1.350571
C	0.0	0.0	0.0
Br	-0.17779	1.560022	-2.368864
H	1.094258	0.0	0.0
H	-1.766004	-0.014191	-1.281051
N	-0.328986	-1.198308	-2.216192
O	0.813083	-1.628205	-2.168033
O	-1.235074	-1.613379	-2.939278
N	-0.489099	-1.161157	0.769823
O	-0.347332	-1.141296	1.993766
O	-0.977598	-2.114077	0.151413
N	-0.428028	1.215686	0.720893
H	-0.254476	0.997042	1.698634
H	0.290671	1.895362	0.489606
F	2.505975	0.0	0.0
