13

C	-0.56908	-0.022399	-1.421056
C	0.0	0.0	0.0
Cl	0.162083	1.372009	-2.354131
H	1.091191	0.0	0.0
H	-0.336837	-0.913804	0.500238
C	-0.156554	-1.247702	-2.117083
N	0.09238	-2.239946	-2.693063
N	-1.99892	0.018055	-1.402028
H	-2.307938	0.851804	-0.913849
H	-2.365639	0.037358	-2.346011
C	-0.52629	1.151297	0.721969
N	-0.972453	2.091449	1.2664
Cl	3.29269	0.0	0.0
