13

C	-0.318166	0.059707	-1.5014
C	0.0	0.0	0.0
Cl	-0.081373	-1.682041	-2.139139
H	1.094402	0.0	0.0
H	-0.384622	-0.911471	0.455426
C	-1.724766	0.355312	-1.802905
N	-2.851967	0.593642	-2.03389
N	0.537896	1.00179	-2.094935
H	1.499776	0.864753	-1.779813
H	0.476944	1.01297	-3.103878
C	-0.507465	1.175085	0.69612
N	-0.936639	2.101224	1.276844
Cl	3.296517	0.0	0.0
