13

C	-0.304399	-0.134904	-1.504154
C	0.0	0.0	0.0
Cl	-2.062784	-0.470968	-1.776613
H	1.095085	0.0	0.0
H	-0.389918	0.926333	0.426311
C	-0.025018	1.154408	-2.153704
N	0.177364	2.192185	-2.664477
N	0.463023	-1.168874	-2.157471
H	0.237598	-2.055968	-1.715935
H	1.447513	-0.976063	-1.956374
C	-0.480879	-1.156217	0.740262
N	-0.869777	-2.098486	1.323164
Cl	3.267116	0.0	0.0
