13

C	-0.514896	0.017854	-1.435884
C	0.0	0.0	0.0
Cl	-2.398214	0.281118	-1.336465
H	1.093561	0.0	0.0
H	-0.343766	0.895241	0.520997
C	-0.055782	1.210203	-2.155009
N	0.315131	2.155653	-2.744726
N	-0.172126	-1.140682	-2.136636
H	-0.536104	-1.167584	-3.077853
H	-0.378876	-1.988728	-1.625674
C	-0.494182	-1.185793	0.688357
N	-0.896987	-2.162899	1.20034
Cl	3.279829	0.0	0.0
