13

C	-0.583228	0.013776	-1.426349
C	0.0	0.0	0.0
Cl	0.112492	1.401356	-2.313009
H	1.093356	0.0	0.0
H	-0.323524	-0.928759	0.485752
C	-0.198596	-1.228171	-2.112095
N	0.037506	-2.245386	-2.649021
N	-2.031218	0.126755	-1.517495
H	-2.445799	-0.658989	-1.025918
H	-2.312242	0.97987	-1.043371
C	-0.540231	1.123311	0.753758
N	-1.050319	2.008048	1.333271
Cl	3.285191	0.0	0.0
