13

C	-0.556946	-0.004478	-1.422779
C	0.0	0.0	0.0
Cl	0.190414	1.439324	-2.273043
H	1.092728	0.0	0.0
H	-0.311518	0.936618	0.476189
C	-0.144937	-1.190277	-2.183983
N	0.106466	-2.142161	-2.825007
N	-1.983529	0.046826	-1.413396
H	-2.352355	0.095236	-2.355429
H	-2.294957	0.857496	-0.891326
C	-0.524248	-1.124477	0.767336
N	-0.940449	-2.020267	1.401796
Cl	3.297923	0.0	0.0
