13

C	-0.54101	-0.01934	-1.427358
C	0.0	0.0	0.0
Cl	0.028168	1.420837	-2.324409
H	1.092538	0.0	0.0
H	-0.312085	-0.929056	0.49349
C	-0.017754	-1.206662	-2.134914
N	0.260738	-2.202894	-2.694231
N	-1.987278	0.013172	-1.425055
H	-2.340452	-0.073313	-2.371317
H	-2.335515	-0.763141	-0.873496
C	-0.530495	1.130108	0.753839
N	-0.946835	2.012088	1.406574
Cl	3.288655	0.0	0.0
