12

C	-0.419932	0.065107	-1.445051
C	0.0	0.0	0.0
Cl	-0.002585	1.629032	-2.155442
H	1.092622	0.0	0.0
H	0.05029	-0.716428	-2.03885
H	-0.368871	0.872969	0.542412
N	-1.908266	-0.140563	-1.604615
O	-2.257542	-1.143456	-2.226592
O	-2.657565	0.671824	-1.073686
C	-0.487268	-1.218855	0.621825
N	-0.875932	-2.206707	1.12676
H	2.684417	0.0	0.0
