12

C	-0.396058	0.071369	-1.449026
C	0.0	0.0	0.0
Cl	-2.107982	0.49776	-1.737975
H	1.092741	0.0	0.0
H	0.220795	0.814153	-1.950581
H	-0.272914	0.956376	0.457458
N	-0.11443	-1.220692	-2.175991
O	-0.767385	-2.206033	-1.848144
O	0.756189	-1.179394	-3.042423
C	-0.589578	-1.07424	0.771225
N	-1.029228	-1.914289	1.464779
H	2.67549	0.0	0.0
