12

C	-0.385998	0.033721	-1.44933
C	0.0	0.0	0.0
Cl	-2.150469	0.045335	-1.764244
H	1.094978	0.0	0.0
H	0.042865	0.884213	-1.972808
H	-0.356311	-0.917316	0.469458
N	0.159781	-1.18316	-2.153966
O	0.026592	-2.265513	-1.595919
O	0.662032	-0.993159	-3.257527
C	-0.494446	1.169645	0.696882
N	-0.867206	2.127379	1.267437
H	2.678447	0.0	0.0
