12

C	-0.420501	0.078424	-1.444524
C	0.0	0.0	0.0
Cl	0.002167	1.64673	-2.142847
H	1.092662	0.0	0.0
H	0.045881	-0.700032	-2.045981
H	-0.368047	0.868421	0.550626
N	-1.909996	-0.119697	-1.605277
O	-2.263803	-1.111218	-2.242013
O	-2.65561	0.68789	-1.061333
C	-0.48802	-1.225039	0.609604
N	-0.879413	-2.220285	1.098004
H	2.683355	0.0	0.0
