12

C	-0.428539	0.068507	-1.442033
C	0.0	0.0	0.0
Cl	0.01151	1.622912	-2.16078
H	1.092646	0.0	0.0
H	0.020521	-0.723209	-2.038786
H	-0.364661	0.873436	0.544882
N	-1.922327	-0.10788	-1.588602
O	-2.65014	0.712197	-1.039308
O	-2.297893	-1.094747	-2.221467
C	-0.49005	-1.217988	0.621824
N	-0.884475	-2.206294	1.121385
H	2.685525	0.0	0.0
