18

C	-0.388376	0.035741	-1.48864
C	0.0	0.0	0.0
Cl	-2.184768	0.313145	-1.651043
H	1.09782	0.0	0.0
C	0.347138	1.153726	-2.20817
H	1.420699	0.977986	-2.092003
H	0.086552	2.092938	-1.722549
H	0.076435	1.18417	-3.265288
C	-0.130981	-1.249782	-2.139686
N	0.062285	-2.281913	-2.667092
C	-0.512737	-1.228483	0.735276
H	-1.608069	-1.249894	0.753135
H	-0.145575	-1.197221	1.763869
H	-0.150586	-2.152958	0.280714
N	-0.397683	1.267246	0.609576
H	0.324268	1.541032	1.2646
H	-1.270399	1.159879	1.112523
Cl	3.410377	0.0	0.0
