18

C	-0.38535	0.063181	-1.488472
C	0.0	0.0	0.0
Cl	-2.182437	0.337221	-1.650503
H	1.099549	0.0	0.0
C	0.347496	1.19762	-2.185243
H	0.080513	1.244903	-3.242936
H	0.080128	2.127017	-1.68427
H	1.421864	1.025346	-2.067206
C	-0.121818	-1.208733	-2.163086
N	0.073573	-2.228002	-2.713643
C	-0.511844	-1.24304	0.711187
H	-1.607177	-1.266232	0.727662
H	-0.148138	-2.158231	0.239397
H	-0.145822	-1.231174	1.740595
N	-0.399374	1.255515	0.631932
H	-1.281411	1.142239	1.117598
H	0.312914	1.510651	1.304843
Cl	3.411856	0.0	0.0
