18

C	-0.319684	0.043126	-1.516861
C	0.0	0.0	0.0
Cl	-2.103623	0.349476	-1.783972
H	1.098156	0.0	0.0
C	0.469452	1.141025	-2.213741
H	1.531877	0.967008	-2.015379
H	0.27597	1.141318	-3.287604
H	0.182969	2.109536	-1.801878
C	-0.049541	-1.244939	-2.155856
N	0.155095	-2.275931	-2.681668
C	-0.562731	-1.225221	0.693919
H	-0.234315	-1.200164	1.73301
H	-1.657355	-1.218416	0.675988
H	-0.205622	-2.150396	0.237434
N	-0.394711	1.210457	0.706882
H	0.303426	1.930008	0.573656
H	-1.295933	1.550232	0.393542
Cl	3.425275	0.0	0.0
