18

C	-0.357035	-0.037915	-1.51481
C	0.0	0.0	0.0
Cl	0.09758	1.54121	-2.269375
H	1.096698	0.0	0.0
C	0.418831	-1.12797	-2.246924
H	0.276639	-1.041246	-3.325538
H	1.476664	-1.009159	-1.996331
H	0.077933	-2.114099	-1.926816
C	-1.803446	-0.17945	-1.700935
N	-2.965836	-0.325223	-1.804287
C	-0.490573	-1.262452	0.699365
H	-0.150071	-1.208242	1.733711
H	-1.584882	-1.325636	0.698707
H	-0.081094	-2.171557	0.256752
N	-0.488785	1.156855	0.723881
H	0.038914	1.97464	0.44849
H	-1.469231	1.322759	0.519561
Cl	3.468603	0.0	0.0
