18

C	-0.406988	-0.030902	-1.48169
C	0.0	0.0	0.0
Cl	0.00411	1.557438	-2.246916
H	1.103027	0.0	0.0
C	0.367336	-1.101194	-2.245206
H	1.431405	-0.960997	-2.03837
H	0.177521	-1.014839	-3.316311
H	0.061651	-2.095824	-1.916275
C	-1.854097	-0.206507	-1.634813
N	-3.002124	-0.415524	-1.774904
C	-0.477444	-1.252904	0.723061
H	-1.57014	-1.296857	0.757193
H	-0.084929	-2.163209	0.269739
H	-0.096835	-1.224637	1.74802
N	-0.597145	1.165073	0.656854
H	-0.075552	1.986909	0.371012
H	-0.428414	1.064888	1.652247
Cl	3.486999	0.0	0.0
