18

C	-0.40919	0.00059	-1.481618
C	0.0	0.0	0.0
Cl	0.013061	1.601665	-2.214428
H	1.09584	0.0	0.0
C	0.357198	-1.059971	-2.266105
H	1.422585	-0.931139	-2.057275
H	0.166894	-0.950744	-3.335057
H	0.043125	-2.059275	-1.956817
C	-1.857412	-0.162163	-1.635669
N	-3.006843	-0.365301	-1.773435
C	-0.482154	-1.265009	0.697995
H	-1.574723	-1.299303	0.739065
H	-0.093056	-1.264228	1.719674
H	-0.102807	-2.168598	0.22096
N	-0.59334	1.154354	0.680585
H	-0.437353	1.023814	1.675135
H	-0.057676	1.978163	0.424951
Cl	3.481498	0.0	0.0
