18

C	-0.526148	-0.029007	-1.449422
C	0.0	0.0	0.0
Cl	0.253812	-1.37765	-2.350593
H	1.100157	0.0	0.0
C	-2.03916	-0.197557	-1.534792
H	-2.503758	0.577374	-0.923698
H	-2.32258	-1.181831	-1.160698
H	-2.374336	-0.108664	-2.569516
C	-0.157195	1.216288	-2.130147
N	0.059149	2.23692	-2.670395
C	-0.478222	-1.191963	0.811743
H	-0.28134	-2.131479	0.29361
H	-1.545424	-1.117231	1.043528
H	0.082782	-1.216338	1.749798
N	-0.522344	1.241689	0.604768
H	-0.454343	1.138627	1.61206
H	0.123859	1.989678	0.366114
Cl	3.465107	0.0	0.0
