18

C	-0.354841	-0.032741	-1.515296
C	0.0	0.0	0.0
Cl	0.100681	1.54944	-2.263101
H	1.096724	0.0	0.0
C	0.422455	-1.119487	-2.250669
H	0.280328	-1.029475	-3.329048
H	1.480169	-1.000171	-1.999467
H	0.08287	-2.107085	-1.933787
C	-1.800434	-0.173656	-1.705697
N	-2.962076	-0.317404	-1.816165
C	-0.494353	-1.262788	0.69574
H	-0.089833	-2.172034	0.249497
H	-0.152368	-1.213653	1.729611
H	-1.588713	-1.3211	0.696765
N	-0.486968	1.156329	0.726914
H	0.055657	1.968852	0.467486
H	-1.460625	1.337264	0.507474
Cl	3.468853	0.0	0.0
