18

C	-0.356231	-0.030433	-1.514941
C	0.0	0.0	0.0
Cl	0.097348	1.553178	-2.260922
H	1.097071	0.0	0.0
C	0.422897	-1.114418	-2.252829
H	1.480818	-0.990372	-2.004943
H	0.277581	-1.026523	-3.331108
H	0.089318	-2.102967	-1.93428
C	-1.803143	-0.171261	-1.702074
N	-2.96784	-0.302507	-1.798999
C	-0.492922	-1.26424	0.694324
H	-1.587395	-1.319551	0.70154
H	-0.093397	-2.173273	0.242823
H	-0.144592	-1.219358	1.726493
N	-0.487166	1.155007	0.729277
H	0.044365	1.972014	0.458586
H	-1.466125	1.325066	0.521256
Cl	3.471156	0.0	0.0
