18

C	-0.381994	-0.011629	-1.500486
C	0.0	0.0	0.0
Cl	-2.194794	0.181461	-1.684735
H	1.103719	0.0	0.0
C	0.291967	1.11956	-2.258116
H	-0.053521	2.073816	-1.859093
H	1.37156	1.032626	-2.106687
H	0.05025	1.076439	-3.32165
C	-0.071904	-1.300332	-2.118713
N	0.139963	-2.340628	-2.623863
C	-0.505511	-1.220901	0.74878
H	-0.121574	-2.145643	0.313725
H	-1.599159	-1.259577	0.763217
H	-0.147139	-1.147823	1.776012
N	-0.404959	1.216783	0.687566
H	-1.339028	1.503668	0.421324
H	0.248822	1.962698	0.491544
Cl	3.440174	0.0	0.0
