15

C	-0.505503	-0.020897	-1.425304
C	0.0	0.0	0.0
F	-1.782236	-0.460554	-1.531254
H	1.087012	0.0	0.0
H	0.150867	-0.659591	-2.018959
N	-0.42343	1.356934	-2.041918
O	-1.240569	1.610996	-2.9153
O	0.495951	2.067611	-1.657027
N	-0.424221	-1.291957	0.635231
O	-1.030904	-1.259081	1.698108
O	-0.095229	-2.294281	0.010579
N	-0.550006	1.117095	0.806727
O	0.050168	1.390287	1.838395
O	-1.577765	1.655155	0.392729
Br	3.29675	0.0	0.0
