15

C	-0.625629	-0.081092	-1.371665
C	0.0	0.0	0.0
F	-1.962221	0.154854	-1.308169
H	1.088189	0.0	0.0
H	-0.43736	-1.051299	-1.823774
N	-0.011922	0.937408	-2.308049
O	1.050127	0.594023	-2.808896
O	-0.631653	1.976215	-2.499655
N	-0.406361	-1.182826	0.82215
O	-0.037902	-1.165267	1.988707
O	-1.019129	-2.094865	0.2668
N	-0.487061	1.245325	0.676217
O	-1.40282	1.160367	1.486847
O	0.066691	2.271412	0.296689
Br	3.292618	0.0	0.0
