15

C	-0.619196	-0.008735	-1.378196
C	0.0	0.0	0.0
F	-0.227141	1.117507	-2.036528
H	1.086592	0.0	0.0
H	-1.705261	-0.055458	-1.356525
N	-0.159235	-1.183627	-2.199856
O	-0.807419	-1.361777	-3.229569
O	0.807911	-1.827063	-1.814824
N	-0.503083	-1.14821	0.803833
O	-1.224358	-1.969553	0.236557
O	-0.158239	-1.175854	1.97841
N	-0.51639	1.226469	0.697977
O	-1.74496	1.321324	0.755381
O	0.295037	2.02056	1.148948
Br	3.350361	0.0	0.0
