15

C	-0.518613	0.020269	-1.432776
C	0.0	0.0	0.0
F	-0.06425	1.083402	-2.113003
H	1.09878	0.0	0.0
H	-1.608039	-0.026605	-1.48222
N	-0.020048	-1.225647	-2.165727
O	-0.198871	-2.292819	-1.590424
O	0.449312	-1.059847	-3.279744
N	-0.580882	-1.163561	0.737828
O	0.176256	-1.876855	1.375672
O	-1.806031	-1.267013	0.667893
N	-0.452673	1.206558	0.776663
O	-0.568361	2.264332	0.168369
O	-0.61105	1.044808	1.980899
Br	3.315158	0.0	0.0
