15

C	-0.456759	0.106908	-1.43782
C	0.0	0.0	0.0
F	-0.051146	-0.944327	-2.18854
H	1.105332	0.0	0.0
H	-0.077544	1.029768	-1.873933
N	-1.963023	0.165419	-1.584881
O	-2.644614	-0.324047	-0.692001
O	-2.373713	0.66832	-2.627115
N	-0.496376	-1.210924	0.722133
O	-1.086384	-1.072942	1.784052
O	-0.235218	-2.270662	0.165311
N	-0.38429	1.23614	0.735731
O	0.076173	1.367336	1.861595
O	-1.082371	2.062434	0.136317
Br	3.269058	0.0	0.0
