15

C	-0.616839	-0.044064	-1.379465
C	0.0	0.0	0.0
F	-0.332755	1.12015	-2.021635
H	1.087103	0.0	0.0
H	-1.695495	-0.189629	-1.354617
N	-0.052053	-1.169201	-2.211813
O	-0.438996	-1.176501	-3.376625
O	0.704295	-1.969428	-1.678033
N	-0.51712	-1.108741	0.851591
O	-1.268531	-1.933165	0.332279
O	-0.157742	-1.092119	2.022122
N	-0.517767	1.253854	0.648592
O	-1.745677	1.328064	0.737872
O	0.290483	2.087741	1.027487
Br	3.341735	0.0	0.0
