15

C	-0.404381	0.023879	-1.474325
C	0.0	0.0	0.0
F	-0.13766	-1.274592	-1.987006
H	1.094396	0.0	0.0
H	-0.318824	0.93253	0.473813
C	-1.880804	0.253846	-1.720702
H	-2.180522	1.226777	-1.32801
H	-2.465648	-0.533504	-1.241515
H	-2.082562	0.226657	-2.795045
N	0.39766	1.006266	-2.111206
H	1.378368	0.859623	-1.875597
H	0.284211	0.95215	-3.116002
C	-0.567106	-1.129826	0.718678
N	-1.075151	-2.013558	1.300642
Br	3.540734	0.0	0.0
