15

C	-0.344476	-0.034792	-1.483525
C	0.0	0.0	0.0
F	-1.735285	-0.097187	-1.656221
H	1.094328	0.0	0.0
H	-0.350157	0.93257	0.448361
C	0.122187	1.246731	-2.154136
H	1.200558	1.350261	-2.015628
H	-0.107039	1.199391	-3.222441
H	-0.383929	2.11791	-1.730222
N	0.211249	-1.237559	-2.039268
H	1.162196	-1.355465	-1.697228
H	0.246071	-1.165856	-3.049159
C	-0.54279	-1.132994	0.736301
N	-0.980319	-2.043949	1.332829
Br	3.50372	0.0	0.0
