15

C	-0.4151	-0.164278	-1.475834
C	0.0	0.0	0.0
F	-0.136939	-1.500674	-1.771422
H	1.092696	0.0	0.0
H	-0.368984	-0.83498	0.601831
C	-1.891939	0.045595	-1.730295
H	-2.094628	-0.174111	-2.779795
H	-2.473271	-0.631614	-1.101229
H	-2.191611	1.071522	-1.508275
N	0.377564	0.627522	-2.377001
H	1.357734	0.529672	-2.115983
H	0.12908	1.602238	-2.274848
C	-0.4875	1.263802	0.537371
N	-0.922957	2.285091	0.922385
Br	3.53035	0.0	0.0
