15

C	-0.483376	-0.080481	-1.446161
C	0.0	0.0	0.0
F	-0.148962	1.151625	-2.056711
H	1.092346	0.0	0.0
H	-0.324616	-0.904955	0.521723
C	0.265538	-1.154314	-2.202669
H	-0.027005	-1.131566	-3.25668
H	1.338104	-0.970094	-2.117318
H	0.033534	-2.137254	-1.788809
N	-1.899314	-0.278926	-1.504794
H	-2.363213	0.487194	-1.027671
H	-2.19434	-0.263625	-2.474506
C	-0.557881	1.162549	0.678825
N	-1.059723	2.095768	1.184853
Br	3.571656	0.0	0.0
