15

C	-0.409687	0.0475	-1.471819
C	0.0	0.0	0.0
F	-0.113504	-1.231233	-2.01471
H	1.094403	0.0	0.0
H	-0.320615	0.923097	0.490567
C	-1.892142	0.246143	-1.707984
H	-2.215727	1.200846	-1.291605
H	-2.454345	-0.567158	-1.246073
H	-2.097517	0.238423	-2.782189
N	0.36553	1.063509	-2.089546
H	0.239226	1.034845	-3.094146
H	1.35159	0.927311	-1.871021
C	-0.561478	-1.14485	0.699615
N	-1.061977	-2.04382	1.26459
Br	3.552062	0.0	0.0
