15

C	-0.339925	-0.025165	-1.495139
C	0.0	0.0	0.0
F	-1.733084	-0.061824	-1.633494
H	1.093662	0.0	0.0
H	-0.363752	0.914078	0.476699
C	0.18082	1.228384	-2.162206
H	-0.304425	2.108478	-1.733861
H	1.25972	1.30567	-2.005179
H	-0.038759	1.175407	-3.229525
N	0.175467	-1.188067	-2.174247
H	1.189625	-1.163564	-2.098425
H	-0.138086	-2.020378	-1.683928
C	-0.527726	-1.167279	0.690649
N	-0.950637	-2.126628	1.219364
Br	3.508475	0.0	0.0
