14

C	0.0	0.0	0.0
C	-0.449098	-0.058824	-1.461433
F	1.378836	0.0	0.0
H	-1.537809	0.07934	-1.45156
H	-0.379365	-0.8655	0.543969
C	-0.402127	1.247089	0.676752
N	-0.516332	2.285529	1.212037
C	-0.086733	-1.417658	-2.068088
H	-0.339057	-1.442501	-3.129621
H	-0.659128	-2.196847	-1.561665
H	0.980984	-1.618993	-1.960058
C	0.192396	1.018089	-2.217467
N	0.72654	1.841066	-2.862883
Cl	-3.302777	0.0	0.0
