14

C	0.0	0.0	0.0
C	-0.370486	0.12538	-1.51179
F	1.381757	0.0	0.0
H	0.611567	0.034188	-1.992538
H	-0.378402	-0.919433	0.442435
C	-0.402884	1.163887	0.804971
N	-0.499123	2.139201	1.451883
C	-0.95172	1.470211	-1.952265
H	-1.926633	1.612231	-1.493088
H	-0.274411	2.275112	-1.654941
H	-1.048411	1.482676	-3.040688
C	-1.12341	-1.020161	-2.028767
N	-1.544653	-1.955343	-2.601777
Cl	-3.103224	0.0	0.0
