14

C	0.0	0.0	0.0
C	-0.510265	-0.136136	-1.434011
F	1.378906	0.0	0.0
H	-1.586402	0.087734	-1.379785
H	-0.375063	-0.828902	0.601513
C	-0.396595	1.279809	0.617625
N	-0.526268	2.334741	1.1151
C	-0.319017	-1.56542	-1.941354
H	-0.960011	-2.228014	-1.355742
H	-0.618584	-1.642576	-2.988623
H	0.723435	-1.881291	-1.851015
C	0.166481	0.828691	-2.299756
N	0.723075	1.567256	-3.023953
Cl	-3.369884	0.0	0.0
