14

C	0.0	0.0	0.0
C	-0.397427	-0.20868	-1.474391
F	1.37803	0.0	0.0
H	0.314125	0.417122	-2.02704
H	-0.372247	-0.793946	0.650682
C	-0.433781	1.314647	0.497603
N	-0.693554	2.388517	0.893094
C	-1.822475	0.185956	-1.855439
H	-1.938511	1.266441	-1.753348
H	-1.99589	-0.08059	-2.900747
H	-2.59651	-0.270758	-1.234481
C	-0.083897	-1.595934	-1.836557
N	0.168071	-2.687134	-2.189063
Cl	-4.642106	0.0	0.0
