16

C	-0.596586	0.010201	-1.397629
C	0.0	0.0	0.0
Br	0.24137	1.429747	-2.438945
H	1.092602	0.0	0.0
H	-0.320532	0.938775	0.463771
N	-0.257749	-1.289404	-2.119636
O	0.640218	-1.98178	-1.653855
O	-0.912267	-1.55598	-3.125844
C	-2.099125	0.182813	-1.41246
H	-2.34748	1.133559	-0.937609
H	-2.483409	0.175981	-2.429741
H	-2.539183	-0.633512	-0.837522
N	-0.565984	-1.137432	0.741306
H	0.128657	-1.875199	0.726924
H	-0.688103	-0.868105	1.709723
Br	3.688895	0.0	0.0
