16

C	-0.3803	-0.004642	-1.480216
C	0.0	0.0	0.0
Br	0.008188	-1.745993	-2.273305
H	1.094043	0.0	0.0
H	-0.32668	0.969648	0.391107
N	-1.881426	0.207794	-1.694203
O	-2.28902	0.28964	-2.849231
O	-2.590568	0.318879	-0.692428
C	0.35743	1.07649	-2.241067
H	0.121661	1.042116	-3.303845
H	1.429065	0.940278	-2.072934
H	0.060853	2.050166	-1.83627
N	-0.487743	-1.054164	0.859244
H	-1.480674	-1.191734	0.729356
H	0.003022	-1.914214	0.653109
Br	3.647562	0.0	0.0
