16

C	-0.591362	-0.008621	-1.401535
C	0.0	0.0	0.0
Br	0.249416	1.396573	-2.460673
H	1.092574	0.0	0.0
H	-0.323125	0.943295	0.45228
N	-0.249546	-1.319638	-2.103088
O	0.65564	-1.998759	-1.630705
O	-0.907343	-1.605917	-3.10254
C	-2.094003	0.165355	-1.426846
H	-2.472728	0.144642	-2.446684
H	-2.345346	1.122216	-0.965476
H	-2.537219	-0.644375	-0.844282
N	-0.565448	-1.132517	0.748111
H	0.136027	-1.863191	0.754787
H	-0.708845	-0.852485	1.710365
Br	3.683207	0.0	0.0
