16

C	-0.381031	0.101439	-1.488455
C	0.0	0.0	0.0
Br	0.028059	-1.555623	-2.419714
H	1.093331	0.0	0.0
H	-0.346599	0.940806	0.449824
N	-1.885192	0.312912	-1.556724
O	-2.625651	-0.65735	-1.408661
O	-2.269726	1.479356	-1.640885
C	0.358577	1.237577	-2.155698
H	1.426565	1.025447	-2.077609
H	0.065134	1.344468	-3.2014
H	0.148292	2.168616	-1.629998
N	-0.487363	-1.1333	0.755871
H	-1.399441	-1.430582	0.430949
H	0.159398	-1.902153	0.637741
Br	3.594775	0.0	0.0
