16

C	-0.544293	0.010308	-1.431104
C	0.0	0.0	0.0
Br	0.290073	1.483137	-2.401514
H	1.089209	0.0	0.0
H	-0.315557	0.953256	0.439033
N	-0.152831	-1.258739	-2.181359
O	-0.759992	-1.49614	-3.225683
O	0.728454	-1.960497	-1.699164
C	-2.050689	0.156286	-1.524591
H	-2.352599	1.049105	-0.974615
H	-2.538036	-0.719166	-1.085596
H	-2.372213	0.239988	-2.559989
N	-0.463793	-1.095687	0.833178
H	0.057206	-1.930348	0.605678
H	-1.454058	-1.273604	0.739569
Br	3.68905	0.0	0.0
