17

C	-0.290756	-0.019732	-1.500593
C	0.0	0.0	0.0
Br	-2.274528	-0.114076	-1.79112
H	1.099091	0.0	0.0
C	0.193159	1.263483	-2.152613
H	1.268772	1.335448	-1.95844
H	-0.304259	2.135595	-1.732662
H	0.019017	1.219688	-3.231032
N	0.287125	-1.228583	-2.022448
H	0.284591	-1.204697	-3.036602
H	1.257154	-1.268417	-1.704971
C	-0.464309	-1.228781	0.661143
N	-0.854649	-2.143947	1.287128
N	-0.459131	1.21469	0.651011
H	-1.410666	1.098358	0.977371
H	0.139286	1.396081	1.447257
Br	3.451227	0.0	0.0
