17

C	-0.496563	0.016737	-1.452934
C	0.0	0.0	0.0
Br	0.215629	1.778426	-2.246707
H	1.09496	0.0	0.0
C	0.146726	-1.075601	-2.275174
H	1.231951	-1.014697	-2.178701
H	-0.200411	-2.042834	-1.900458
H	-0.135084	-0.982423	-3.327634
N	-1.903736	-0.01024	-1.474337
H	-2.259281	0.688168	-0.830656
H	-2.275476	0.1425	-2.401756
C	-0.454987	-1.248928	0.620156
N	-0.810081	-2.232913	1.154695
N	-0.579742	1.129202	0.751638
H	0.01346	1.930158	0.548745
H	-0.459959	0.933846	1.742544
Br	3.507806	0.0	0.0
