17

C	-0.283599	-0.005084	-1.502519
C	0.0	0.0	0.0
Br	-2.270311	-0.10227	-1.797986
H	1.100827	0.0	0.0
C	0.191605	1.288992	-2.13832
H	1.266339	1.366868	-1.941861
H	-0.314195	2.151951	-1.709537
H	0.019083	1.256107	-3.217671
N	0.303714	-1.201904	-2.036224
H	0.346924	-1.147592	-3.046803
H	1.25694	-1.268601	-1.676617
C	-0.462697	-1.236507	0.646734
N	-0.84069	-2.175398	1.244467
N	-0.463233	1.20835	0.659906
H	0.132758	1.381586	1.459192
H	-1.41365	1.08346	0.986157
Br	3.451718	0.0	0.0
