17

C	-0.323955	0.038887	-1.518086
C	0.0	0.0	0.0
Br	0.072179	-1.836815	-2.254527
H	1.097354	0.0	0.0
C	-1.780446	0.283644	-1.861069
H	-2.064517	1.288983	-1.536134
H	-2.419734	-0.459316	-1.380469
H	-1.932082	0.219391	-2.940847
N	0.528906	1.011044	-2.083259
H	1.501807	0.839267	-1.821632
H	0.444084	1.05167	-3.090741
C	-0.586385	-1.155191	0.675078
N	-1.137124	-2.022844	1.24408
N	-0.396119	1.209372	0.714793
H	0.190594	1.96543	0.386416
H	-1.364242	1.443982	0.529636
Br	3.481421	0.0	0.0
