17

C	-0.285688	-0.025503	-1.501887
C	0.0	0.0	0.0
Br	-2.266878	-0.131915	-1.800812
H	1.09917	0.0	0.0
C	0.194215	1.258069	-2.156065
H	-0.31003	2.12888	-1.742866
H	0.02604	1.209229	-3.234315
H	1.267468	1.33734	-1.956967
N	0.300626	-1.233758	-2.01721
H	1.267932	-1.270045	-1.692913
H	0.306541	-1.212458	-3.029816
C	-0.465518	-1.225907	0.666653
N	-0.857828	-2.137167	1.296981
N	-0.460247	1.218126	0.643366
H	-1.413436	1.103907	0.965853
H	0.135189	1.403138	1.441571
Br	3.452047	0.0	0.0
