17

C	-0.285534	-0.067386	-1.508873
C	0.0	0.0	0.0
Br	-2.266525	-0.119501	-1.769711
H	1.103208	0.0	0.0
C	0.260216	1.164842	-2.197244
H	1.338085	1.200701	-2.003579
H	0.078441	1.088461	-3.270024
H	-0.196195	2.065034	-1.791729
N	0.261808	-1.250611	-2.123658
H	-0.041922	-2.078177	-1.61977
H	1.275852	-1.187297	-2.02474
C	-0.447626	-1.230264	0.670866
N	-0.803334	-2.207872	1.218849
N	-0.468773	1.220412	0.630031
H	0.124321	1.4256	1.424936
H	-1.424328	1.112986	0.947497
Br	3.457981	0.0	0.0
