14

C	-0.518045	-0.068648	-1.41888
C	0.0	0.0	0.0
F	-1.898122	0.060547	-1.437714
H	1.089787	0.0	0.0
H	-0.260405	-1.048197	-1.824756
C	0.050158	0.977858	-2.278668
N	0.406986	1.767651	-3.06961
N	-0.415612	-1.198678	0.787919
O	-0.957672	-2.12847	0.189945
O	-0.115701	-1.180403	1.974861
N	-0.534212	1.229458	0.658329
O	-1.478453	1.120621	1.433877
O	0.001545	2.273673	0.301698
Br	3.278745	0.0	0.0
