14

C	-0.465195	-0.0049	-1.439426
C	0.0	0.0	0.0
F	-1.811987	-0.308869	-1.54455
H	1.090144	0.0	0.0
H	0.096432	-0.798876	-1.937166
C	-0.199172	1.270948	-2.111665
N	0.00101	2.260281	-2.711828
N	-0.458749	-1.278991	0.633925
O	-1.092458	-1.228392	1.680565
O	-0.143404	-2.29206	0.021364
N	-0.515146	1.138256	0.800899
O	-1.465833	1.775583	0.34422
O	0.050008	1.341699	1.869416
Br	3.280997	0.0	0.0
