14

C	-0.597592	-0.036117	-1.401281
C	0.0	0.0	0.0
F	-0.368517	1.20218	-1.97111
H	1.088249	0.0	0.0
H	-1.678008	-0.181741	-1.337672
C	-0.00883	-1.078034	-2.248239
N	0.402669	-1.928395	-2.944579
N	-0.476354	-1.155974	0.807781
O	-0.325602	-1.074286	2.019902
O	-0.959025	-2.109491	0.196411
N	-0.546433	1.220315	0.675766
O	-1.776329	1.279101	0.734136
O	0.242116	2.049481	1.104049
Br	3.312986	0.0	0.0
