13

C	-0.525236	-0.03561	-1.431138
C	0.0	0.0	0.0
F	-0.20265	-1.287485	-1.92864
H	1.090755	0.0	0.0
H	-0.369484	-0.874235	0.535661
C	-1.998663	0.081849	-1.474238
N	-3.172406	0.107361	-1.49548
C	0.065047	0.977511	-2.321757
N	0.491902	1.74143	-3.104881
N	-0.475614	1.200369	0.716437
O	-0.472788	1.154624	1.941003
O	-0.813622	2.173225	0.037571
Cl	3.196954	0.0	0.0
