13

C	-0.529868	0.00104	-1.429178
C	0.0	0.0	0.0
F	-0.199576	1.236728	-1.963087
H	1.090788	0.0	0.0
H	-0.365405	0.890393	0.510903
C	0.047101	-1.047507	-2.288399
N	0.497973	-1.859565	-3.006783
C	-2.005336	-0.110032	-1.465479
N	-3.180589	-0.120855	-1.487678
N	-0.481279	-1.175673	0.751586
O	-0.839499	-2.160943	0.103171
O	-0.468893	-1.098523	1.973914
Cl	3.199999	0.0	0.0
