13

C	-0.539209	-0.003145	-1.414976
C	0.0	0.0	0.0
F	-1.929855	-0.09622	-1.387862
H	1.091817	0.0	0.0
H	-0.374171	0.874271	0.530793
C	-0.205053	1.288628	-2.046036
N	0.034186	2.315648	-2.56216
C	-0.037227	-1.085989	-2.279189
N	0.297492	-1.892328	-3.064428
N	-0.477003	-1.186201	0.749761
O	-0.598887	-2.244976	0.138375
O	-0.689034	-1.026833	1.948342
Cl	3.189581	0.0	0.0
