13

C	-0.504197	0.016968	-1.435104
C	0.0	0.0	0.0
F	0.133758	-0.913892	-2.212942
H	1.089667	0.0	0.0
H	-0.352955	0.874615	0.54688
C	-1.964687	-0.21355	-1.520118
N	-3.131272	-0.332999	-1.586239
C	-0.239738	1.358907	-1.998408
N	-0.057332	2.423013	-2.459973
N	-0.472809	-1.193365	0.739882
O	-0.813797	-2.182067	0.090338
O	-0.454122	-1.113781	1.964094
Cl	3.198309	0.0	0.0
