13

C	-0.504821	0.012272	-1.434795
C	0.0	0.0	0.0
F	0.14905	-0.903446	-2.21696
H	1.089671	0.0	0.0
H	-0.356119	0.873669	0.546454
C	-1.960949	-0.244709	-1.520136
N	-3.125089	-0.386187	-1.582115
C	-0.266593	1.360469	-1.993806
N	-0.106506	2.428144	-2.454642
N	-0.466829	-1.195224	0.741336
O	-0.779311	-2.19347	0.092745
O	-0.470222	-1.107845	1.965242
Cl	3.197675	0.0	0.0
