13

C	-0.53834	0.030447	-1.41579
C	0.0	0.0	0.0
F	-1.928117	0.130987	-1.387255
H	1.091851	0.0	0.0
H	-0.375584	-0.883723	0.513961
C	-0.027934	1.125552	-2.259541
N	0.334091	1.927829	-3.036574
C	-0.208097	-1.251881	-2.067935
N	0.033199	-2.276165	-2.589483
N	-0.478633	1.173564	0.767769
O	-0.726784	0.988718	1.955982
O	-0.565915	2.248452	0.178684
Cl	3.189904	0.0	0.0
