11

C	0.0	0.0	0.0
C	-0.323	-0.250432	-1.492119
Br	1.949747	0.0	0.0
H	0.370609	0.358121	-2.082532
H	-0.342648	0.964901	0.347703
H	-0.068996	-1.291071	-1.71612
C	-0.436645	-1.055514	0.90501
N	-0.634928	-1.850019	1.750215
C	-1.674164	0.000327	-2.022581
N	-2.512419	-0.027659	-2.852219
F	-2.308568	0.0	0.0
