11

C	0.0	0.0	0.0
C	-0.577057	0.179428	-1.397168
Br	1.949195	0.0	0.0
H	-1.711331	0.165949	-1.068079
H	-0.329409	0.819851	0.634552
H	-0.322946	-0.673605	-2.031542
C	-0.434502	-1.264562	0.590945
N	-0.63218	-2.318334	1.070553
C	-0.152607	1.415792	-2.013978
N	0.163463	2.430289	-2.519649
F	-2.654938	0.0	0.0
