18

C	0.0	0.0	0.0
C	-0.376496	0.072008	-1.516294
F	1.415047	0.0	0.0
H	0.605759	0.065513	-2.004743
N	-0.544856	1.056355	0.769218
H	-1.578003	0.868832	0.615974
H	-0.341803	0.874423	1.747861
C	-0.305118	-1.342006	0.585286
N	-0.449012	-2.379977	1.116902
C	-1.093283	1.367586	-1.889023
H	-2.086626	1.332357	-1.441562
H	-0.553863	2.244635	-1.526578
H	-1.173538	1.428736	-2.980536
C	-1.174078	-1.134968	-2.011475
H	-0.623778	-2.07209	-1.882033
H	-2.105285	-1.152468	-1.439249
H	-1.387585	-1.014712	-3.079541
F	-2.802375	0.0	0.0
