18

C	0.0	0.0	0.0
C	-0.447593	-0.077444	-1.463411
F	1.415781	0.0	0.0
H	-1.540533	-0.11521	-1.375792
N	-0.555039	1.139845	0.634412
H	-0.369269	1.077294	1.631311
H	-1.592116	0.924393	0.483675
C	-0.323009	-1.271856	0.718117
N	-0.478506	-2.25604	1.340791
C	0.090989	-1.32883	-2.14768
H	-0.265442	-2.238742	-1.657951
H	-0.247907	-1.357718	-3.188285
H	1.185527	-1.342931	-2.146772
C	-0.009021	1.183985	-2.201368
H	1.08263	1.264782	-2.228459
H	-0.376533	1.156198	-3.232868
H	-0.406457	2.07247	-1.71137
F	-2.789189	0.0	0.0
