18

C	0.0	0.0	0.0
C	-0.456429	-0.054897	-1.461815
F	1.38885	0.0	0.0
H	-1.550584	-0.070131	-1.368701
N	-0.557887	1.133139	0.651259
H	-1.595735	0.921276	0.501517
H	-0.370883	1.056529	1.64602
C	-0.346535	-1.288441	0.683218
N	-0.536555	-2.296225	1.255916
C	0.048828	-1.313952	-2.161022
H	-0.266329	-1.310964	-3.205924
H	1.139857	-1.368338	-2.13734
H	-0.349971	-2.218189	-1.696444
C	0.013656	1.199888	-2.191965
H	1.107762	1.236209	-2.245085
H	-0.335397	2.096342	-1.677216
H	-0.379332	1.203121	-3.215269
F	-2.801163	0.0	0.0
