18

C	0.0	0.0	0.0
C	-0.444784	-0.023074	-1.467555
F	1.415681	0.0	0.0
H	-1.529991	0.105303	-1.393138
N	-0.543444	1.134785	0.65767
H	-0.333986	1.066716	1.649828
H	-1.580445	0.923561	0.523572
C	-0.329604	-1.280314	0.694971
N	-0.483084	-2.278421	1.296352
C	-0.134278	-1.354604	-2.1415
H	-0.401666	-1.301518	-3.203563
H	0.929932	-1.607108	-2.07178
H	-0.716495	-2.163505	-1.69492
C	0.212391	1.136686	-2.210377
H	0.050384	2.071644	-1.678782
H	-0.213845	1.226218	-3.213623
H	1.288734	0.982552	-2.309557
F	-2.77614	0.0	0.0
