18

C	0.0	0.0	0.0
C	-0.386917	-0.170751	-1.507094
F	1.386671	0.0	0.0
H	0.59417	-0.242631	-1.993593
N	-0.545808	1.171303	0.589344
H	-0.334952	1.150074	1.583457
H	-1.577415	0.962232	0.477168
C	-0.323619	-1.225313	0.797648
N	-0.469966	-2.158628	1.495879
C	-1.115092	1.044155	-2.078367
H	-2.102701	1.076768	-1.617275
H	-1.210558	0.925657	-3.163437
H	-0.576049	1.970419	-1.871594
C	-1.172783	-1.44787	-1.803052
H	-1.362297	-1.517613	-2.880402
H	-2.11411	-1.372161	-1.254186
H	-0.62138	-2.344235	-1.500987
F	-2.80978	0.0	0.0
