18

C	0.0	0.0	0.0
C	-0.387882	-0.197328	-1.504675
F	1.386273	0.0	0.0
H	0.59283	-0.280506	-1.989504
N	-0.549733	1.176989	0.569866
H	-1.581517	0.962278	0.458135
H	-0.34171	1.172405	1.56449
C	-0.320544	-1.214176	0.820066
N	-0.451851	-2.107551	1.571957
C	-1.116254	1.004523	-2.100459
H	-0.576132	1.933736	-1.911329
H	-2.104294	1.049487	-1.644039
H	-1.207951	0.865503	-3.184353
C	-1.171406	-1.481607	-1.776176
H	-1.378212	-1.56034	-2.85047
H	-2.106004	-1.40721	-1.215662
H	-0.611257	-2.373346	-1.476395
F	-2.80907	0.0	0.0
