18

C	0.0	0.0	0.0
C	-0.202652	-0.022872	-1.568199
F	1.401531	0.0	0.0
H	0.604094	0.654522	-1.884022
N	-0.558696	1.086791	0.714685
H	-1.592814	0.842326	0.604938
H	-0.386275	1.926144	0.165121
C	-0.409259	-1.267316	0.645368
N	-0.58445	-2.294075	1.18561
C	-1.491767	0.502636	-2.186322
H	-2.346215	-0.067442	-1.831483
H	-1.37266	0.472341	-3.277958
H	-1.683023	1.537076	-1.893277
C	0.121472	-1.411757	-2.118151
H	-0.696516	-2.100601	-1.895559
H	1.039378	-1.814141	-1.685729
H	0.245498	-1.371994	-3.20546
F	-2.792818	0.0	0.0
