15

C	0.0	0.0	0.0
C	-0.461834	-0.038862	-1.46293
Br	1.969952	0.0	0.0
H	0.014236	-0.891329	-1.958307
H	-1.541857	-0.206606	-1.356779
N	-0.590062	1.107888	0.668827
H	-1.630435	0.863222	0.496544
H	-0.408138	1.024863	1.664691
C	-0.309639	-1.306348	0.628924
N	-0.510141	-2.349516	1.133
C	-0.192232	1.25872	-2.21108
H	0.875946	1.488112	-2.267068
H	-0.579948	1.181	-3.232057
H	-0.697302	2.085341	-1.711406
F	-2.806539	0.0	0.0
