15

C	0.0	0.0	0.0
C	-0.437556	-0.009439	-1.478141
Br	1.97577	0.0	0.0
H	-1.515282	-0.202208	-1.382948
H	0.068497	-0.829863	-1.998866
N	-0.562581	1.021107	0.823451
H	-1.600816	0.784557	0.674927
H	-0.371735	1.913071	0.37779
C	-0.340739	-1.30889	0.59121
N	-0.53966	-2.359199	1.077163
C	-0.203352	1.312961	-2.193681
H	0.836093	1.649422	-2.12478
H	-0.454602	1.209939	-3.253645
H	-0.857012	2.087153	-1.784533
F	-2.772651	0.0	0.0
