15

C	0.0	0.0	0.0
C	-0.431236	0.182277	-1.465035
Br	1.984638	0.0	0.0
H	-1.521974	0.256627	-1.350598
H	-0.018298	1.144087	-1.795251
N	-0.55058	0.962659	0.89973
H	-0.383694	1.878233	0.48727
H	-1.587191	0.73141	0.751032
C	-0.357406	-1.349908	0.470734
N	-0.543395	-2.456848	0.817078
C	-0.05121	-0.93353	-2.426592
H	1.030783	-1.062515	-2.511784
H	-0.447294	-0.713857	-3.423055
H	-0.487942	-1.880734	-2.100674
F	-2.767246	0.0	0.0
