15

C	0.0	0.0	0.0
C	-0.189868	-0.154861	-1.552993
Br	2.008803	0.0	0.0
H	0.468218	0.608272	-1.974852
H	0.254999	-1.121856	-1.809609
N	-0.623539	1.159418	0.495515
H	-0.512792	1.180246	1.505896
H	-1.669042	0.862986	0.303823
C	-0.316059	-1.249285	0.722807
N	-0.481972	-2.237913	1.335869
C	-1.544165	-0.016372	-2.237504
H	-1.92349	0.999029	-2.136841
H	-1.38003	-0.229368	-3.30203
H	-2.299783	-0.662087	-1.805674
F	-2.808826	0.0	0.0
