17

C	-0.440638	0.005704	-1.460969
C	0.0	0.0	0.0
Br	0.274248	-1.490754	-2.408936
H	1.094565	0.0	0.0
N	-1.970903	0.037621	-1.54443
O	-2.578465	-1.007391	-1.718408
O	-2.45854	1.145413	-1.334835
N	-0.006676	1.258308	-2.225888
O	-0.497646	1.379936	-3.341778
O	0.792073	2.006913	-1.683139
C	-0.458134	-1.25165	0.600346
N	-0.850101	-2.215635	1.146284
C	-0.489802	1.170949	0.862321
H	0.01571	1.083479	1.826019
H	-1.568741	1.146312	1.023028
H	-0.204142	2.121267	0.418688
Cl	3.225585	0.0	0.0
