17

C	-0.508681	0.008032	-1.430065
C	0.0	0.0	0.0
Br	-2.410901	-0.290822	-1.580329
H	1.094888	0.0	0.0
N	-0.12602	1.348535	-2.060373
O	-0.985469	2.212876	-2.164565
O	1.06233	1.438723	-2.334676
N	0.150913	-1.056631	-2.307098
O	0.65856	-2.002123	-1.726764
O	0.062825	-0.877358	-3.514405
C	-0.473642	-1.181949	0.709986
N	-0.869599	-2.081462	1.353143
C	-0.419327	1.26867	0.756289
H	-1.50048	1.423901	0.744911
H	-0.078971	1.170556	1.788018
H	0.084046	2.137035	0.329472
Cl	3.23165	0.0	0.0
