17

C	-0.439794	0.000726	-1.456629
C	0.0	0.0	0.0
Br	-2.321506	-0.328724	-1.714891
H	1.094919	0.0	0.0
N	-0.044547	1.347828	-2.068944
O	1.154766	1.459151	-2.281738
O	-0.912869	2.196682	-2.220803
N	0.296854	-1.048547	-2.293683
O	0.829886	-1.961956	-1.683747
O	0.243824	-0.886088	-3.505877
C	-0.473017	-1.204673	0.67178
N	-0.868565	-2.129686	1.278684
C	-0.479076	1.2488	0.74506
H	-0.170129	1.160024	1.78725
H	0.000684	2.138451	0.335281
H	-1.564753	1.361934	0.70049
Cl	3.222225	0.0	0.0
