17

C	-0.498825	0.006075	-1.432661
C	0.0	0.0	0.0
Br	-2.423327	0.013515	-1.570793
H	1.091941	0.0	0.0
N	0.049328	1.206464	-2.232826
O	-0.449212	1.410104	-3.33217
O	0.970127	1.821995	-1.711786
N	0.031979	-1.219503	-2.22127
O	0.894667	-1.877792	-1.661339
O	-0.432029	-1.395801	-3.338552
C	-0.468129	-1.226156	0.643799
N	-0.849268	-2.178627	1.216126
C	-0.465379	1.209062	0.821353
H	-0.004383	1.131475	1.807245
H	-0.114417	2.133003	0.365699
H	-1.550371	1.23272	0.936276
Cl	3.266194	0.0	0.0
