17

C	-0.465777	-0.006855	-1.446525
C	0.0	0.0	0.0
Br	0.474206	1.277976	-2.50162
H	1.093949	0.0	0.0
N	-0.290479	-1.35793	-2.140936
O	-0.883486	-1.48151	-3.20594
O	0.441038	-2.171132	-1.597874
N	-1.976967	0.243547	-1.4901
O	-2.647314	-0.717029	-1.124545
O	-2.389242	1.355924	-1.778797
C	-0.498172	-1.15188	0.745699
N	-0.880886	-2.026489	1.430594
C	-0.428552	1.287453	0.720852
H	-1.511148	1.348522	0.854951
H	0.050103	1.289361	1.700705
H	-0.077575	2.161836	0.173318
Cl	3.218338	0.0	0.0
