17

C	-0.505002	0.028195	-1.434494
C	0.0	0.0	0.0
Br	-2.400628	0.369802	-1.582575
H	1.094674	0.0	0.0
N	0.181135	1.081073	-2.306776
O	0.03996	0.931749	-3.51334
O	0.766551	1.988604	-1.738193
N	-0.156098	-1.309708	-2.111065
O	-1.041607	-2.135776	-2.264928
O	1.030777	-1.419867	-2.380431
C	-0.459958	-1.243574	0.615287
N	-0.842746	-2.21329	1.157734
C	-0.437315	1.180583	0.877179
H	0.098268	1.092235	1.824356
H	-1.511346	1.169671	1.069745
H	-0.146991	2.119886	0.413188
Cl	3.217011	0.0	0.0
