12
Coordinates from ORCA-job run
  C   0.09918730548238      0.28193586287402     -0.27657806754376
  C   1.16342997763711     -0.57803055688332      0.39467472422998
  Cl  0.78469852127612      1.92634447446850     -0.55029054444883
  H   0.77284576709443     -1.58593598661902      0.55548074902465
  H   2.05879768291326     -0.63928242034260     -0.22429974015291
  H   1.42878156046066     -0.13910328375083      1.35808058947363
  C   -1.15530458242189      0.41898032601628      0.57775017836521
  H   -0.89136064887288      0.86003610998664      1.54056786996842
  H   -1.89039775504728      1.05700387529129      0.08665341213635
  H   -1.59522325288019     -0.56749297989912      0.74398193196415
  C   -0.24326015921630     -0.27461126056066     -1.58793257765022
  N   -0.53319441642543     -0.76084416058119     -2.61708852536667
