12
Coordinates from ORCA-job run
  C   0.10738818085986      0.27067174371120     -0.28501666725233
  C   1.14846231422344     -0.58569476524157      0.42598790436637
  Cl  0.82654802202926      1.89126891388931     -0.60811630144170
  H   1.41336253637582     -0.11878191797656      1.37623703587755
  H   2.04812749508812     -0.68528937291855     -0.18167116721366
  H   0.73677165159786     -1.57971750387108      0.61734754641840
  C   -1.15239474081573      0.46035617137591      0.55146761371934
  H   -1.61329676535718     -0.51128294479804      0.74556869707448
  H   -1.86986161209535      1.09590403748382      0.03196293378948
  H   -0.88882408183536      0.92793039729953      1.50176084717449
  C   -0.23370649010345     -0.32424486114024     -1.57993964399710
  N   -0.52357650996729     -0.84011989781372     -2.59458879851534
