15

C	-0.407995	0.105269	-1.462186
C	0.0	0.0	0.0
Cl	-0.307947	-1.824293	-2.031902
H	1.087786	0.0	0.0
H	-0.428709	-0.864031	0.495306
N	-1.742427	0.514581	-1.652981
H	-2.382386	-0.154375	-1.245996
H	-1.957853	0.631503	-2.634635
N	0.510508	0.849207	-2.181078
H	1.468729	0.681921	-1.87776
H	0.415216	0.759121	-3.182053
N	-0.496899	1.199507	0.726274
O	0.039618	2.277031	0.500481
O	-1.44052	1.023005	1.502624
Br	3.494183	0.0	0.0
