15

C	-0.365247	0.145624	-1.470019
C	0.0	0.0	0.0
Cl	-2.17281	0.718756	-1.600855
H	1.088856	0.0	0.0
H	-0.408493	-0.913874	0.421182
N	0.432359	1.134901	-2.089699
H	1.389612	1.07083	-1.74459
H	0.410001	1.059394	-3.097667
N	-0.261073	-1.154575	-2.055606
H	-0.333209	-1.096	-3.063376
H	-0.987198	-1.770939	-1.711551
N	-0.478898	1.10974	0.852252
O	-0.083461	2.242144	0.599727
O	-1.23718	0.81351	1.779025
Br	3.482403	0.0	0.0
