15

C	-0.385391	-0.108995	-1.467155
C	0.0	0.0	0.0
Cl	-2.22487	-0.597175	-1.574564
H	1.088856	0.0	0.0
H	-0.4039	0.906245	0.442827
N	-0.232717	1.192508	-2.032664
H	-0.355235	1.167273	-3.036205
H	-0.894726	1.849789	-1.639707
N	0.358365	-1.121462	-2.115395
H	0.352788	-1.00863	-3.119886
H	1.31354	-1.11851	-1.764385
N	-0.476525	-1.124198	0.838095
O	-0.090328	-2.252502	0.553166
O	-1.216268	-0.843035	1.783359
Br	3.484733	0.0	0.0
