15

C	-0.284506	0.008494	-1.495437
C	0.0	0.0	0.0
Cl	-2.053444	0.20767	-1.849438
H	1.090589	0.0	0.0
H	-0.42247	0.883004	0.467717
N	0.361217	1.219293	-1.967941
H	1.357381	1.140201	-1.753473
H	0.245143	1.291215	-2.972621
N	0.112017	-1.254336	-2.067071
H	0.148304	-1.165285	-3.076065
H	1.044201	-1.479298	-1.724897
N	-0.526477	-1.18648	0.700052
O	-1.565722	-1.037555	1.349081
O	0.095731	-2.240971	0.602051
Br	3.478854	0.0	0.0
