15

C	-0.28289	0.007941	-1.495985
C	0.0	0.0	0.0
Cl	-2.052222	-0.178901	-1.858843
H	1.090589	0.0	0.0
H	-0.422118	-0.888142	0.458317
N	0.119921	1.274231	-2.051055
H	1.059763	1.482329	-1.719853
H	0.13301	1.208054	-3.06237
N	0.359312	-1.198939	-1.981378
H	1.35175	-1.128892	-1.751064
H	0.263069	-1.247845	-2.989696
N	-0.527859	1.179471	0.711466
O	-1.571821	1.024512	1.351684
O	0.097916	2.233211	0.63079
Br	3.478653	0.0	0.0
