15

C	-0.451903	-0.147989	-1.458335
C	0.0	0.0	0.0
Cl	-0.061157	-1.867864	-1.968676
H	1.089094	0.0	0.0
H	-0.354648	0.974281	0.34632
N	-1.823597	0.128902	-1.641225
H	-2.006879	0.664537	-2.47269
H	-2.329359	0.398673	-0.814689
N	0.359464	0.690197	-2.315724
H	0.293455	1.641431	-1.963691
H	1.334964	0.410476	-2.219396
N	-0.616142	-0.985349	0.913403
O	-1.795791	-0.765825	1.22314
O	0.037959	-1.948882	1.291194
Br	3.519568	0.0	0.0
