15

C	-0.475525	-0.033309	-1.450577
C	0.0	0.0	0.0
Cl	-0.01767	-1.597109	-2.217931
H	1.089798	0.0	0.0
H	-0.346553	0.943423	0.429546
N	-1.90106	0.093983	-1.520758
H	-2.236618	0.767433	-0.844183
H	-2.156871	0.376702	-2.459
N	0.22291	0.988482	-2.214748
H	1.22603	0.815164	-2.148377
H	0.048125	1.882654	-1.763452
N	-0.593544	-1.052029	0.854657
O	-0.065797	-2.158762	0.877374
O	-1.610659	-0.738497	1.485152
Br	3.500079	0.0	0.0
