15

C	-0.314968	-0.048402	-1.492281
C	0.0	0.0	0.0
Cl	-2.124978	0.202021	-1.72
H	1.090482	0.0	0.0
H	-0.406917	0.904941	0.442977
N	0.320687	1.065361	-2.168154
H	-0.02233	1.946479	-1.800973
H	1.318639	1.001325	-1.95871
N	0.074313	-1.285427	-2.064076
H	0.866237	-1.679912	-1.568928
H	0.302709	-1.129651	-3.037047
N	-0.520364	-1.1372	0.786566
O	-1.421074	-0.902951	1.59517
O	-0.017332	-2.243425	0.596366
Br	3.460902	0.0	0.0
