15

C	-0.4439	-0.044314	-1.466828
C	0.0	0.0	0.0
Cl	-0.151589	1.696682	-2.048624
H	1.090251	0.0	0.0
H	-0.418499	0.839399	0.549421
N	0.346511	-0.879589	-2.324231
H	1.320693	-0.597614	-2.228092
H	0.280647	-1.817754	-1.938659
N	-1.801228	-0.431843	-1.585092
H	-2.058778	-0.450485	-2.56352
H	-2.413845	0.188178	-1.071469
N	-0.47321	-1.22691	0.686943
O	-0.065372	-2.311008	0.275032
O	-1.264326	-1.087216	1.62266
Br	3.490412	0.0	0.0
