14

C	0.0	0.0	0.0
C	-0.550511	-0.16464	-1.410097
Br	1.952483	0.0	0.0
H	-1.639944	-0.294278	-1.271096
H	-0.329183	0.983932	0.333654
C	-0.403982	-1.004776	0.981101
N	-0.614962	-1.767457	1.849664
N	-0.031119	-1.462947	-2.016689
O	-0.220937	-2.490899	-1.375143
O	0.525909	-1.4033	-3.113437
N	-0.267659	0.978425	-2.202876
H	-0.942789	1.049126	-2.950714
H	0.659075	0.917958	-2.603127
Br	-3.588065	0.0	0.0
