14

C	0.0	0.0	0.0
C	-0.365308	-0.033457	-1.528791
Br	1.945368	0.0	0.0
H	-1.398818	-0.312574	-1.687051
H	-0.226462	0.978361	0.394559
C	-0.403976	-1.072479	0.900383
N	-0.709826	-1.940222	1.635079
N	0.271465	-1.156772	-2.229824
O	0.601977	-0.996126	-3.414102
O	0.136988	-2.251954	-1.687921
N	-0.130794	1.267589	-2.110492
H	-1.041751	1.720749	-2.154698
H	0.193101	1.118233	-3.058346
Br	-2.681086	0.0	0.0
