16

C	-0.48814	-0.009057	-1.434002
C	0.0	0.0	0.0
F	0.001678	1.166708	-2.057437
H	1.100527	0.0	0.0
H	-0.048354	-0.834863	-1.998171
N	-1.910081	-0.052709	-1.498063
H	-2.218906	0.139866	-2.442029
H	-2.25318	0.672067	-0.876567
C	-0.475638	-1.233626	0.748233
H	-1.563583	-1.244259	0.839263
H	-0.156372	-2.140358	0.228296
H	-0.024508	-1.255701	1.744777
N	-0.547386	1.21545	0.634676
H	-0.037561	2.000061	0.240182
H	-0.289689	1.185638	1.615734
Br	3.741677	0.0	0.0
