16

C	-0.491841	0.044457	-1.42871
C	0.0	0.0	0.0
F	-1.91163	0.286529	-1.378667
H	1.094828	0.0	0.0
H	-0.075975	0.918174	-1.93062
N	-0.218039	-1.124783	-2.174811
H	-0.672497	-1.927924	-1.76115
H	-0.537446	-1.019053	-3.127734
C	-0.476404	-1.251954	0.737338
H	-1.567889	-1.339589	0.701782
H	-0.024003	-2.158321	0.325638
H	-0.166017	-1.189987	1.782531
N	-0.417166	1.2552	0.631825
H	0.144619	1.396985	1.462663
H	-1.391024	1.190001	0.905155
Br	3.742675	0.0	0.0
