16

C	-0.437505	0.017521	-1.456022
C	0.0	0.0	0.0
F	-1.854051	0.312706	-1.484805
H	1.094969	0.0	0.0
H	0.021507	0.861867	-1.975166
N	-0.165777	-1.175139	-2.158791
H	-0.458573	-1.104546	-3.12387
H	-0.6216	-1.964727	-1.72385
C	-0.508341	-1.228758	0.741932
H	-1.598581	-1.311168	0.672655
H	-0.236597	-1.124592	1.79216
H	-0.046161	-2.145071	0.365721
N	-0.431055	1.214755	0.70086
H	-1.334675	1.50115	0.343538
H	0.23634	1.952728	0.509112
Br	3.731679	0.0	0.0
