16

C	-0.432106	0.018418	-1.457346
C	0.0	0.0	0.0
F	-0.075808	1.229732	-2.038297
H	1.096274	0.0	0.0
H	0.106764	-0.752322	-2.02679
N	-1.880062	-0.055311	-1.589171
H	-2.113515	0.065235	-2.569169
H	-2.189296	-0.980008	-1.313078
C	-0.475552	-1.274336	0.6862
H	-1.56066	-1.261553	0.838549
H	-0.001285	-1.337567	1.665794
H	-0.200383	-2.168931	0.11683
N	-0.479591	1.168169	0.735326
H	0.114851	1.951138	0.487624
H	-1.413771	1.382992	0.397769
Br	3.716477	0.0	0.0
