16

C	-0.371465	0.01845	-1.484867
C	0.0	0.0	0.0
F	-0.332986	-1.284619	-1.985496
H	1.099041	0.0	0.0
H	-1.407481	0.367111	-1.618229
N	0.495845	0.821155	-2.302078
H	1.457247	0.688461	-1.989815
H	0.260826	1.798997	-2.192632
C	-0.584188	-1.17359	0.758813
H	-0.273643	-1.109065	1.802731
H	-1.68108	-1.152793	0.725102
H	-0.242493	-2.11989	0.339373
N	-0.386161	1.264808	0.643914
H	0.321398	1.963391	0.458267
H	-1.272299	1.600626	0.281406
Br	3.654442	0.0	0.0
