16

C	-0.515699	0.048137	-1.427646
C	0.0	0.0	0.0
F	-0.006795	1.21498	-2.007959
H	1.100373	0.0	0.0
H	-0.112153	-0.786912	-2.007421
N	-1.944645	0.085718	-1.544646
H	-2.318223	0.509387	-0.702491
H	-2.322128	-0.845958	-1.658628
C	-0.459163	-1.273211	0.692362
H	-0.018719	-1.32956	1.691551
H	-0.117189	-2.154848	0.142263
H	-1.548116	-1.305274	0.790021
N	-0.559042	1.170185	0.700793
H	-0.144031	1.990437	0.268936
H	-0.203393	1.153163	1.651177
Br	3.765362	0.0	0.0
