16

C	-0.360422	-0.055889	-1.469069
C	0.0	0.0	0.0
F	-1.744691	-0.287335	-1.6266
H	1.098172	0.0	0.0
H	-0.202388	0.93549	-1.908764
N	0.350155	-1.122727	-2.114927
H	1.303213	-1.137331	-1.760065
H	0.394605	-0.958515	-3.11248
C	-0.483204	-1.241117	0.743103
H	-0.122203	-2.152026	0.262322
H	-0.112208	-1.219552	1.771466
H	-1.577464	-1.27446	0.760283
N	-0.467929	1.262093	0.574659
H	-1.408588	1.137901	0.935093
H	0.132886	1.496451	1.355803
Br	3.634971	0.0	0.0
