16

C	-0.309105	-0.004069	-1.490906
C	0.0	0.0	0.0
F	-1.702017	-0.096541	-1.673013
H	1.096914	0.0	0.0
H	-0.006586	0.961312	-1.911868
N	0.318088	-1.038944	-2.270392
H	1.316579	-0.844691	-2.264533
H	0.202736	-1.924625	-1.791201
C	-0.529216	-1.227777	0.724816
H	-0.149525	-2.160126	0.298466
H	-0.204152	-1.179587	1.764335
H	-1.622686	-1.250301	0.700446
N	-0.48233	1.208678	0.675705
H	0.171869	1.961799	0.500678
H	-1.379599	1.471833	0.28118
Br	3.641317	0.0	0.0
