16

C	-0.517006	0.060015	-1.427186
C	0.0	0.0	0.0
F	-0.036171	1.244976	-1.991509
H	1.100386	0.0	0.0
H	-0.101015	-0.760668	-2.019303
N	-1.949691	0.073002	-1.544113
H	-2.30676	-0.869095	-1.622154
H	-2.322979	0.508092	-0.70692
C	-0.456065	-1.278509	0.684398
H	-0.133545	-2.155742	0.116214
H	0.003917	-1.352345	1.673258
H	-1.543025	-1.302537	0.803472
N	-0.559496	1.163978	0.709878
H	-0.213419	1.13317	1.663367
H	-0.136726	1.987097	0.291867
Br	3.731595	0.0	0.0
