16

C	-0.561119	0.025581	-1.417026
C	0.0	0.0	0.0
Cl	0.065219	-1.414614	-2.31763
H	1.093538	0.0	0.0
H	-0.328255	-0.943482	0.453625
C	-2.085773	-0.048401	-1.471286
H	-2.435611	-0.109166	-2.503839
H	-2.416978	-0.93765	-0.930652
H	-2.518735	0.838011	-1.001854
C	-0.118162	1.221638	-2.138604
N	0.145921	2.221815	-2.695353
C	-0.454066	1.189333	0.841149
H	-1.522942	1.188905	1.080678
H	-0.205461	2.132896	0.348133
H	0.108991	1.169012	1.779237
H	2.960225	0.0	0.0
