16

C	-0.438616	-0.045417	-1.460786
C	0.0	0.0	0.0
Cl	0.003273	1.530932	-2.238696
H	1.094583	0.0	0.0
H	-0.361288	0.931588	0.445029
C	0.270284	-1.15914	-2.221367
H	-0.064725	-2.131972	-1.852106
H	0.056391	-1.09552	-3.28982
H	1.34208	-1.053493	-2.035123
C	-1.896334	-0.160731	-1.591656
N	-3.061758	-0.290862	-1.670189
C	-0.483653	-1.200178	0.80735
H	-0.151208	-1.075388	1.841091
H	-1.572195	-1.315128	0.806984
H	-0.030561	-2.124746	0.445033
H	3.012801	0.0	0.0
