16

C	-0.357528	0.086887	-1.472711
C	0.0	0.0	0.0
Cl	-2.17243	0.277231	-1.739213
H	1.096033	0.0	0.0
H	-0.365458	-0.944896	0.412759
C	0.353722	1.243274	-2.15685
H	-0.013814	2.190179	-1.758787
H	1.421048	1.143029	-1.923968
H	0.185627	1.224753	-3.235065
C	-0.019809	-1.174697	-2.140181
N	0.217168	-2.193498	-2.672681
C	-0.459071	1.181857	0.841222
H	-0.164738	1.002007	1.87852
H	-1.540706	1.338736	0.809457
H	0.043138	2.101001	0.531759
H	2.915422	0.0	0.0
