16
Coordinates from ORCA-job run
  C   -0.65075601867502     -0.17848916612146      0.00710643648758
  C   0.65162692771874      0.48853505114591     -0.45195279526433
  Cl  -1.15382523646629     -1.34021642058113     -1.28662536973175
  H   0.47083388448481      0.96795243021035     -1.41882814414557
  H   0.85960280693387      1.29155777088121      0.26726999828969
  C   -1.76062039675546      0.84579345925752      0.16073371603974
  H   -2.68896203871491      0.34238790271208      0.42978710410142
  H   -1.90544560790372      1.40322597014144     -0.76567487458302
  H   -1.49941088944834      1.55287682621077      0.95504424144373
  N   -0.56049266291607     -0.94818360409297      1.23164781119359
  H   -0.29799942997407     -0.33157816972699      1.99360728966185
  H   0.14217148764691     -1.67274955691156      1.14824921962566
  C   1.86085330381635     -0.43313421204433     -0.54739633199622
  H   2.13453415437272     -0.84217132132363      0.42771283648991
  H   1.67224197078691     -1.26289932216188     -1.23027497119385
  H   2.72664774509359      0.11809236240466     -0.92040616641843
