16
Coordinates from ORCA-job run
  C   -0.58199139161991     -0.11839543995193      0.07695795861318
  C   0.67983394563615      0.51144127983017     -0.50251008665125
  Cl  -1.17592452185014     -1.37418074114998     -1.17632586712630
  H   0.90265961157262      1.38138696808940      0.12541715774377
  H   0.44096775529485      0.88027995755314     -1.50322691381165
  C   -1.70764005090693      0.89009773583032      0.20506924959778
  H   -1.91142404643958      1.36357913579917     -0.75546307695093
  H   -1.41803270865900      1.65085628302509      0.93386642243249
  H   -2.62457040055422      0.40392365694281      0.54580912273082
  N   -0.32287525374526     -0.72267769358418      1.33494038491296
  H   -1.17179594528134     -1.10007585475112      1.73794743464406
  H   0.35291543087256     -1.47157333177576      1.25690457377249
  C   1.89580362849397     -0.40494733950027     -0.55666324364555
  H   1.67443009102991     -1.32464515723847     -1.10130546778908
  H   2.72117276109847      0.09526695389664     -1.06758556908596
  H   2.24747109505785     -0.66133641301502      0.44516792061317
