16
Coordinates from ORCA-job run
  C   -0.67602446869279     -0.43197150871116     -0.08542141881132
  C   0.58993482964279     -0.32245994788743     -0.93107554764677
  Cl  -1.88003079622692     -1.36427020539340     -1.05902960525484
  H   0.87274971202902     -1.33873354000642     -1.21540812706927
  H   0.34252197001470      0.21798562690389     -1.84965484071916
  C   -1.31243250865620      0.92069322649893      0.21390284172078
  H   -2.25058223481894      0.78160338635217      0.75507294157057
  H   -1.52207984523209      1.47514944319596     -0.70331023696502
  H   -0.64230175129898      1.51638061002874      0.83978690932052
  N   -0.40237593158843     -1.23578080079594      1.09518805069624
  H   -1.27310580363543     -1.44181494959362      1.57298491045336
  H   0.17255971108973     -0.69477040160171      1.73269864751551
  C   1.75941312289630      0.35371558920810     -0.21945358158722
  H   1.52506881393431      1.37364269890993      0.09327974541824
  H   2.07934894059896     -0.21792097411136      0.65441839523770
  H   2.61733623994397      0.41155174700332     -0.89297908387931
