16
Coordinates from ORCA-job run
  C   -0.75674105217921     -0.37856248188986     -0.04871288753996
  C   0.52817536721116     -0.36794362778153     -0.88458395325815
  Cl  -1.98637250952005     -1.25484744681329     -1.05682604822246
  H   0.31638873473304      0.10174714175690     -1.84989426940927
  H   0.79343826278276     -1.40923685169989     -1.09743511793974
  C   -1.29900897405612      1.01298600746185      0.22297393136918
  H   -0.61373026877808      1.56893766185570      0.86911723958405
  H   -2.26240138300387      0.93372594575103      0.72648400866287
  H   -1.42605749238701      1.56604056690945     -0.70859219547467
  N   -0.66836719884134     -1.09619542083731      1.20235761675602
  H   -0.22081664550092     -1.99596235886885      1.07040537592740
  H   -0.13642950204960     -0.55857710648509      1.87575185033910
  C   1.69926251252915      0.33655957765978     -0.20566309312246
  H   1.51161791365226      1.40327457794676     -0.06861422298101
  H   1.92163754751350     -0.10198230231528      0.76993944061612
  H   2.59940468789431      0.24003611734964     -0.81670767530703
