13
Coordinates from ORCA-job run
  C   0.52432381130902      0.29381953034694      0.23328672238515
  C   -0.57055982755253     -0.35505430067671     -0.62240634033285
  Br  0.86461649730994      2.10860601006188     -0.37135390073427
  H   -0.63653625504179     -1.39986091530940     -0.30228362813214
  H   -0.23143405058583     -0.34507200486301     -1.66094575111201
  C   0.16061498881441      0.31095587164586      1.64033458590343
  N   -0.16472632922889      0.28424243244122      2.76935577818581
  N   1.84626524511372     -0.46552481039842      0.07621581842083
  O   2.02935811272289     -0.99932636854124     -1.01079725743301
  O   2.61230300278462     -0.45415947623183      1.02934795293463
  N   -1.82258080954218      0.32838961631840     -0.37392121116104
  H   -2.59278899931898     -0.32074536860769     -0.31740784079023
  H   -2.01985538678441      1.01272978381401     -1.08942492813429
