13
Coordinates from ORCA-job run
  C   0.61674373814915      0.50757408022086      0.07673860314373
  C   -0.58800592072544      0.20546254059166     -0.81484949114652
  Br  1.88916338455452      1.65264432856251     -0.84065355230627
  H   -1.09318259723039      1.15520490777426     -1.00911677618372
  H   -0.20958523616671     -0.17970456420945     -1.76328990161488
  C   0.21497089418022      1.12357738301338      1.33034781093840
  N   -0.17126228916157      1.66899868678768      2.29708920785353
  N   1.34118194911905     -0.80850307954315      0.38045050453254
  O   1.35646980957271     -1.62871115501598     -0.52686149802966
  O   1.86521184232792     -0.91336437204281      1.47908825875429
  N   -1.42277524555458     -0.73546037892819     -0.09974381702016
  H   -2.36575788744507     -0.40278827466221      0.02806665545114
  H   -1.43317244161983     -1.64393010254856     -0.53826600437241
