13
Coordinates from ORCA-job run
  C   0.50900115651153      0.53332302665645      0.14371244492069
  C   -0.94503606561003      0.06246837311196     -0.00559281133953
  Br  1.02743438020458      1.64681625775211     -1.34402071873942
  H   -1.57489039934475      0.95966555258238     -0.04452152569426
  H   -1.18352812323089     -0.48499116952709      0.90858823511897
  C   0.71236149049530      1.26176957657244      1.38631270716382
  N   0.82570061802351      1.85591250038267      2.39454883490048
  N   1.37364820324662     -0.74570829082085      0.20087651448158
  O   2.17780263371370     -0.96794536757501     -0.68160205560057
  O   1.11428028867286     -1.44417067673580      1.17259272170562
  N   -1.04023670514528     -0.82626497530652     -1.14148550574342
  H   -1.75189828852902     -1.52703956663171     -0.99415752881621
  H   -1.24463918900813     -0.32483524046104     -1.99425131235775
