13
Coordinates from ORCA-job run
  C   0.49261750229726      0.53128098775298      0.19776626748455
  C   -0.94675587273203      0.03450929484130     -0.00009803708998
  Br  0.97438557248158      1.80562336296340     -1.16843026679380
  H   -1.16734766891455     -0.60929809266803      0.85381790413124
  H   -1.60331206839379      0.91176084264882      0.05069052449608
  C   0.67691565198282      1.13533491623414      1.50820534890605
  N   0.77451605058419      1.62745212824759      2.57151142773835
  N   1.39554103527346     -0.72047325334928      0.12527764035184
  O   2.20410594994472     -0.82744752717454     -0.77453643985679
  O   1.15931244566535     -1.52148987579152      1.02073429327025
  N   -1.01719764918029     -0.73779500391471     -1.21985784213424
  H   -1.70953901483517     -1.46876121216040     -1.14568906287948
  H   -1.23524193417356     -0.15869656762974     -2.01839175762406
