13
Coordinates from ORCA-job run
  C   0.56760798046843      0.32589633739705      0.15564298705109
  C   -0.56617582406903     -0.37252407093775     -0.60854628375614
  Br  1.07267588811117      1.98919084069039     -0.69370719356838
  H   -0.24727914659866     -0.46662812356399     -1.64622174174199
  H   -0.64486736333875     -1.38609800713246     -0.18871293784590
  C   0.17593879757955      0.58200297052532      1.53260525693585
  N   -0.23274916727586      0.75914534397562      2.62060591495222
  N   1.80522883418682     -0.57499273953371      0.14424987770146
  O   2.04600675978276     -1.12096540691607     -0.92434750530281
  O   2.44867484831805     -0.66566343530402      1.18109112997324
  N   -1.76791345622999      0.42222898625437     -0.50524389540641
  H   -2.32032094961729      0.36865232476695     -1.34758287468875
  H   -2.33682720131719      0.14175497977829      0.28116726569650
