13
Coordinates from ORCA-job run
  C   0.54968226858489      0.36269068151205      0.19414940345693
  C   -0.57504462300747     -0.39372356057737     -0.53745922378725
  Br  0.81829150495207      2.10574726367218     -0.59099228174549
  H   -0.25537271599338     -0.50422784104502     -1.58110990445625
  H   -0.61646337807037     -1.38736105225020     -0.08025322576621
  C   0.26668190448720      0.51313758474348      1.61107855301712
  N   0.01191871806672      0.63273300133427      2.75214029620641
  N   1.81220919423384     -0.49674304628467      0.02028197530634
  O   1.98832026297552     -1.33645277007097      0.89580740183241
  O   2.45485894649444     -0.35514015839428     -1.00746482067988
  N   -1.82800689463163      0.29439507045323     -0.34384135918508
  H   -2.03648559625016      0.91848006310463     -1.10932716103998
  H   -2.59258959184167     -0.35253523619733     -0.22200965315908
