13
Coordinates from ORCA-job run
  C   0.63345756865866      0.48445925282682      0.08637644433335
  C   -0.57149421220136      0.23102669790077     -0.81926262178313
  Br  1.95401312956270      1.59167397286695     -0.80910364678304
  H   -1.04127410136361      1.19883224312315     -1.01293165099790
  H   -0.19761450428386     -0.16245399405316     -1.76597642564230
  C   0.24041060308748      1.10506752811168      1.34066788934231
  N   -0.13546724256079      1.65682445132689      2.30780964549742
  N   1.30890589192762     -0.85799294916332      0.38755766540422
  O   1.81710378009381     -0.98900262613920      1.49084677068114
  O   1.30525479967690     -1.67169833369228     -0.52564562998213
  N   -1.44641629972101     -0.68470263595330     -0.11874638168957
  H   -1.49187122643163     -1.58620326339252     -0.56903820226946
  H   -2.37600818644491     -0.31583034376249      0.00844614388908
