13
Coordinates from ORCA-job run
  C   0.52026741950025      0.49915954936892      0.20863672867397
  C   -0.93992585401533      0.10577719153435     -0.05718043657796
  Br  1.17646322472786      1.67987856321564     -1.16923625078908
  H   -1.25792052024557     -0.48609052275055      0.80356641136716
  H   -1.52783007789075      1.03170229058865     -0.07536157768208
  C   0.67741200769484      1.13769864142810      1.50612194099067
  N   0.75361399422850      1.66155655176444      2.55592959602498
  N   1.32582052633935     -0.81921430432956      0.23239055126348
  O   0.97855685936117     -1.56456807489539      1.13966760862696
  O   2.17278210318844     -1.02183493831033     -0.61404107875517
  N   -1.00141703057925     -0.70453144700343     -1.25244291132283
  H   -1.75154384452267     -1.37766772649803     -1.19574170637733
  H   -1.12727880778686     -0.14086577411281     -2.08130887544274
