13
Coordinates from ORCA-job run
  C   0.58241419246908      0.49422700674590      0.02248014443848
  C   -0.59185334984168      0.18051039884384     -0.92210128298785
  Br  1.89746664655443      1.61496006681087     -0.86084031720774
  H   -0.17457398896340     -0.26588550610387     -1.82509048267647
  H   -1.04131566220296      1.13886005121467     -1.19425303407023
  C   0.12143945563939      1.13998891755533      1.24082214487929
  N   -0.35069837487377      1.67604051204227      2.17482004586114
  N   1.29730199744391     -0.80883174074856      0.40275001925620
  O   1.74150350750507     -0.89032140106633      1.53964641413294
  O   1.37594095662663     -1.65063815698955     -0.48196254880551
  N   -1.59115119784170     -0.69001039601667     -0.36587150062618
  H   -2.02410006638925     -0.31733332372815      0.46803670158896
  H   -1.24237411612574     -1.62256642855976     -0.19743630378302
