13
Coordinates from ORCA-job run
  C   0.49837840180983      0.50907421949625      0.23708535956215
  C   -0.93901334406039      0.08281688662321     -0.09489307302880
  Br  1.17948305381006      1.72758830945179     -1.09453191115205
  H   -1.55004054740434      0.99335374899569     -0.12303099092918
  H   -1.27605885197499     -0.53100792602846      0.74292056755581
  C   0.58471501495758      1.13015596263223      1.54967533130725
  N   0.60413990702255      1.63842928173516      2.60971509925627
  N   1.33607064646390     -0.78886727056943      0.27470917220250
  O   0.97002928700572     -1.55798268513318      1.15432066300603
  O   2.22334175590999     -0.95565977750231     -0.53761798150492
  N   -0.93004221333594     -0.70996700453614     -1.30339126676235
  H   -1.03685254661196     -0.13718766085076     -2.12865822968273
  H   -1.66415056359200     -1.40274608431406     -1.28730273982998
