13
Coordinates from ORCA-job run
  C   0.51012303671145      0.29705032838049      0.19826232890319
  C   -0.55616336994929     -0.37600335857118     -0.70805944046732
  Br  0.78690819946215      2.14243015092320     -0.31817775995168
  H   -0.54813229346926     -1.43954348785640     -0.44396627708530
  H   -0.20085251425882     -0.27587972391015     -1.73572227840616
  C   0.11342833591444      0.24831735884183      1.59482394623309
  N   -0.31623587420546      0.20550843093928      2.68857396652054
  N   1.81484746584612     -0.47572534946184      0.00071280880142
  O   2.31072126412400     -0.40531964085378     -1.11385264627383
  O   2.19719357755897     -1.16011967480533      0.94246194869700
  N   -1.89204372827519      0.13069428784894     -0.59205463921371
  H   -2.26940274631101      0.00426171295287      0.33791743323289
  H   -1.94939135314808      1.10632896557208     -0.84991939099014
