13
Coordinates from ORCA-job run
  C   0.60860460292325      0.51890913760735      0.06057970036696
  C   -0.59489307734989      0.17525670943589     -0.81660018437681
  Br  1.85837792688981      1.66155794685238     -0.89082144465005
  H   -1.11736004644704      1.11089851313492     -1.03183469855000
  H   -0.21631559652734     -0.22853228101753     -1.75713487237915
  C   0.20270613764949      1.15993141557790      1.30033697459325
  N   -0.18620245327294      1.72479865456308      2.25476256618433
  N   1.35626358712494     -0.77720874444014      0.39322212148904
  O   1.38205945359620     -1.61864825157139     -0.49403423229086
  O   1.88611589472190     -0.84626745310501      1.49195581966387
  N   -1.41011852286607     -0.76149094442198     -0.07289026256990
  H   -1.41254377892500     -1.67919970286435     -0.49166423763534
  H   -2.35669412751731     -0.43900499975113      0.05512275015467
