13
Coordinates from ORCA-job run
  C   0.60003621723655      0.47235234561549      0.03766300488367
  C   -0.58007837763326      0.22621411369110     -0.91937531416342
  Br  1.95904731091777      1.56736228457123     -0.81036954332039
  H   -0.17471556037343     -0.21111426377157     -1.83217004026781
  H   -0.99314653917406      1.20707231895781     -1.16798758128263
  C   0.15719685112425      1.10117573627536      1.27153590851323
  N   -0.30100268209303      1.62845744523296      2.21733255276642
  N   1.26549273900356     -0.86571455702236      0.38608622812234
  O   1.31672172740648     -1.68688163041345     -0.51977888613640
  O   1.70118679178450     -0.99341245915310      1.52198592241876
  N   -1.61285551851202     -0.62148534317912     -0.39015050601448
  H   -1.29955853238791     -1.57010280832610     -0.24354039733136
  H   -2.03832442729941     -0.25392318247824      0.44976865181206
