13
Coordinates from ORCA-job run
  C   0.56348261804350      0.31076009100443      0.19658099785971
  C   -0.57468550446512     -0.27548958991440     -0.65056563312926
  Br  0.99690208749091      2.11461066470295     -0.35313637510519
  H   -0.28588142655309     -0.17228297408187     -1.69614381990124
  H   -0.61353983334977     -1.34968226265179     -0.41742139743160
  C   0.20895805628807      0.30432767576511      1.60702781234697
  N   -0.17063786825895      0.27171095120835      2.71914511272045
  N   1.82353841767878     -0.53340570002072     -0.00905991294171
  O   2.04610896086339     -0.86974006969294     -1.16462634666231
  O   2.49965484729321     -0.79043931812727      0.97794314764230
  N   -1.79328855352043      0.45001719585156     -0.37489318571360
  H   -2.32811232101373      0.01576289078200      0.36424611423142
  H   -2.37149948049675      0.52585044517457     -1.19809651391593
