13
Coordinates from ORCA-job run
  C   0.57885880756351      0.49845161179376      0.03194030109465
  C   -0.59701707752237      0.19849857546073     -0.91512809431231
  Br  1.88098748556953      1.65074285267957     -0.82905664153827
  H   -0.17988203145017     -0.22192005016218     -1.83059031864369
  H   -1.05569999394136      1.15937235657188     -1.16182436469648
  C   0.11832333098295      1.11010369149355      1.26797656461282
  N   -0.35334751937651      1.61862290706401      2.21746359278172
  N   1.30487255282050     -0.80830009769064      0.37706440949014
  O   1.75288183490082     -0.91542650834669      1.51031426120052
  O   1.38725702962829     -1.62683848727706     -0.52885139810004
  N   -1.58677566686204     -0.69356651727863     -0.37636534749613
  H   -1.22996352556629     -1.62689786317561     -0.23099300812682
  H   -2.02049522674688     -0.34384247113270      0.46705004373389
