13
Coordinates from ORCA-job run
  C   0.45898076403775      0.50665616282472      0.23952394573283
  C   -0.99691795196607      0.16668483168967     -0.19670683025115
  Br  1.36546178643775      1.54061845136011     -1.11176782864556
  H   -1.46276893951851     -0.32326970746767      0.66278096662282
  H   -1.50086088767467      1.12231927970669     -0.35931862660761
  C   0.47901674501269      1.22999295581777      1.49886237704576
  N   0.42975612701263      1.83943515129866      2.50334636942388
  N   1.15476260502590     -0.84651255671642      0.44881041720734
  O   0.78891670831285     -1.43012209294465      1.46304577159755
  O   1.90120192230430     -1.26898083871003     -0.41807089625666
  N   -1.13511662121805     -0.66555883901846     -1.35440768652202
  H   -0.69106716437147     -0.26638152082798     -2.16988770562548
  H   -0.79036509339510     -1.60388127701242     -1.20621027372170
