13
Coordinates from ORCA-job run
  C   0.56900855023655      0.50902867056062      0.03373443528295
  C   -0.57759995221032      0.16596723629541     -0.93403453462999
  Br  1.87243111197418      1.66307231727405     -0.82295827722412
  H   -0.13112361615054     -0.26939587718237     -1.82842756672631
  H   -1.04585237142042      1.11253393211047     -1.21553416817188
  C   0.06797146057806      1.14159010631140      1.24324776418918
  N   -0.43538361844894      1.66431857406643      2.16841424971036
  N   1.30885920544079     -0.77589040552236      0.42820197791097
  O   1.73208451329666     -0.84694442072426      1.57378360549703
  O   1.42691396694189     -1.61500962615775     -0.45474567976035
  N   -1.56566590446208     -0.72992942472372     -0.39806069420998
  H   -2.02548915624993     -0.36756484429684      0.42596236992292
  H   -1.19615418952589     -1.65277623801107     -0.22058348179078
