13
Coordinates from ORCA-job run
  C   0.50920036696350      0.29683098982723      0.19989465955626
  C   -0.55856753374498     -0.36808572897780     -0.71065167805821
  Br  0.77118699430857      2.15208496110854     -0.28733256192431
  H   -0.21021399817662     -0.24881185563756     -1.73864110788809
  H   -0.54231055022469     -1.43572936645288     -0.46408145351965
  C   0.12175936008401      0.22225532427505      1.59796533465891
  N   -0.30121513338859      0.15806411782654      2.69327912816879
  N   1.81740133452972     -0.46429399948784     -0.01849620384165
  O   2.21038217399903     -1.16142297670978      0.90943934937085
  O   2.30560509550414     -0.37248928393947     -1.13493093183928
  N   -1.89684292424120      0.12812642628321     -0.57817113080341
  H   -2.26704932520152     -0.01445830060413      0.35232760990535
  H   -1.96233586041137      1.10692969248889     -0.82160101378556
