15

C	-0.329044	0.120719	-1.503928
C	0.0	0.0	0.0
F	-0.162356	-1.155703	-2.041225
H	1.091344	0.0	0.0
H	-1.382582	0.383704	-1.661696
C	0.645747	1.058741	-2.179219
H	0.606037	0.907806	-3.261446
H	0.407816	2.098535	-1.955223
H	1.638642	0.827614	-1.774555
C	-0.618752	-1.160599	0.603561
N	-1.082519	-2.124605	1.088916
N	-0.505118	1.240612	0.654995
O	-1.634542	1.224921	1.157444
O	0.223814	2.227418	0.621529
F	2.544068	0.0	0.0
