15

C	-0.280023	-0.023271	-1.482467
C	0.0	0.0	0.0
F	-1.656989	-0.1099	-1.752559
H	1.093841	0.0	0.0
H	0.06068	0.930261	-1.885739
C	0.457387	-1.179066	-2.11803
H	0.389342	-1.126741	-3.206907
H	1.498228	-1.106391	-1.787181
H	0.032761	-2.128526	-1.784124
C	-0.527365	-1.154596	0.695025
N	-0.910548	-2.140137	1.20799
N	-0.449476	1.252124	0.651069
O	-0.788724	1.203333	1.832893
O	-0.39217	2.286215	-0.012615
F	2.497749	0.0	0.0
