15

C	-0.461011	0.020106	-1.452688
C	0.0	0.0	0.0
F	0.226507	0.980307	-2.179109
H	1.092379	0.0	0.0
H	-0.155096	-0.951219	-1.857321
C	-1.947033	0.236194	-1.664858
H	-2.180041	0.171937	-2.730579
H	-2.230223	1.225944	-1.307268
H	-2.523841	-0.524406	-1.132776
C	-0.475627	-1.214778	0.630364
N	-0.860411	-2.241173	1.056566
N	-0.430624	1.167616	0.792744
O	-0.560957	1.023572	2.010232
O	-0.557535	2.24251	0.202549
F	2.450574	0.0	0.0
