16

C	-0.091571	-0.094252	-1.530981
C	0.0	0.0	0.0
Br	-1.877957	-0.843744	-2.166575
H	1.099902	0.0	0.0
C	-0.066155	1.232646	-2.165874
N	0.027708	2.263645	-2.725875
N	0.963609	-0.952104	-1.953332
H	1.141797	-0.857656	-2.945035
H	1.804769	-0.703257	-1.377146
C	-0.436769	-1.272306	0.717593
H	-1.523315	-1.384908	0.743287
H	0.005305	-2.126211	0.203208
H	-0.050423	-1.247961	1.739405
C	-0.607954	1.189341	0.551217
N	-1.107946	2.130357	1.049528
F	2.618333	0.0	0.0
