16

C	-0.467123	-0.063156	-1.447841
C	0.0	0.0	0.0
Br	0.373102	1.501722	-2.44334
H	1.093953	0.0	0.0
C	0.079388	-1.242946	-2.121166
N	0.471125	-2.217396	-2.648246
N	-1.887346	-0.056431	-1.581722
H	-2.167348	-0.010792	-2.554199
H	-2.263752	0.747483	-1.090827
C	-0.383782	-1.266797	0.771908
H	-1.458524	-1.466991	0.779626
H	0.145721	-2.113974	0.331759
H	-0.021087	-1.160189	1.796673
C	-0.559441	1.179917	0.625888
N	-1.061066	2.108482	1.14826
F	2.515037	0.0	0.0
