16

C	-0.071437	-0.084418	-1.538434
C	0.0	0.0	0.0
Br	-1.826132	-0.791996	-2.195098
H	1.099319	0.0	0.0
C	0.038758	1.254959	-2.13064
N	0.132535	2.327416	-2.602418
N	0.99154	-0.909019	-2.082044
H	0.774835	-1.878041	-1.873108
H	1.821592	-0.651082	-1.500602
C	-0.427922	-1.272586	0.719709
H	-0.084636	-1.220188	1.755081
H	0.060836	-2.133648	0.25949
H	-1.510301	-1.423833	0.704594
C	-0.62074	1.176652	0.563807
N	-1.124025	2.115532	1.063617
F	2.602262	0.0	0.0
