16

C	-0.098813	0.043393	-1.555612
C	0.0	0.0	0.0
Br	0.138498	-1.817077	-2.250873
H	1.096918	0.0	0.0
C	-1.41635	0.45504	-2.049006
N	-2.489664	0.793307	-2.390952
N	0.959632	0.841669	-2.109645
H	1.789359	0.652017	-1.507667
H	0.706232	1.82129	-2.022834
C	-0.671881	-1.131856	0.756258
H	-1.728916	-1.238734	0.4891
H	-0.156143	-2.068757	0.552779
H	-0.607002	-0.935632	1.829448
C	-0.438097	1.304968	0.471761
N	-0.787409	2.361242	0.855963
F	2.610731	0.0	0.0
