14
Coordinates from ORCA-job run
  C   0.56194470502779     -0.36676728740417      0.79997509335501
  C   -0.42515343092165     -0.12472180854651     -0.34785144230321
  Cl  0.26804314444044      0.65915651327516      2.18604512264310
  H   -0.09391155955691     -0.79323685147373     -1.15284837007676
  H   0.54744972962098     -1.40767116231969      1.12453434232496
  N   1.95139383956419     -0.15423301761049      0.23294833982785
  O   2.27218435806887     -1.01447169002853     -0.58390170755595
  O   2.61482485457610      0.80760797944435      0.57714342879099
  N   -0.26288261275331      1.22363961686921     -0.81998779179221
  H   -0.73168166048776      1.86717838554216     -0.19367272104854
  H   -0.63844444900252      1.33366630004984     -1.75181648795062
  N   -1.77240743939150     -0.40620505394616      0.13398853795719
  H   -2.42770936262942     -0.24770742710963     -0.62234605054515
  H   -1.86265011655531     -1.37623449674181      0.41878970637333
