14
Coordinates from ORCA-job run
  C   0.65752119366740     -0.62963260466737      0.51921997282043
  C   -0.53476854604407      0.24715598750661      0.14193811647059
  Cl  0.61353358063499     -1.15977668804575      2.19400210149870
  H   -0.55551920029818      1.06944868367725      0.86115724654005
  H   0.74516766348922     -1.50741317312757     -0.12183982466362
  N   1.91260276497554      0.16625226248083      0.28389025693796
  O   2.68294016167368     -0.27251110344481     -0.56350365075894
  O   2.04670607930550      1.19235362043277      0.93563784232780
  N   -1.74734341674121     -0.52918738634063      0.31161024293186
  H   -1.83586444798166     -1.21594691060902     -0.42901419470095
  H   -2.55908168534600      0.07389209429130      0.27838488935572
  N   -0.23169047545216      0.81522630596432     -1.16237523012943
  H   -0.37409534809511      0.13345033780508     -1.89873627438698
  H   -0.81910832378794      1.61668857407697     -1.35137149424319
