14
Coordinates from ORCA-job run
  C   0.63963810057587     -0.59250260116758      0.56635120487915
  C   -0.58655831590920      0.19075746060612      0.10742763393402
  Cl  0.60696547698375     -0.93462087166156      2.29324712063885
  H   -0.74633343617578      1.01055927229503      0.81733428279044
  H   0.73209862400317     -1.52790017372362      0.01753663955300
  N   1.89673691777837      0.17861126832805      0.27512023568008
  O   1.86934332825075      1.38663833459285      0.50134848790729
  O   2.85485300076094     -0.45894829377186     -0.14647902167361
  N   -1.71199290587626     -0.70617861235104      0.18661792518207
  H   -1.72378915905569     -1.31149393560133     -0.62629974057542
  H   -2.58412891801070     -0.19811233838558      0.23341272729140
  N   -0.32266098779299      0.62964172013451     -1.26265023950440
  H   -1.20079449488412      0.88771233056553     -1.69564126867238
  H   0.27562276935189      1.44783644014048     -1.26732598743049
