14
Coordinates from ORCA-job run
  C   0.61029935776576     -0.48393994567497      0.69582606985585
  C   -0.49374925547456     -0.15001462073104     -0.30995586645844
  Cl  0.40480067101616      0.31532755335159      2.24197170629073
  H   -0.19590437332917     -0.67874721603289     -1.22910563640821
  H   0.63535785986051     -1.55896334805289      0.84940290837208
  N   1.93979049595174     -0.13059929385503      0.06817944099672
  O   2.43113900137261     -1.02559090001386     -0.61478593189537
  O   2.38457055564282      1.00311318841482      0.20717253846342
  N   -0.62299446601021      1.28814828996066     -0.46127541902392
  H   0.27374549162745      1.75603732840498     -0.51886959939391
  H   -1.15416416965338      1.50314158117036     -1.29533300718523
  N   -1.71107974067409     -0.77595366580335      0.15681675976998
  H   -2.14925234889317     -0.15011492553428      0.82394907737386
  H   -2.35255907920246     -0.91084402560409     -0.61399304075757
