14
Coordinates from ORCA-job run
  C   0.58311906658716     -0.34894529172402      0.72221482456967
  C   -0.53930756679503     -0.08939866148154     -0.31537148441919
  Cl  0.61961362690025      0.83580025052646      2.01070086878324
  H   -0.30624524485493     -0.76373425278658     -1.15578934420487
  H   0.49940662774910     -1.34254310695130      1.15966598831549
  N   1.88088133704390     -0.36548028807529     -0.03724051359956
  O   2.40923718833879      0.70528797557468     -0.31411544375261
  O   2.25104799118790     -1.47774231208923     -0.40755906112679
  N   -0.61874044482210      1.24497209936620     -0.84103219475221
  H   -0.76113372253636      1.89965685024035     -0.08074376593925
  H   0.22531192812028      1.50151301202992     -1.33644498112192
  N   -1.79803322964512     -0.36651452864660      0.34257887108253
  H   -2.54233497786838     -0.07781285953062     -0.28038437817449
  H   -1.90282257940547     -1.35505888645245      0.53552061433996
