14
Coordinates from ORCA-job run
  C   0.65520184969036      0.02041536500505      0.72826737777802
  C   -0.39047291999981      0.42665226779486     -0.31954193977564
  Cl  1.57543782617745      1.40516348220221      1.32109923231134
  H   0.14094343496328      0.99112128596750     -1.09851221910180
  H   0.18555030960964     -0.48168504841649      1.57154708175637
  N   1.58416364969337     -0.97072475548768      0.09666613646069
  O   1.52549046935218     -2.12097445556819      0.52597607040361
  O   2.26249104250600     -0.58042181186378     -0.84744995528545
  N   -1.42531414435052      1.16205236270583      0.38102787691221
  H   -1.07986683422225      2.05692847253183      0.70467930818174
  H   -2.18048766496782      1.32448104794763     -0.27392265986838
  N   -1.02919236781222     -0.69933801248176     -0.95370540985800
  H   -1.41899946800883     -1.33211604565429     -0.26561552240448
  H   -0.40494518263082     -1.19955415468271     -1.57151537751023
