14
Coordinates from ORCA-job run
  C   0.57419227762367     -0.60650773614793      0.44323463985137
  C   -0.60519727786934      0.28218321334290      0.04194628085576
  Cl  0.43496057459000     -1.17066381402052      2.11363242889752
  H   -0.70680730958779      1.06730389846596      0.80077298072486
  H   0.65407498753880     -1.46813869587462     -0.21720417735827
  N   1.87796988595288      0.13089949242093      0.31526197459982
  O   2.83949056281932     -0.51168778749048     -0.09111430838263
  O   1.87746578129797      1.31669183989722      0.63915408559896
  N   -1.85482280457307     -0.43900799290367     -0.02713053962815
  H   -1.76151072951452     -1.23596737447486     -0.64719646799151
  H   -2.14594961859155     -0.76265421125145      0.88545364107768
  N   -0.31504614478512      0.76382736650353     -1.29747622776246
  H   -1.18901611495386      1.08141245956445     -1.69939650807358
  H   0.32019593005259      1.55130934196853     -1.26093780240936
