14
Coordinates from ORCA-job run
  C   0.60367113550152     -0.31871404767406      0.78936119406276
  C   -0.46221009827625     -0.12775055011517     -0.29587273306183
  Cl  0.50948594323284      0.87759617518207      2.06237697517461
  H   -0.25246154829185     -0.90665972182198     -1.04018367829572
  H   0.54251486594721     -1.31163647493288      1.23589503440228
  N   1.94863076319207     -0.28636376260794      0.09191091613297
  O   2.70784629110615      0.65044473812011      0.26450777383870
  O   2.13259542956730     -1.25674733480068     -0.63936766685785
  N   -0.24713356009327      1.14156600860676     -0.93650676535724
  H   -0.60950436251351      1.88716440956874     -0.35422162754755
  H   -0.69896592022981      1.17665035974290     -1.83995308301426
  N   -1.77713212364641     -0.24324945163017      0.32323453241278
  H   -2.48570030313911     -0.11725312644845     -0.38985298100779
  H   -1.91063651235688     -1.16404722118925      0.72867210911815
