14
Coordinates from ORCA-job run
  C   0.56805603734680     -0.19389849737397      0.86193400854918
  C   -0.74934789452597      0.15777253721335      0.11882726494516
  Cl  0.88439536989249      0.99181736981453      2.12908975050623
  H   -1.39711853280583      0.57934467210883      0.89956104680575
  H   0.50784017730039     -1.17903732858824      1.32874065261436
  N   1.77383297882647     -0.28048031424675     -0.06520562510378
  O   2.86957985266294      0.04157781582333      0.37223725417187
  O   1.54863523666622     -0.72613560733266     -1.18533105019524
  N   -1.28438601004828     -1.05206090904643     -0.47681311280478
  H   -1.71566233213301     -1.63692168113091      0.22873439749910
  H   -1.99896828998793     -0.77301840116181     -1.13808959715936
  N   -0.64680421084786      1.15811523369195     -0.91118964898944
  H   0.00518247532379      0.85901613127021     -1.62508296293844
  H   -0.36523485767020      2.05390897895857     -0.53641237790063
