14
Coordinates from ORCA-job run
  C   0.56788944228616     -0.41363425305439      0.67538928333465
  C   -0.49766912144010     -0.13113529314525     -0.39790699597140
  Cl  0.43066587601830      0.66458313607580      2.05973695077776
  H   -0.32079556797190     -0.88169706184724     -1.17388363806827
  H   0.49847898012909     -1.43966757742447      1.03375711254385
  N   1.92777682534904     -0.30678285544621      0.02077693060040
  O   2.66427624428081      0.62953935879310      0.27814146672951
  O   2.14056839010765     -1.21740283837867     -0.77552424599846
  N   -0.21950013822217      1.16459126615474     -0.96380642027205
  H   -0.33982626617488      1.89224660743550     -0.26844949470306
  H   -0.87930278308960      1.33920008984411     -1.71146945898688
  N   -1.86412846960504     -0.29999043829192      0.05930484871546
  H   -2.04373470352199      0.26671050160481      0.87988578565101
  H   -2.06469870814538     -1.26756064231991      0.28504787564745
