14
Coordinates from ORCA-job run
  C   0.54096783150345     -0.58643189973476      0.45643679240501
  C   -0.67751207046819      0.29228026663318      0.09077628956469
  Cl  0.45850470105454     -1.20001817040358      2.10870639114145
  H   -0.72412039119571      1.07911975523795      0.84973942498197
  H   0.64519708206480     -1.43041592764852     -0.22486522722141
  N   1.78022125846178      0.23983515516160      0.28720632906843
  O   1.91691054852503      1.20144105963103      1.03521490071313
  O   2.51264992771351     -0.06454841992468     -0.65252145720929
  N   -1.92165827231516     -0.44465045243037      0.10202630315802
  H   -1.99667785288507     -1.04845860545512      0.91038637486126
  H   -2.01366800460955     -0.99458740260930     -0.74257093728646
  N   -0.49890607311925      0.91022515505377     -1.20229919995648
  H   0.04450759432247      1.75893983579025     -1.14354507597986
  H   -0.06541627905266      0.28826965069855     -1.87369090824044
