14
Coordinates from ORCA-job run
  C   0.54983150930856     -0.17155766017287      0.90072944415812
  C   -0.73730699628317      0.22352547482399      0.13672432981914
  Cl  1.04584032254298      1.09164449491323      2.02312749886039
  H   -1.42964573026569      0.57363076263290      0.91820729648205
  H   0.40366720060067     -1.09348182249848      1.46101777822896
  N   1.63728885122607     -0.46631588480838     -0.10122295209214
  O   1.49846023182281     -1.55321492545525     -0.66144770947088
  O   2.50252005642337      0.36216416091562     -0.32694347097755
  N   -1.39136506460419     -0.84978654834129     -0.56580138954416
  H   -0.74219985633983     -1.28994091431539     -1.20714235785354
  H   -1.74608397691190     -1.54853640203993      0.07432251779757
  N   -0.37705627422476      1.21647427529730     -0.84992915382466
  H   -0.00771210238584      2.05573672965879     -0.42086806748150
  H   -1.20523817090907      1.45065825938977     -1.38177376410181
