14
Coordinates from ORCA-job run
  C   0.61127743858692     -0.70384318717850      0.20333758795338
  C   -0.55060398728684      0.29572150161475      0.16987979242274
  Cl  0.46811375642062     -1.83985905847953      1.54538024854401
  H   -0.52002472752905      0.83403963117856      1.12086640085291
  H   0.69447470007598     -1.27410637843138     -0.72216121090994
  N   1.89985627575242      0.05923219937469      0.33173388569362
  O   2.68788390235346     -0.04680882691589     -0.60219064006505
  O   2.03780370691335      0.74381560277013      1.33660054482758
  N   -1.86349019669497     -0.30702871182785      0.04432353924750
  H   -2.10544986174504     -0.84266050740540      0.86903277998116
  H   -1.90373847073950     -0.92517070745960     -0.75879812223503
  N   -0.23388421558856      1.22996983475262     -0.88640854840013
  H   -0.89913941637697      1.99289620486738     -0.85816266004333
  H   -0.32207890414182      0.78380240314003     -1.79343359786942
