14
Coordinates from ORCA-job run
  C   0.61588563953988     -0.47316325092118      0.69680287693913
  C   -0.52093566737318     -0.13396112886571     -0.26970011220215
  Cl  0.56544749550661      0.45811348673982      2.18125530284033
  H   -0.31712613117826     -0.75084080251730     -1.15928903309837
  H   0.57117146047573     -1.53149839279299      0.93712961442599
  N   1.92710429331258     -0.27413684682740     -0.02845143380766
  O   2.44815063707551      0.83551003524943     -0.02464541648743
  O   2.32408519416135     -1.26109571325756     -0.64256126107286
  N   -0.56001781774116      1.29412956482898     -0.52770347723055
  H   -1.12420141436179      1.48283799392618     -1.34631193143205
  H   0.36207138651352      1.68840726280763     -0.67166942116596
  N   -1.74792878276828     -0.63231085142973      0.31196722659139
  H   -2.44410952808387     -0.77328792347822     -0.40870246209768
  H   -2.09859676507865      0.07129656653803      0.95287952779787
