14
Coordinates from ORCA-job run
  C   0.56545799877283     -0.16759911269762      0.92410645214835
  C   -0.73244923719087      0.32601951902638      0.25823773044898
  Cl  1.38185815811734      1.04596720963539      1.89586428807728
  H   -1.43296364639264      0.47403749606545      1.08837997527895
  H   0.35865567478666     -1.03007389506494      1.55471498093374
  N   1.49459300812599     -0.69670978058054     -0.13514267137167
  O   1.67043198525952     -1.91273167840031     -0.14602718884395
  O   1.94847490759981      0.10397695578354     -0.94778431953847
  N   -1.31791473593970     -0.68594965114995     -0.61167567259825
  H   -0.72736904099296     -0.86915479015799     -1.41469360154050
  H   -1.49426000156198     -1.55902160605737     -0.12768162813292
  N   -0.54125769686865      1.59252597034707     -0.39459660985786
  H   -1.39442450687038      1.82895637544072     -0.88470191861138
  H   0.22016713315502      1.54875698781018     -1.05999981639229
