14
Coordinates from ORCA-job run
  C   0.58397718157506     -0.52507122429589      0.59746604583885
  C   -0.54990213742356     -0.04487138487729     -0.33707527530793
  Cl  0.51685475810345      0.17720632656605      2.19792095176298
  H   -0.37518566759891     -0.59185036980367     -1.27772348621176
  H   0.55618341976322     -1.61011390115557      0.68437961232018
  N   1.89649904854461     -0.22731356232151     -0.09097285585438
  O   2.51932351513593      0.78548086477630      0.19976730791413
  O   2.17940053994458     -1.02976539326135     -0.97887200837499
  N   -0.50618166408809      1.39249389434841     -0.44644468010392
  H   -1.27087764114772      1.69066427776457     -1.03758590737139
  H   0.36586313720734      1.73158953501324     -0.83069527820092
  N   -1.87164072899261     -0.38709116128122      0.12026668056357
  H   -2.03704735717633      0.02712481981128      1.02980838175863
  H   -2.00726640384697     -1.38848272128335      0.16976051126697
