14
Coordinates from ORCA-job run
  C   0.51716663264513     -0.19685711211412      0.91435712096015
  C   -0.73808170155744      0.23160444667950      0.11647051641354
  Cl  0.99367768336761      1.03677471282029      2.07713950823539
  H   -1.45108384154262      0.57567798521483      0.88197145320338
  H   0.33936452182564     -1.12738008225372      1.45077507101566
  N   1.63340009077258     -0.48796170750494     -0.05697406465388
  O   1.49816842492677     -1.56138652496932     -0.64347842913617
  O   2.51777535927886      0.33155619458956     -0.23661639801973
  N   -1.38338635355305     -0.81829371505369     -0.62834856206432
  H   -1.77409554745380     -1.52070028673695     -0.01374190302466
  H   -0.71882794782566     -1.25952562389003     -1.25285582699619
  N   -0.33163144342136      1.23844652327981     -0.83742911706666
  H   -1.13793410583897      1.49412108192087     -1.39239427983317
  H   0.03448822837631      2.06392410801790     -0.37987508903335
