14
Coordinates from ORCA-job run
  C   0.60794540598395     -0.07423503305264      0.81528872261252
  C   -0.31679072031177      0.35879498683521     -0.31600412213406
  Cl  1.33205738519595      1.30125961531461      1.65761273517816
  H   0.28707128520378      0.95396441883774     -1.01261763460998
  H   0.08419726401864     -0.69277258747269      1.54125376945728
  N   1.70141531406819     -0.92370237473830      0.23558764231545
  O   2.38532353818782     -0.41908101716181     -0.64585308395095
  O   1.80270717276221     -2.06009997773081      0.68367684540175
  N   -1.44956353108090      1.06582862391832      0.26970731198991
  H   -1.14660428690059      1.91173757672134      0.73914415142895
  H   -2.08081796855428      1.33887196318888     -0.47452059874387
  N   -0.72560508872522     -0.84766670472201     -0.99521534535655
  H   -0.94433923872810     -0.67439211078524     -1.96595743393854
  H   -1.53699653111966     -1.23950737915259     -0.53210295965007
