14
Coordinates from ORCA-job run
  C   0.55014104601043     -0.14977164894272      0.90031464985977
  C   -0.74725868452495      0.20657384117054      0.13892741226143
  Cl  1.13466675646005      1.20790632216112      1.85552390784054
  H   -1.48878358779229      0.40806637724837      0.92814180737723
  H   0.40348459536818     -0.99669689484698      1.56911752557754
  N   1.59735163643409     -0.59874114048641     -0.07609041753880
  O   1.87059609833617     -1.79427155676841     -0.05752437869647
  O   2.05433156949696      0.24260314653295     -0.84178696826044
  N   -1.03994466606001     -0.93260980851730     -0.70720075658040
  H   -1.83086627727988     -0.69470539053012     -1.29217057065881
  H   -1.26259539364844     -1.76045874770267     -0.16821320181148
  N   -0.70916403693478      1.36307488980119     -0.71285826211643
  H   -0.59653188430466      2.21039065504753     -0.17277083055190
  H   0.06557282843911      1.28663995583291     -1.36140991670179
