14
Coordinates from ORCA-job run
  C   0.58559707433799     -0.30150926698517      0.74127145381990
  C   -0.53799607589784     -0.11202754824526     -0.31018785198944
  Cl  0.61120924825070      0.95598639296685      1.95899972364829
  H   -0.29707237953527     -0.82930209860437     -1.11190741015420
  H   0.50990005748875     -1.26894968631452      1.23512204680830
  N   1.88453485100374     -0.35055501650655     -0.01515543205288
  O   2.26650311388852     -1.47917352155892     -0.31750746312342
  O   2.40206676094575      0.70714383560687     -0.35534234083257
  N   -0.63067397423809      1.19006652498718     -0.90969841741591
  H   -0.77991885218319      1.88491606725848     -0.18732925611445
  H   0.21112344651972      1.42651899729492     -1.41872189668575
  N   -1.79444817932665     -0.36532505680700      0.36184727213045
  H   -1.89097292780868     -1.34364703254854      0.60475428520381
  H   -2.54085216344547     -0.11514259054397     -0.27514471324214
