14
Coordinates from ORCA-job run
  C   0.59877166215868     -0.41747895949055      0.76056671978294
  C   -0.44028492187414     -0.22435695102985     -0.34005830603691
  Cl  0.33502916964354      0.66824187939591      2.12142174854607
  H   -0.18879592878397     -0.96548623262145     -1.10327738061007
  H   0.57981956453950     -1.44157521253940      1.12639183673280
  N   1.96720023166295     -0.21063383199548      0.14684782504742
  O   2.26360447269252     -1.09002330630731     -0.65687412417809
  O   2.63781687019925      0.76169807656981      0.44727049469664
  N   -0.24146421381253      1.08328311299530     -0.93211685178155
  H   -0.78314444535162      1.17757295986179     -1.78111955315198
  H   -0.51242440808049      1.82040500548284     -0.29223058355964
  N   -1.73573271091936     -0.59546003509628      0.20503369130911
  H   -2.06894514965976      0.11757492754507      0.84341409643912
  H   -2.41045019241458     -0.68576143277041     -0.54426961323587
