14
Coordinates from ORCA-job run
  C   0.62745158165611     -0.47500990580877      0.68201970072913
  C   -0.59062791837342      0.19807073821736      0.05631062859149
  Cl  0.54505597573193     -0.50224303719887      2.44032559073232
  H   -0.77829875483900      1.12794996232350      0.60558539934972
  H   0.74429314003869     -1.49203171118673      0.31240757175974
  N   1.88506513713727      0.24905431029419      0.29022409332958
  O   2.85533235793814     -0.43995791998982     -0.00356656328242
  O   1.84485025421507      1.47753863168578      0.30959927746008
  N   -1.71033774482841     -0.68660230899257      0.26071666592330
  H   -1.69274037417951     -1.42448001995272     -0.43398957262136
  H   -2.58758752340155     -0.18982746835863      0.19254558556244
  N   -0.28929550303296      0.39243244525672     -1.36164883255453
  H   0.30194945098293      1.20525551180862     -1.49304702540568
  H   -1.15611007904528      0.55985077190194     -1.85748251957381
