14
Coordinates from ORCA-job run
  C   0.60588412996508     -0.00894657559551      0.77055149956739
  C   -0.36819071888341      0.43913143505708     -0.32853684176562
  Cl  1.48567485865692      1.35047639150450      1.47334670169854
  H   0.21483155099262      1.02940972621693     -1.04941257739312
  H   0.08006476857396     -0.53898866542730      1.56197716451635
  N   1.57272986020668     -0.97933459022169      0.16557664867480
  O   1.47914311477581     -2.14553313480647      0.54254933741301
  O   2.31652936658499     -0.55604620684157     -0.71266482504250
  N   -1.44562173778885      1.15259957124852      0.32876648487250
  H   -2.15676720061809      1.34043156783401     -0.36734980498431
  H   -1.12146511398652      2.03414229767626      0.70642795680910
  N   -0.96467999936840     -0.66073900965642     -1.04425873797943
  H   -1.39682878808237     -1.31916476581490     -0.40745410562827
  H   -0.30130409102841     -1.13743804117344     -1.63951890075845
