14
Coordinates from ORCA-job run
  C   0.50175002237524     -0.19913687966047      0.89824369575628
  C   -0.80793684953544      0.24782716253109      0.17231865952141
  Cl  1.01603917512775      0.98915692077289      2.08802507972802
  H   -1.49341545005680      0.49618117711238      0.99037620860510
  H   0.36877019499129     -1.15878606156559      1.39443902309812
  N   1.56527513951985     -0.41288638095142     -0.13936909228068
  O   1.50045338257883     -1.50452916270021     -0.70926023396898
  O   2.32971342093667      0.50007020751392     -0.41906034670805
  N   -1.40419044327685     -0.80788052919317     -0.60941560841850
  H   -0.70514433005187     -1.33985483594253     -1.11368816097691
  H   -1.92995810353165     -1.44310173881909     -0.02582213855194
  N   -0.62853332205851      1.41515468954282     -0.65753627965022
  H   -0.35687587792073      1.15090214180970     -1.59453070581918
  H   0.04405304090223      2.06688328954969     -0.27572010033447
