14
Coordinates from ORCA-job run
  C   0.60024972480506     -0.44174148558931      0.56182359939489
  C   -0.56125252488620     -0.10208072335796     -0.40349663233279
  Cl  0.58300071403430      0.54166103960798      2.01693309974140
  H   -0.41953362617660     -0.79564930121761     -1.24432590062904
  H   0.56500459948007     -1.49217604345615      0.84390955179132
  N   1.89642555022849     -0.27815601855591     -0.19172962894563
  O   2.47135886890080      0.80342679877170     -0.16410393626667
  O   2.21683495360825     -1.26122031567630     -0.85458044833245
  N   -0.50788448042082      1.26711796848461     -0.86196625505670
  H   0.33299417482475      1.75764283210568     -0.59090394442079
  H   -1.32506031103865      1.76966222835424     -0.55085063577038
  N   -1.85900366334432     -0.37661439834047      0.16534247510035
  H   -1.92578423792025     -0.02534613469500      1.11311543211222
  H   -2.06934974209489     -1.36552644643550      0.15883322361428
