14
Coordinates from ORCA-job run
  C   0.56686375213706     -0.66592063941704      0.28316940688280
  C   -0.67546521217264      0.24905558555634      0.18602896946856
  Cl  0.56607844519027     -1.65020433346094      1.74756069955468
  H   -0.69591828160619      0.83464447659095      1.11013347795244
  H   0.64839983163586     -1.32454712959867     -0.58101868303300
  N   1.78927695862353      0.20175531309079      0.26043918274215
  O   1.95060931461674      0.96517229202378      1.20593256442185
  O   2.48120244790570      0.13929814443148     -0.75427715633039
  N   -1.90999993759192     -0.49618057748144      0.07500363204944
  H   -2.03703678563678     -0.82874104520047     -0.87231655469759
  H   -1.93988738700816     -1.27776569144755      0.71672468932393
  N   -0.56319252381784      1.15734516696923     -0.93122596713312
  H   -0.02283570022627      1.97743219507235     -0.69745080747215
  H   -0.15709492204936      0.71865624287120     -1.74870345372960
