14
Coordinates from ORCA-job run
  C   0.58788818998139     -0.33850873801651      0.79356717897868
  C   -0.45349553495862     -0.12357783327951     -0.31086913218248
  Cl  0.44678582351972      0.81182426431354      2.10385093966404
  H   -0.21599896606132     -0.87538880276552     -1.07456532348158
  H   0.52970584300727     -1.34704284959543      1.20415600983335
  N   1.94891578638484     -0.26550782079299      0.13090424049112
  O   2.69073822211041      0.67494739431430      0.35302484416792
  O   2.16423841917871     -1.20826050149150     -0.62753644601411
  N   -0.23769880423856      1.16881729341383     -0.90331684401839
  H   -0.62307592623955      1.89055704295352     -0.30601836573551
  H   -0.66706380456747      1.22944459757151     -1.81631500493473
  N   -1.78190662993987     -0.27417077457745      0.27042195833751
  H   -2.47364646279311     -0.13279579459450     -0.45620335795290
  H   -1.91438615538384     -1.20933747745327      0.64189930284708
