14
Coordinates from ORCA-job run
  C   0.58325231193111     -0.04350014684888      0.78656194655702
  C   -0.35345785239504      0.45491738778686     -0.32299987238009
  Cl  1.45616146907961      1.27947842570202      1.56336453946970
  H   0.25597517317999      1.06454727819125     -1.00475052557104
  H   0.03010858839330     -0.59669000671513      1.54274010855861
  N   1.55785291938062     -1.00219251659468      0.17457941643687
  O   1.44512678119232     -2.17948986912897      0.50922307149311
  O   2.32800500282525     -0.55599424549277     -0.66899236066892
  N   -1.44269017468503      1.15604846880027      0.32833635881476
  H   -1.12082237713300      2.01950212503056      0.74747151900213
  H   -2.13054913137167      1.37752973875724     -0.38116428441397
  N   -0.94073755468047     -0.61128839059904     -1.09517740207018
  H   -1.40267490849855     -1.28339863650995     -0.49456328815439
  H   -0.26555024721845     -1.07846961237878     -1.68462922707359
