14
Coordinates from ORCA-job run
  C   0.56809710936616     -0.20238454254497      0.95025301367045
  C   -0.66930525131086      0.27798002493749      0.18477585050782
  Cl  1.22105506905983      1.01174300511872      2.03237183085906
  H   -1.43226935898263      0.46333836275641      0.95557871018574
  H   0.33937743263704     -1.09284367178872      1.53377564569998
  N   1.61869194319834     -0.65656422853635     -0.02941207245203
  O   1.86181545484207     -1.85904187265718     -0.03573706056124
  O   2.11908657631380      0.19076314183521     -0.75832426131531
  N   -1.00406806343549     -0.80833811989953     -0.73702541848372
  H   -1.26355868009219     -1.65550128448782     -0.24195170687751
  H   -1.79002509698138     -0.52973973804067     -1.31134425674580
  N   -0.44038694659466      1.52740116615975     -0.48058811449164
  H   0.18364531370849      1.40264723310337     -1.26731585290613
  H   -1.31215550172851      1.93054052404429     -0.79505630708970
