14
Coordinates from ORCA-job run
  C   0.55913477067778     -0.50766780722253      0.52302855508025
  C   -0.68807480416025      0.27699815638255      0.05591030278655
  Cl  0.49316807976709     -0.92122339518324      2.23701769396701
  H   -0.76603198219397      1.14706499988060      0.71485369871880
  H   0.69518550402944     -1.42282002589906     -0.05257362278755
  N   1.76957926760517      0.33529826818096      0.25501706405834
  O   2.51633204159225     -0.05468031415106     -0.64088623821230
  O   1.87001948869917      1.38441994798524      0.88125431148059
  N   -1.90522590078569     -0.49757387289185      0.15577780467147
  H   -1.97518308300326     -1.14592697463896     -0.61816931617806
  H   -1.96069038313269     -1.00443992660550      1.02967307494038
  N   -0.52724708807181      0.74192326760425     -1.30238594582466
  H   -0.06809862577437      0.05997735416902     -1.89389471916894
  H   -0.01286728524886      1.60965032238958     -1.34462266353187
