14
Coordinates from ORCA-job run
  C   0.57480557326057     -0.40237544081319      0.73152240506759
  C   -0.53066872009700     -0.25540525280143     -0.33077767726790
  Cl  0.35606220179929      0.70286941662253      2.08090188028729
  H   -0.28352182093768     -0.99714574593461     -1.09699902264824
  H   0.61020590913471     -1.42152896302204      1.10942217683489
  N   1.89227284816192     -0.16066210045675      0.03920517012253
  O   2.26543612338474     -1.10980669530017     -0.64658403377672
  O   2.43553679307698      0.93208967992249      0.12571650404321
  N   -0.59190009431382      1.03599489143100     -0.98156488120390
  H   -0.62365191233982      1.78820765725473     -0.30338101126676
  H   0.19579656512682      1.19263053210745     -1.59823240564262
  N   -1.76965011932085     -0.66307628016545      0.29237878490969
  H   -2.49055697220454     -0.65495325434582     -0.41962375803861
  H   -2.04016637473134      0.01416155550124      0.99701586857955
