14
Coordinates from ORCA-job run
  C   0.52228353454151     -0.20212564941155      0.91043635999960
  C   -0.73694959835648      0.23333134229189      0.12204597203985
  Cl  1.00936006928197      1.02578251346300      2.07518945506216
  H   -1.44379340513263      0.57674300427559      0.89349317197513
  H   0.34503805781896     -1.13399063972937      1.44467189726132
  N   1.63124304308353     -0.49271932032570     -0.06873349411106
  O   2.51597787388644      0.32549003402513     -0.25215145049014
  O   1.48953070695462     -1.56408307608703     -0.65742652956531
  N   -1.38999450588019     -0.81167251661210     -0.62268461082104
  H   -0.73121427280419     -1.25040771260171     -1.25505927309415
  H   -1.77664915039141     -1.51694261325781     -0.00879082068250
  N   -0.33332031975900      1.24240898340929     -0.83063685863321
  H   0.03896998559753      2.06474631237211     -0.37239875632079
  H   -1.14248201884067      1.50343933818826     -1.37895506261987
