14
Coordinates from ORCA-job run
  C   0.53959632641483     -0.16559626386308      0.90399500545138
  C   -0.74757705498640      0.20895561189063      0.13342209359261
  Cl  1.12016521025859      1.17495520551784      1.88529832970210
  H   -1.49663718912945      0.40202747293134      0.91763147475698
  H   0.37989876221545     -1.02082723328755      1.55910409200167
  N   1.59445596503059     -0.60598521678412     -0.06703010320275
  O   2.06702730781419      0.24425465646827     -0.81315724174217
  O   1.85734533017072     -1.80399392539448     -0.06675475752015
  N   -1.03683187568746     -0.91535390413801     -0.73336186344505
  H   -1.82261883776360     -0.66606152534183     -1.32047971243195
  H   -1.26532678849742     -1.75143026830503     -0.20974286210352
  N   -0.69397667193763      1.37804954565522     -0.70008907108306
  H   -0.58054072472576      2.21619958711313     -0.14603923820869
  H   0.08602024082337      1.30580625753768     -1.34279614576741
