14
Coordinates from ORCA-job run
  C   0.53166070850984     -0.41520424778643      0.66072312973375
  C   -0.60060243342230     -0.18580534787774     -0.38424863112505
  Cl  0.38606011799747      0.65814376130403      2.04294726061896
  H   -0.40330637242684     -0.92225834592390     -1.17067528364463
  H   0.54641994855746     -1.44449565126205      1.01776071731873
  N   1.84049414937066     -0.22021656671002     -0.05508554414205
  O   2.43967220491164      0.84174568388864      0.04506018274960
  O   2.14215512703203     -1.16432873303397     -0.78342186613545
  N   -0.56372878342386      1.12798266108230     -0.97018981478724
  H   0.09389449538751      1.18447365553288     -1.73363455652127
  H   -0.33922282939556      1.84184523963537     -0.28860098211010
  N   -1.91467940653095     -0.43624311982967      0.16356403009970
  H   -1.92232864705258     -1.23949559667488      0.78043563962202
  H   -2.23748827951452      0.37385660765546      0.67636571832303
