14
Coordinates from ORCA-job run
  C   0.58726592050324     -0.19435036550009      0.92223803217695
  C   -0.76977582038918      0.15019781196623      0.26354839870154
  Cl  1.11025495008612      1.08205011709021      2.00855987012247
  H   -1.40805090328796      0.45496707076731      1.09879428896039
  H   0.52155275856299     -1.13264252895051      1.46833670774367
  N   1.60133864986978     -0.41204024648963     -0.16937839846821
  O   2.28187193534928      0.53009300042474     -0.55317627180618
  O   1.58291390540262     -1.54111449152351     -0.66119267241107
  N   -1.31932829990689     -1.06550479441812     -0.29158246377992
  H   -0.69051484236153     -1.47731091770542     -0.97107506455792
  H   -2.18535772560403     -0.83169664253155     -0.76211183748226
  N   -0.74393570394677      1.25827859690936     -0.66876378989224
  H   -0.43045559169297      2.11357512802888     -0.22516773949632
  H   -0.13777923258471      1.06649826193210     -1.45802905981090
