15

C	-0.449046	0.044173	-1.441093
C	0.0	0.0	0.0
F	-1.839579	0.306917	-1.511488
H	1.093576	0.0	0.0
H	-0.320458	0.950584	0.450623
C	0.285923	1.131386	-2.197428
H	0.056975	2.094686	-1.735415
H	1.361675	0.952026	-2.10826
H	-0.023382	1.154334	-3.244615
C	-0.265722	-1.262341	-2.102615
N	-0.160166	-2.271501	-2.692774
N	-0.503356	-1.176968	0.699464
H	-1.262217	-0.938051	1.322251
H	0.257331	-1.556194	1.25023
H	2.951401	0.0	0.0
