15

C	-0.454776	0.076923	-1.444228
C	0.0	0.0	0.0
F	-1.859717	0.24193	-1.502582
H	1.09339	0.0	0.0
H	-0.366992	-0.93169	0.449754
C	0.198807	1.23183	-2.169363
H	-0.068637	2.144151	-1.637069
H	1.284672	1.09966	-2.123639
H	-0.144608	1.283014	-3.205746
C	-0.189312	-1.200781	-2.135666
N	-0.037497	-2.21886	-2.699284
N	-0.421342	1.207773	0.709326
H	-1.246356	1.033855	1.263354
H	0.336405	1.473594	1.327055
H	2.937085	0.0	0.0
