15

C	-0.442967	0.037198	-1.446519
C	0.0	0.0	0.0
F	-1.808597	0.390377	-1.541273
H	1.099986	0.0	0.0
H	-0.335893	0.943641	0.444243
C	0.374457	1.04812	-2.224933
H	0.206163	2.037227	-1.791916
H	0.078444	1.062106	-3.277307
H	1.437761	0.804256	-2.115333
C	-0.339003	-1.300558	-2.06252
N	-0.269044	-2.358655	-2.564568
N	-0.564408	-1.15234	0.714002
H	-0.878913	-0.858781	1.627415
H	0.197714	-1.802421	0.868896
H	2.977094	0.0	0.0
