15

C	-0.573665	0.013801	-1.407636
C	0.0	0.0	0.0
F	-0.116038	-1.115487	-2.092778
H	1.098458	0.0	0.0
H	-0.350995	-0.925113	0.472814
C	-2.092461	-0.030331	-1.425796
H	-2.465009	-0.024681	-2.453077
H	-2.416846	-0.951987	-0.935025
H	-2.483573	0.829266	-0.882315
C	-0.123645	1.20456	-2.158838
N	0.146414	2.155514	-2.792117
N	-0.477436	1.198895	0.71315
H	-0.864376	0.933418	1.610095
H	0.349358	1.756322	0.909198
H	2.953861	0.0	0.0
