15

C	-0.453105	0.039407	-1.441099
C	0.0	0.0	0.0
F	-1.84403	0.297723	-1.509062
H	1.093522	0.0	0.0
H	-0.32301	0.951157	0.448541
C	0.278168	1.124648	-2.203458
H	-0.027696	1.141204	-3.252112
H	0.044922	2.089685	-1.747683
H	1.354814	0.948664	-2.110571
C	-0.26149	-1.267518	-2.097027
N	-0.110573	-2.275033	-2.678364
N	-0.5023	-1.176299	0.701133
H	0.266345	-1.567604	1.232228
H	-1.24573	-0.937429	1.339754
H	2.954505	0.0	0.0
