15

C	-0.58067	-0.008166	-1.405935
C	0.0	0.0	0.0
F	-0.086268	-1.118573	-2.096715
H	1.098477	0.0	0.0
H	-0.350362	-0.917604	0.487237
C	-2.096164	-0.102973	-1.415488
H	-2.477441	-0.098548	-2.439356
H	-2.384134	-1.04222	-0.936719
H	-2.513895	0.73373	-0.856762
C	-0.17187	1.200052	-2.15281
N	0.068413	2.167188	-2.773562
N	-0.498744	1.197842	0.70366
H	0.296152	1.826366	0.781986
H	-0.746503	0.946333	1.651537
H	2.966666	0.0	0.0
