15

C	-0.435476	-0.017211	-1.450299
C	0.0	0.0	0.0
F	-0.153871	1.239462	-2.009639
H	1.10096	0.0	0.0
H	-0.345722	-0.929238	0.467059
C	0.340954	-1.056425	-2.235223
H	0.08539	-2.060541	-1.888906
H	1.404496	-0.878686	-2.050423
H	0.110601	-0.97419	-3.299783
C	-1.896848	-0.204916	-1.59144
N	-3.043587	-0.414095	-1.733708
N	-0.61113	1.143081	0.689778
H	-0.124808	1.965858	0.348767
H	-0.351989	1.068248	1.66788
H	3.042722	0.0	0.0
