16

C	0.0	0.0	0.0
C	-0.41216	0.41745	-1.403023
F	1.393854	0.0	0.0
H	-0.064731	-0.395522	-2.06422
H	-0.276607	0.787558	0.711133
N	-0.473364	-1.30332	0.341956
H	-0.592195	-1.385332	1.34273
H	-1.379728	-1.467694	-0.077624
N	0.26167	1.690741	-1.682072
H	1.262803	1.541106	-1.689375
H	-0.015279	2.012184	-2.601413
C	-1.909587	0.605141	-1.553702
H	-2.30013	1.292003	-0.802831
H	-2.491576	-0.309967	-1.45168
H	-2.138268	1.016243	-2.543123
Br	-5.103359	0.0	0.0
