16

C	0.0	0.0	0.0
C	-0.346212	-0.088058	-1.494225
F	1.393016	0.0	0.0
H	0.330119	-0.866566	-1.867058
H	-0.293521	0.979415	0.406595
N	-0.471853	-1.125854	0.747009
H	-0.317464	-0.964803	1.735785
H	-1.477387	-1.198722	0.613819
N	0.005083	1.154041	-2.193397
H	-0.697266	1.852452	-1.972418
H	0.894442	1.489782	-1.840459
C	-1.77407	-0.473	-1.824512
H	-1.976164	-1.512678	-1.565762
H	-2.525916	0.127338	-1.310225
H	-1.919179	-0.361833	-2.901881
Br	-4.831095	0.0	0.0
