16

C	0.0	0.0	0.0
C	-0.432366	0.265303	-1.445838
F	1.414338	0.0	0.0
H	0.19071	1.10722	-1.775866
H	-0.302135	0.832562	0.641093
N	-0.52895	-1.198439	0.523306
H	-0.166098	-2.00965	0.044341
H	-0.384233	-1.286661	1.517823
N	-1.819716	0.643814	-1.623643
H	-2.025997	1.514934	-1.1495
H	-2.465425	-0.026775	-1.208415
C	-0.1221	-0.933708	-2.336325
H	-0.815698	-1.751278	-2.120136
H	-0.271136	-0.649706	-3.378795
H	0.906437	-1.281949	-2.201457
Br	-4.904616	0.0	0.0
