16

C	0.0	0.0	0.0
C	-0.372498	0.333926	-1.467351
F	1.383645	0.0	0.0
H	0.524336	0.073477	-2.045581
H	-0.339651	0.814137	0.648204
N	-0.468818	-1.234724	0.55803
H	-0.371612	-1.986434	-0.115977
H	-1.463161	-1.137124	0.746216
N	-0.528738	1.794971	-1.553373
H	-0.55328	2.062006	-2.531363
H	-1.446441	2.028557	-1.177525
C	-1.558641	-0.438175	-2.039894
H	-2.475988	-0.27067	-1.468199
H	-1.370002	-1.516321	-2.086407
H	-1.740422	-0.093944	-3.064294
Br	-4.515439	0.0	0.0
