16

C	0.0	0.0	0.0
C	-0.445532	0.188346	-1.447354
F	1.407507	0.0	0.0
H	-1.538349	0.192488	-1.43663
H	-0.282076	0.871451	0.605916
N	-0.472374	-1.249883	0.516855
H	-0.285743	-1.284998	1.514311
H	-1.491365	-1.220621	0.414894
N	0.004576	-0.909692	-2.310087
H	0.992764	-1.050007	-2.116202
H	-0.453016	-1.753429	-1.981233
C	0.059373	1.509687	-2.003317
H	-0.298519	2.349086	-1.400799
H	1.152604	1.533151	-2.016039
H	-0.301292	1.632923	-3.025455
Br	-3.799915	0.0	0.0
