16

C	0.0	0.0	0.0
C	-0.317701	-0.217406	-1.504145
F	1.395015	0.0	0.0
H	0.435895	0.393135	-2.018435
H	-0.321676	1.004805	0.294212
N	-0.516946	-0.919208	0.95958
H	-1.492074	-0.680066	1.128827
H	-0.498201	-1.862908	0.593448
N	-1.615753	0.214621	-1.979504
H	-2.370815	-0.281531	-1.510348
H	-1.774056	1.181309	-1.716542
C	-0.101332	-1.671046	-1.90258
H	-0.913398	-2.294743	-1.518308
H	-0.121492	-1.752307	-2.990807
H	0.851966	-2.054293	-1.530183
Br	-4.295914	0.0	0.0
