16

C	0.0	0.0	0.0
C	-0.323272	-0.096569	-1.513168
F	1.408397	0.0	0.0
H	0.428929	0.54807	-1.984915
H	-0.31168	0.980637	0.373684
N	-0.515702	-0.989892	0.883981
H	-0.511752	-1.900826	0.443241
H	-1.482519	-0.756426	1.097107
N	-1.623447	0.377649	-1.945083
H	-1.732136	1.357084	-1.706264
H	-2.38372	-0.086168	-1.449074
C	-0.113973	-1.516048	-2.025605
H	0.839253	-1.929621	-1.684656
H	-0.928735	-2.166553	-1.694293
H	-0.13207	-1.509706	-3.116601
Br	-4.346328	0.0	0.0
