13
Coordinates from ORCA-job run
  C   0.57209122463154     -0.68227615251115     -0.58230794166300
  C   -0.47152323537520      0.35457162488233     -0.13481371033298
  F   1.82975467211716     -0.23727879606649     -0.22869746232575
  H   -1.45968181549020      0.02917734284470     -0.46221362674052
  H   0.53556855368873     -0.74017284099006     -1.67508795342826
  C   0.34585144513499     -2.01907174528275     -0.02195303734456
  N   0.15694084195811     -3.09999580979042      0.39502390237099
  N   -0.20749180154294      1.68825979088970     -0.55790549270671
  H   0.76706164657433      1.93019727320553     -0.44225221540489
  H   -0.51005178103555      1.84918814914203     -1.50758396509442
  N   -0.51670431213085      0.32633622389421      1.37516956627417
  O   0.31361981066655      1.01210415677250      1.95943141703599
  O   -1.35643524919668     -0.41103921699012      1.88519051935994
