13
Coordinates from ORCA-job run
  C   0.06356123931381     -1.03889943990000     -0.63077293633326
  C   -0.43527291640029      0.38020463454811     -0.34510972026618
  F   0.34068296186987     -1.14686274441406     -1.97213808170963
  H   -1.29433120109184      0.57018889113792     -0.99159330810739
  H   -0.71290160755954     -1.76326386608457     -0.37913007107957
  C   1.27773800763280     -1.31292202342601      0.15111933920508
  N   2.24105205839358     -1.49236449495299      0.79747185955249
  N   0.56628625038633      1.34783954504395     -0.52380083537257
  H   0.19721159959386      2.28774334057336     -0.50928482156431
  H   1.30817559705612      1.26730879606006      0.15987428334319
  N   -1.03870506881179      0.32088056172774      1.07811387181895
  O   -0.50481418795925      0.99859613258845      1.94862762352497
  O   -2.01068273242366     -0.41644933290197      1.21762279698825
