13
Coordinates from ORCA-job run
  C   0.33293902326564     -1.09438698658168      0.06502996884931
  C   -0.35830896968578      0.24405661863993     -0.13834978646997
  F   -0.58546420349602     -2.10083080706929     -0.13304946200422
  H   -0.97055143244965      0.19981340249431     -1.04822072323355
  H   0.71686989340166     -1.15944341941444      1.08381993171515
  C   1.42688790940587     -1.22828800449290     -0.90580511381930
  N   2.29789453744990     -1.28695658434613     -1.69049447876932
  N   0.57945168148473      1.33242609908061     -0.03894821120031
  H   0.08464369914915      2.21048330075317     -0.14557182128819
  H   1.27102050161559      1.27196360129065     -0.77720036417614
  N   -1.35747019516516      0.46175967590948      0.97520631074838
  O   -2.17470191663813      1.35103800347853      0.75381955899880
  O   -1.26421052833781     -0.20263489974223      1.99976419064936
