13
Coordinates from ORCA-job run
  C   0.05376471903739     -0.94898694821138     -0.63006225507571
  C   -0.51561425698658      0.42657392199120     -0.23412823361135
  F   0.40597844401695     -0.86396488211670     -1.96423367112670
  H   -1.39322226238320      0.60211584083344     -0.85897092196275
  H   -0.70182114964890     -1.73018598834302     -0.52066117054257
  C   1.24386435052280     -1.26667226289374      0.16642436775898
  N   2.19650147146799     -1.47942476338086      0.81860100580137
  N   0.36712390676658      1.53604578328961     -0.30135781455920
  H   1.20427141610518      1.39764166691663      0.25022642388056
  H   0.60631001339894      1.74302255546134     -1.26126437841347
  N   -1.03485571869989      0.25783047383275      1.17218896525823
  O   -0.37981250305005      0.74818560168241      2.08365527187101
  O   -2.05348843054719     -0.42118099906169      1.28158241072158
