13
Coordinates from ORCA-job run
  C   0.31554650989205     -1.01578440210710      0.05175099089403
  C   -0.39573973376734      0.31601315379635     -0.19172403225460
  F   -0.59829936173020     -2.04527294403065     -0.00840997818270
  H   -0.93342800106053      0.28413368444936     -1.13919056222046
  H   0.76471774671429     -1.01220996498684      1.04910824706689
  C   1.35037892478411     -1.19816619123938     -0.97266386695531
  N   2.17265782187196     -1.30225631508959     -1.80384230844398
  N   0.42960345578962      1.47634057112815     -0.11094761457892
  H   0.91255801477758      1.66396333192954     -0.97714667964520
  H   1.07824486763610      1.44088289025815      0.66385169550578
  N   -1.45110135283989      0.42934532404511      0.87964319953482
  O   -1.02649070647929      0.42653554772716      2.03274463102120
  O   -2.61864818558847      0.53647531411972      0.52782627825845
