13
Coordinates from ORCA-job run
  C   0.49358006643768     -0.71358509406614     -0.61507133637249
  C   -0.47233205775878      0.36668838750996     -0.10057386854943
  F   1.79141891153259     -0.29839396492590     -0.39673216428301
  H   -1.49603243578483      0.06555896776987     -0.32619613909642
  H   0.35023698791912     -0.79991987617969     -1.69709543410338
  C   0.28511873199852     -2.02737164839630      0.00359351859070
  N   0.11048670821439     -3.09113742523608      0.46823748210844
  N   -0.20869082418071      1.68042197890397     -0.58173016136016
  H   -0.59522461878985      1.82995010355962     -1.50226649816119
  H   0.77930055387113      1.89270393087787     -0.56428768600486
  N   -0.37700189835027      0.37497561740423      1.40736934724920
  O   0.52625803186790      1.04482358384232      1.89358581129882
  O   -1.18711815697690     -0.32271456106372      2.01216712868379
