13
Coordinates from ORCA-job run
  C   0.71906374318662     -0.63432190389339     -0.46186726492469
  C   -0.45516592166508      0.33064815230770     -0.22820581096011
  F   1.84835133166850     -0.12589423519179      0.14706428430439
  H   -1.33191550933666     -0.04068592578938     -0.76018959447365
  H   0.91061527802908     -0.67005091939041     -1.53922531044932
  C   0.46585825980253     -1.99327072747927      0.02934367432455
  N   0.27955391072603     -3.08732728529316      0.41190883136919
  N   -0.18845577148123      1.68707614997117     -0.56834291837611
  H   0.72712080465707      1.97831499466595     -0.25480051110486
  H   -0.30456248841835      1.85822737786696     -1.55646810694352
  N   -0.81273474484090      0.25943172711390      1.23801376341055
  O   -0.16170301259890      0.97112523637153      1.99346648605790
  O   -1.69702587972871     -0.53427264125982      1.54930247776567
