13
Coordinates from ORCA-job run
  C   0.18378789050851     -1.00418397180580     -0.58593276421824
  C   -0.49471145224537      0.30865691112355     -0.20746055777805
  F   0.52437451270158     -0.89569298258052     -1.92729029486851
  H   -1.43060649369666      0.38402044793396     -0.78307359095032
  H   -0.50132026714463     -1.84374336706729     -0.47571675088893
  C   1.39624850819711     -1.23910110130983      0.20587329399521
  N   2.37233840037666     -1.45721655254945      0.81908701453511
  N   0.42623877416096      1.39293891325194     -0.34201000073434
  H   -0.02228166377941      2.27638102718168     -0.14064347088957
  H   0.80150963626839      1.40723303686402     -1.28161919045352
  N   -0.95180028665510      0.23903106612991      1.22962148162072
  O   -1.20465715613842     -0.87526387564779      1.68128364283017
  O   -1.09912040255363      1.30794044847563      1.80688118780027
