13
Coordinates from ORCA-job run
  C   0.25278987500831     -1.06920149720216     -0.11958873975340
  C   -0.27283961100122      0.36019076405762     -0.18106844845419
  F   -0.81367300955621     -1.94224643017314     -0.12030703773064
  H   -0.84354445548132      0.51993740677206     -1.09590737599457
  H   0.80892527685058     -1.21365106123610      0.81153918493764
  C   1.11564177766304     -1.33612682722427     -1.27410179459348
  N   1.79343682795690     -1.57087124990795     -2.20267298163040
  N   0.80398795656367      1.27303329555852     -0.06425751614805
  H   1.20812745328694      1.24919739963402      0.86375293269587
  H   0.53574924859024      2.21833184090174     -0.29952975417950
  N   -1.29223658577166      0.47115919355695      0.94877318862200
  O   -2.46076482890159      0.68794009063708      0.64943140067022
  O   -0.83459992520768      0.35230707462561      2.08393694155849
