13
Coordinates from ORCA-job run
  C   0.63297930424926     -0.67089652067459     -0.53495080228428
  C   -0.45742636497980      0.35297523775180     -0.17755012459510
  F   1.84818233812580     -0.21945187307216     -0.06167806521652
  H   -1.40559032698272      0.02723927684000     -0.60696750398369
  H   0.69912114739538     -0.71832683904936     -1.62677730448007
  C   0.36628927635623     -2.01408157594800     -0.00907019490128
  N   0.13681918854889     -3.09333121204487      0.39166231734449
  N   -0.16069580018556      1.69379700835580     -0.55305168468522
  H   0.79843210454026      1.93634266728074     -0.34652166330245
  H   -0.37866955778628      1.87138614258224     -1.52263566331498
  N   -0.65318143491218      0.30092889660597      1.31966605037537
  O   -1.54137672321739     -0.44057248482994      1.73200612300376
  O   0.11811684884812      0.97299127620238      1.99386851603995
