13
Coordinates from ORCA-job run
  C   0.45608855095635     -0.96263261330345      0.00871236152175
  C   -0.46813585140557      0.25080070268740     -0.10381453233449
  F   -0.29702686206967     -2.10118306483625      0.19476859147839
  H   -1.19703823181665      0.09222469604541     -0.89838778444981
  H   1.11431216741429     -0.84002011213884      0.87366201717095
  C   1.24664131145160     -1.07533404569952     -1.22254315601081
  N   1.86520110593154     -1.12556866061960     -2.21888388452404
  N   0.18610099954833      1.50896474663558     -0.25381624115071
  H   0.42712025527793      1.70312308588673     -1.21451374172560
  H   0.99349322086966      1.60409669220409      0.34726428471780
  N   -1.25900237869783      0.29530851515583      1.17975401137198
  O   -0.58845747043186      0.41567055914285      2.20235516364363
  O   -2.47929681702813      0.23354949883977      1.10544291029096
