13
Coordinates from ORCA-job run
  C   0.67483048994189     -0.76041914314721     -0.49436506724469
  C   -0.41557893707226      0.28906117763203     -0.29654250275554
  F   1.84625608715463     -0.27777631114188      0.06007392119868
  H   -1.36587878204144     -0.09124106790967     -0.67529513356393
  H   0.83265761567283     -0.87024102181320     -1.57047879399328
  C   0.36068025113526     -2.06879164823521      0.09008151908593
  N   0.13894991510897     -3.14406622308702      0.50448072878006
  N   -0.03124611911096      1.48683231601897     -0.94079711887008
  H   -0.76316788323876      2.18282602192053     -0.89981690435185
  H   0.80524184003789      1.86509965784660     -0.51479733913743
  N   -0.64147646668894      0.43373567558812      1.21836042558646
  O   -1.35338740742841     -0.41803748877195      1.74166013311355
  O   -0.08688060347070      1.37301805509988      1.77843613215210
