13
Coordinates from ORCA-job run
  C   0.61589638796230     -0.76845343216484     -0.56482805655651
  C   -0.41856721607510      0.31251784553426     -0.26050046089739
  F   1.83989295014041     -0.34727741651719     -0.07826029480080
  H   -1.40469221968654     -0.01888392938427     -0.59031989076772
  H   0.69632319715854     -0.84764677347070     -1.65213844840678
  C   0.28814276137802     -2.08142068175181      0.00081394751825
  N   0.00681718696851     -3.14247786750066      0.41580972801683
  N   -0.02813464161236      1.51729524608968     -0.88827614822577
  H   0.84682483761972      1.84951243329667     -0.50296516535586
  H   -0.72863268268968      2.23791479663148     -0.77905957596602
  N   -0.54331689501942      0.41173775170062      1.26883563661587
  O   0.10445254536642      1.29191572928637      1.82512414274246
  O   -1.27700621151082     -0.41273370174963      1.80576458608345
