13
Coordinates from ORCA-job run
  C   0.15450245209854     -1.13149127891158     -0.08609055940800
  C   -0.30648552460250      0.31673179762843     -0.11411954086844
  F   -0.89593169058970     -1.93664526602174     -0.46650402572927
  H   -0.86109025053615      0.50044860185411     -1.04328690644067
  H   0.45986565187471     -1.40138682552720      0.92556219184711
  C   1.27141506932794     -1.30446447908830     -1.02369446212369
  N   2.16947987871094     -1.39331121952097     -1.77429382241693
  N   0.78056797643280      1.21313822773216      0.18215932606198
  H   0.43616164575632      2.16629653011173      0.18823503028521
  H   1.49979125837149      1.14489028483834     -0.52844496145950
  N   -1.32713733452551      0.53412829310715      0.98015491832984
  O   -1.39915551527261     -0.27306352896660      1.89840794364578
  O   -1.98398361704628      1.56472886276448      0.86091486827658
