13
Coordinates from ORCA-job run
  C   0.38373302692719     -1.06810838885637      0.15098010874107
  C   -0.37337368149815      0.21599744871812     -0.14583149853257
  F   -0.49667526160160     -2.12491815092824      0.08423154704085
  H   -1.01491513718127      0.06202842093190     -1.02293963725653
  H   0.80740995428243     -1.02258186008293      1.15497409150424
  C   1.44551854659772     -1.24825073497754     -0.84748231266535
  N   2.28992711142978     -1.34367303355409     -1.65713260132204
  N   0.51684357097446      1.34694625207363     -0.18241139434193
  H   1.19025329605469      1.24464505532861     -0.93267760966514
  H   -0.01892770673538      2.18960153735373     -0.35561299966665
  N   -1.34139980529808      0.49335078134321      0.98212313289354
  O   -2.21163023870582      1.31596486235464      0.71041045001296
  O   -1.17476367524597     -0.06100218970468      2.06136872325755
