13
Coordinates from ORCA-job run
  C   0.16974351961698     -1.06214184028309     -0.25212316470575
  C   -0.16958052095075      0.42182903080322     -0.17452886171338
  F   -0.92970828659669     -1.75230181351202     -0.71536522476045
  H   -0.42236339193822      0.80917176155432     -1.16154114324719
  H   0.40768730536536     -1.43521116212099      0.74863232457233
  C   1.30563064434659     -1.27104777272039     -1.15472965399671
  N   2.20212269034237     -1.45640174806062     -1.88868086545700
  N   0.90832839169256      1.13073660202109      0.41018062048670
  H   0.81668209144389      2.13101210811691      0.30102764800136
  H   1.01503098382515      0.89790699435243      1.38971312004118
  N   -1.46331158598749      0.50479194417799      0.62950381193961
  O   -2.46193525232780      0.94051646271359      0.06834617646063
  O   -1.37932658883195      0.13913943295756      1.80056521237866
