13
Coordinates from ORCA-job run
  C   0.27404244279627     -1.10133462782290     -0.15613491477242
  C   -0.32488830051769      0.29525524353936     -0.11987501370271
  F   -0.64985819207675     -1.96457703999253     -0.70142401086014
  H   -0.80626749517380      0.50654756696883     -1.08339091758939
  H   0.50964168059220     -1.42792306054680      0.85750108475494
  C   1.48538495089341     -1.08882060613898     -0.98651837330659
  N   2.45370044586443     -1.02931395144973     -1.64720830517054
  N   0.63552932153905      1.25908605372912      0.35161721928276
  H   0.19820453141126      2.17227427509162      0.39673118169915
  H   1.41974126422172      1.31920699744272     -0.28736744230865
  N   -1.45871198288919      0.32423446681533      0.87975362366499
  O   -1.53705364261679     -0.56345879751818      1.71986099978269
  O   -2.19846502404413      1.29882347988213      0.77645486852591
