13
Coordinates from ORCA-job run
  C   0.32229560981618     -1.05012943011934     -0.11942409091734
  C   -0.24351359572084      0.36197644950061     -0.21590300024560
  F   -0.67738616108161     -1.95716049674514     -0.39785996897530
  H   -0.60860257539056      0.56133277018313     -1.22342499566831
  H   0.67254292337850     -1.23345765568993      0.90080708787030
  C   1.42367160460434     -1.21463900117543     -1.07267611374392
  N   2.29462252261901     -1.36607650211535     -1.84423925478100
  N   0.73935457789260      1.30016270368527      0.18450708285499
  H   0.48812480143578      2.24903667928607     -0.05423248664752
  H   0.93127582259135      1.23215870757328      1.17621501251516
  N   -1.48747290146820      0.36656742519414      0.66727709132071
  O   -2.57214986995771      0.56190734468603      0.13125399230197
  O   -1.28176275871884      0.19032100573668      1.86669964411586
