13
Coordinates from ORCA-job run
  C   0.45988918736250     -1.00077697093417      0.08134411512665
  C   -0.35745193847255      0.25001650524155     -0.21964830858396
  F   -0.39598103083451     -2.03273909353230      0.39913937004938
  H   -1.02088173257686      0.07916238734107     -1.06766497122882
  H   1.10465096315654     -0.81657812250007      0.94576084269194
  C   1.26915549208305     -1.36493491540484     -1.08513686843543
  N   1.91318993814823     -1.67873297350141     -2.01406670222031
  N   0.50890472627709      1.34877957784551     -0.44023860147900
  H   0.02749982958389      2.14658846650253     -0.83131445268616
  H   0.98640069116085      1.61761471607032      0.41110236355646
  N   -1.28286022865923      0.43238764817816      0.97964266748147
  O   -0.72069529819584      0.67551071132021      2.04614647795937
  O   -2.49082059903317      0.34270206337344      0.79293406776840
