13
Coordinates from ORCA-job run
  C   0.20619391949895     -1.11113609474767     -0.19062181361364
  C   -0.34160941639656      0.29811613469385     -0.03383192399363
  F   -0.84409527229414     -1.97049192563062     -0.42463414609674
  H   -1.07228611306644      0.49187077300011     -0.82964115090828
  H   0.71417710474261     -1.41288937060006      0.72614479898865
  C   1.13359890361117     -1.14717382314871     -1.32887234283273
  N   1.87589242210763     -1.12581804811096     -2.23785359108500
  N   0.72458701486980      1.25413061479033      0.11686789573323
  H   1.29441040394687      1.28394398355750     -0.72056501319435
  H   0.32936718368638      2.17640763212750      0.25908327692067
  N   -1.14775797163649      0.37893637151262      1.24267410729609
  O   -0.99626897971648     -0.48212173704779      2.10028966382146
  O   -1.87520919935331      1.36522548960392      1.31896023896427
