13
Coordinates from ORCA-job run
  C   0.00165942376845     -0.95689420547523     -0.68854991290311
  C   -0.42511730516948      0.41484200351121     -0.17450397330367
  F   0.37343536388755     -0.77891234515294     -2.01438571326048
  H   -1.32423564428074      0.72063767555793     -0.73206056113243
  H   -0.82874250719057     -1.66084797164456     -0.66067044956924
  C   1.13799381924244     -1.49179735092128      0.06874271802464
  N   2.03493753795273     -1.95512786726180      0.66639482522603
  N   0.68393982741997      1.31572088510430     -0.20662507566497
  H   1.05051375581255      1.37242647865369     -1.14808996314589
  H   0.41120507448366      2.23642365607029      0.10928696728228
  N   -0.90172763068455      0.28607294116041      1.25167298836496
  O   -0.84025170016794      1.29448527705301      1.94192342019165
  O   -1.37461001507406     -0.79802917665502      1.58486472989023
