13
Coordinates from ORCA-job run
  C   0.21526345475905     -1.07538618608682     -0.52771629114337
  C   -0.49864983836476      0.26907993207108     -0.36217442738141
  F   0.47171663362084     -1.27607609828090     -1.86259404873197
  H   -1.39154437013678      0.25330628750205     -0.99024545962242
  H   -0.42691805929794     -1.88392121721484     -0.17408297911274
  C   1.47753318297371     -1.07138237445874      0.22575876564423
  N   2.47376230685450     -1.02849846468654      0.84494235103824
  N   0.32978181079442      1.35884342030636     -0.67399460308878
  H   -0.18504591400013      2.22509949830738     -0.73928555614543
  H   1.08924472943852      1.46804120368472     -0.01403927941920
  N   -1.05176231821645      0.26203825373646      1.08220179213306
  O   -1.89104296465797     -0.59922342742555      1.33054547758762
  O   -0.61133865376701      1.09907917254534      1.86168425824217
