13
Coordinates from ORCA-job run
  C   0.29643803428524     -1.02070118962242     -0.07483130837488
  C   -0.37210307617443      0.35127890185582     -0.17592896129622
  F   -0.62094352501294     -2.00435680998472     -0.37283613354478
  H   -0.82071537241675      0.47548665007340     -1.16141033202112
  H   0.65130848494519     -1.17898901331757      0.94764176368818
  C   1.41928558811461     -1.07414059275080     -1.01824905235280
  N   2.31336146827368     -1.07379292909232     -1.77877716078116
  N   0.45670793286114      1.46420968476787      0.15257390312000
  H   1.01964395871339      1.76656003622438     -0.62868181874288
  H   1.03026857873434      1.29728750578355      0.96827593956582
  N   -1.52055377850852      0.33073512662975      0.80142747637355
  O   -2.64887574646002      0.52173710532840      0.36680925204259
  O   -1.20482254735493      0.14268552410465      1.97398643232370
