13
Coordinates from ORCA-job run
  C   0.57749033798249     -0.79792065838778     -0.55493870685245
  C   -0.43377996097552      0.30436776849391     -0.25186491601056
  F   1.82624703147778     -0.36345399768908     -0.14931267793632
  H   -1.43795711482367     -0.03535375795551     -0.51151130157266
  H   0.60368655470640     -0.92943805943059     -1.63982055496647
  C   0.27516004976927     -2.08200759336819      0.08661438512879
  N   0.05510228484848     -3.13974072738195      0.54470915382800
  N   -0.07300271184885      1.47409759926934     -0.95836430424438
  H   -0.76289888149199      2.20432113980311     -0.84566993833983
  H   0.82365363034792      1.81811197083284     -0.63909843020800
  N   -0.47560215658582      0.47929826394482      1.27590704420945
  O   0.18202236694428      1.39867552331081      1.75106101715804
  O   -1.16012143035080     -0.33095747144173      1.89328922980640
