13
Coordinates from ORCA-job run
  C   0.61946583707770     -0.67312978508245     -0.54330978557107
  C   -0.47141915584353      0.34260017487036     -0.16532753941782
  F   1.84494317055419     -0.19385913781698     -0.12736435900963
  H   -1.43153934294205     -0.00790972635990     -0.54594279799389
  H   0.64409944332397     -0.74353547114956     -1.63564296619172
  C   0.39503403732232     -2.00904586670197      0.01974696989496
  N   0.21049831959567     -3.08959649206136      0.43983086017973
  N   -0.21314458759336      1.67856899707204     -0.58414053599611
  H   0.74811170139294      1.94273636298606     -0.41776425981556
  H   -0.46770480871050      1.82711891126382     -1.54973018497194
  N   -0.60285657469449      0.32361282866226      1.33980902205700
  O   -1.45384171220708     -0.42908918405443      1.80682093953489
  O   0.17935367272420      1.02952838837210      1.96501463730117
