13
Coordinates from ORCA-job run
  C   0.03476007320898     -0.94791714320988     -0.63229560637106
  C   -0.51175016705824      0.43347457458210     -0.22565823917818
  F   0.37050251305168     -0.86422066155971     -1.97082568823959
  H   -1.39422047684293      0.62233042605464     -0.83964453690362
  H   -0.72908596949269     -1.71989113774068     -0.51459843728408
  C   1.23128726325779     -1.28378980381895      0.14699972449691
  N   2.19150100676335     -1.51266985553077      0.78245554199895
  N   0.38359967531696      1.53167889212544     -0.29897081121957
  H   0.60259734181599      1.75083942742983     -1.26072083496475
  H   1.23141870929258      1.37727649214666      0.23138125082330
  N   -1.01803955845158      0.26636290058347      1.18646380258886
  O   -2.04486874625223     -0.39864788530008      1.30437282542818
  O   -0.34670166460965      0.74517377423792      2.09204100882465
