13
Coordinates from ORCA-job run
  C   0.09653649288852     -1.09513521921776     -0.32349049657801
  C   -0.26146196895387      0.36264879390223     -0.08456316713614
  F   -0.91582909704158     -1.68645634109477     -1.04563416454576
  H   -0.62930390505349      0.80214141392696     -1.02065940255706
  H   0.19857794435960     -1.61093509011288      0.63207218724091
  C   1.35103572475984     -1.16865451211963     -1.08356613878746
  N   2.36278493293563     -1.17982720852284     -1.67844693601801
  N   0.80975823512699      1.05688255616648      0.58218101917979
  H   1.63620874381439      1.07830193490676     -0.00394642116147
  H   0.52791794120085      2.01421246836044      0.75932060542445
  N   -1.44415056223811      0.43704166961982      0.85421583827321
  O   -2.00073290181317      1.53124481334824      0.87972333465450
  O   -1.73034157998557     -0.54146527916305      1.53279374201106
