13
Coordinates from ORCA-job run
  C   0.61268734877335     -0.69968554096490     -0.51533678641811
  C   -0.44784516769513      0.36445182384020     -0.18623695751321
  F   1.83730184981767     -0.27665631576291     -0.04013184123532
  H   -1.40343354678785      0.05814598841556     -0.61358872493705
  H   0.68586819977013     -0.77003169221472     -1.60548797971482
  C   0.30169791019246     -2.02465991684548      0.03205454797835
  N   0.05121686314485     -3.09750739475429      0.43732873367880
  N   -0.10934756269686      1.68764449751835     -0.58806347655640
  H   0.85395771881981      1.90708711912394     -0.37433364765141
  H   -0.30820062509425      1.84766770664098     -1.56491697915116
  N   -0.65074409325892      0.34947451648118      1.31064302470050
  O   0.12912223857363      1.02207855609810      1.97435615481855
  O   -1.55328113355890     -0.36800934757602      1.73471393200130
