13
Coordinates from ORCA-job run
  C   0.24748987698973     -1.06036599246694     -0.54343855221434
  C   -0.50719084989591      0.25889930104465     -0.35792131464169
  F   0.50711208172997     -1.23483647317768     -1.88114964963518
  H   -1.39987584497659      0.22481866667143     -0.98557384858986
  H   -0.36908442402512     -1.89256710908304     -0.19950985671416
  C   1.51036342011638     -1.02872484603120      0.20823370285535
  N   2.50578251161527     -0.96506604262052      0.82699495349337
  N   0.28669574821827      1.37830554256799     -0.65439369175832
  H   -0.25496321960176      2.22919343394253     -0.70409987175348
  H   1.04440709755678      1.50050051325827      0.00536839617061
  N   -1.05821972430762      0.21371973043987      1.08667436965901
  O   -0.64410966317759      1.05336880693874      1.87772968674045
  O   -1.86940701024182     -0.67724553148412      1.32308567638822
