13
Coordinates from ORCA-job run
  C   0.54611413942407     -0.81762395482593     -0.55925803501375
  C   -0.42274682601803      0.32070795462734     -0.25080888323686
  F   1.81152223983231     -0.43004789489422     -0.15732140867921
  H   -1.43901285241341      0.01932481760269     -0.51076630960098
  H   0.56356420524490     -0.94817579995497     -1.64444329572262
  C   0.19956083615761     -2.09073212742802      0.08197717819280
  N   -0.05645395803583     -3.14000753725756      0.54104926462557
  N   -0.01904961008305      1.47839536662173     -0.95393443879286
  H   0.89011606762608      1.78739363354782     -0.63421289025985
  H   -0.68095397490296      2.23357345400138     -0.83820647656773
  N   -0.45680421774550      0.49240646981283      1.27737659519548
  O   -1.17056839780852     -0.29346879279905      1.89301673421839
  O   0.23371234872234      1.38625441094594      1.75453196564162
