13
Coordinates from ORCA-job run
  C   0.09030872345829     -1.01622783296493     -0.66381865901245
  C   -0.42761056504221      0.38845360118545     -0.34309882502906
  F   0.40008287354537     -1.07655241283959     -2.00088601357820
  H   -1.26813132944005      0.59543089595121     -1.00839462344571
  H   -0.68521140909734     -1.75508562052592     -0.45513096063995
  C   1.28796932887858     -1.30634559610219      0.13772431035266
  N   2.23661419693293     -1.50041908859491      0.80109445686551
  N   0.57110292128271      1.36867851377068     -0.45744593969698
  H   1.29293669687202      1.26867897047674      0.24490866950620
  H   0.19361228434261      2.30470047590104     -0.41945943885860
  N   -1.07391066294160      0.27531496994826      1.05776734336843
  O   -0.57076600919451      0.92356242896503      1.96805967918222
  O   -2.04599704959682     -0.47018930517088      1.14068000098593
