13
Coordinates from ORCA-job run
  C   0.07243521151260     -0.93236796961713     -0.65259273324945
  C   -0.51279610241167      0.42943761371488     -0.23256413631480
  F   0.44325864727664     -0.81254813738943     -1.97916665742683
  H   -1.37410380212974      0.61965969307519     -0.87532445485955
  H   -0.67860289176229     -1.72180046149409     -0.57340607189212
  C   1.25439059882647     -1.25944629628349      0.15236154974857
  N   2.20329799069952     -1.47734456119057      0.80814321653205
  N   0.36630255051142      1.54364534558579     -0.24440087376001
  H   1.19210372072382      1.39045819502227      0.32014710129723
  H   0.62494501331808      1.78424255424510     -1.19118136527420
  N   -1.06759540753161      0.21913890355564      1.15398578151112
  O   -0.42180631959777      0.66155811660771      2.09663115615766
  O   -2.09982920943546     -0.44463299583187      1.21736748753032
