15

C	-0.412994	0.050809	-1.456436
C	0.0	0.0	0.0
Cl	-2.262126	0.665843	-1.516903
H	1.094256	0.0	0.0
H	-0.318001	0.913787	0.506673
C	0.386379	1.10431	-2.184924
H	1.443535	0.857484	-2.030037
H	0.13498	1.119948	-3.248834
H	0.189348	2.090881	-1.764918
N	-0.306514	-1.200345	-2.077286
H	-0.592251	-1.169397	-3.045803
H	-0.807206	-1.926614	-1.582334
C	-0.536174	-1.153534	0.696561
N	-0.947585	-2.10835	1.245304
H	2.774873	0.0	0.0
