15

C	-0.357213	-0.222922	-1.486576
C	0.0	0.0	0.0
Cl	-0.164706	-2.013737	-1.770228
H	1.092226	0.0	0.0
H	-0.391492	-0.778869	0.656502
C	-1.781782	0.133041	-1.86136
H	-2.492693	-0.414275	-1.240787
H	-1.945531	1.203607	-1.707988
H	-1.951136	-0.110945	-2.911714
N	0.572789	0.449489	-2.362866
H	1.511065	0.328286	-1.96663
H	0.364249	1.441286	-2.331652
C	-0.46042	1.305728	0.443025
N	-0.830793	2.371124	0.773397
H	2.810725	0.0	0.0
