14

C	0.0	0.0	0.0
C	-0.575625	-0.060667	-1.396833
F	1.363201	0.0	0.0
H	-1.762607	0.026487	-1.04801
H	-0.382407	0.948621	0.424749
C	-0.449492	-1.123592	0.835797
N	-0.53705	-2.066453	1.532797
N	-0.278741	-1.295943	-2.135852
O	0.518449	-2.105911	-1.667528
O	-0.886383	-1.449036	-3.202669
N	-0.025327	1.069877	-2.145541
O	0.731281	0.873558	-3.101947
O	-0.341577	2.198988	-1.742031
H	-2.6339	0.0	0.0
