14

C	0.0	0.0	0.0
C	-0.386893	-0.030583	-1.49375
Cl	1.797299	0.0	0.0
H	0.108048	0.819961	-1.975061
H	-0.301182	0.952902	0.440887
H	0.067956	-0.9321	-1.920701
C	-0.564727	-1.149778	0.800012
H	-0.207526	-1.129974	1.831447
H	-1.656118	-1.064279	0.806198
H	-0.278027	-2.104461	0.349513
N	-1.786921	-0.006586	-1.839649
H	-2.270606	0.785687	-1.433885
H	-2.292554	-0.79812	-1.463202
Cl	-4.461437	0.0	0.0
