14

C	0.0	0.0	0.0
C	-0.522887	-0.150677	-1.411237
Cl	1.803256	0.0	0.0
H	-1.612449	-0.11729	-1.312096
H	-0.283715	0.991138	0.354773
H	-0.239044	-1.145512	-1.788905
C	-0.522329	-1.074973	0.925803
H	-0.154177	-0.928602	1.943474
H	-0.210667	-2.065271	0.582829
H	-1.614489	-1.010617	0.920987
N	-0.090494	0.9543	-2.265253
H	0.851821	0.78599	-2.595272
H	-0.700234	1.004995	-3.07116
Cl	-3.912491	0.0	0.0
