14

C	0.0	0.0	0.0
C	-0.571484	-0.589043	-1.277385
Cl	1.794421	0.0	0.0
H	-1.606903	-0.232095	-1.31401
H	-0.278175	1.055924	0.028948
H	-0.020849	-0.184003	-2.132831
C	-0.509051	-0.691156	1.247136
H	-1.602333	-0.656481	1.229883
H	-0.149243	-0.182623	2.14405
H	-0.163946	-1.726083	1.266218
N	-0.49024	-2.054291	-1.288426
H	-0.520284	-2.37092	-2.25008
H	-1.339273	-2.400185	-0.852745
Cl	-3.89707	0.0	0.0
