14

C	0.0	0.0	0.0
C	-0.480979	0.570018	-1.332647
Cl	1.800396	0.0	0.0
H	-1.566443	0.449619	-1.352306
H	-0.299006	0.662717	0.813321
H	-0.051117	-0.042551	-2.134199
C	-0.491836	-1.409392	0.243006
H	-0.179235	-2.064062	-0.574274
H	-0.087571	-1.808206	1.174997
H	-1.582453	-1.386159	0.298475
N	-0.164896	1.968943	-1.593307
H	0.814911	2.142326	-1.396292
H	-0.717465	2.550703	-0.973123
Cl	-3.739627	0.0	0.0
