15

C	-0.501554	-0.075213	-1.429157
C	0.0	0.0	0.0
Cl	0.246506	1.213337	-2.395432
H	1.09005	0.0	0.0
H	-0.331328	-0.892467	0.536593
N	-0.08921	-1.425467	-2.038075
O	0.130465	-2.342769	-1.257469
O	-0.12239	-1.527617	-3.259828
C	-2.008372	-0.013594	-1.607781
H	-2.469269	-0.842106	-1.060635
H	-2.376553	0.928356	-1.199309
H	-2.268315	-0.077902	-2.665222
C	-0.534812	1.175877	0.652798
N	-0.967501	2.126495	1.193058
F	2.520558	0.0	0.0
