15

C	-0.563448	-0.01375	-1.404822
C	0.0	0.0	0.0
Cl	0.170899	1.335808	-2.315419
H	1.090041	0.0	0.0
H	-0.294729	0.958972	0.441305
N	-0.138496	-1.291893	-2.140825
O	0.68373	-2.020956	-1.606165
O	-0.668667	-1.489049	-3.23374
C	-2.073197	0.087378	-1.503484
H	-2.394672	0.994443	-0.98764
H	-2.525602	-0.777705	-1.011204
H	-2.396773	0.123695	-2.542427
C	-0.57174	-1.068567	0.795544
N	-1.047802	-1.936051	1.432522
F	2.524554	0.0	0.0
