15

C	-0.559189	-0.026058	-1.404474
C	0.0	0.0	0.0
Cl	0.15988	1.32676	-2.319615
H	1.090091	0.0	0.0
H	-0.288848	0.964887	0.43396
N	-0.128615	-1.307937	-2.128999
O	-0.605812	-1.48291	-3.25116
O	0.630568	-2.07178	-1.546472
C	-2.069728	0.057613	-1.50759
H	-2.385227	0.080102	-2.549237
H	-2.405137	0.96646	-1.004597
H	-2.516252	-0.806272	-1.008477
C	-0.578613	-1.054557	0.809018
N	-1.066119	-1.900818	1.464618
F	2.527233	0.0	0.0
