15

C	-0.476031	-0.016907	-1.442312
C	0.0	0.0	0.0
Cl	0.15694	1.39053	-2.306308
H	1.093195	0.0	0.0
H	-0.329671	-0.927544	0.47638
N	0.080548	-1.296431	-2.084749
O	0.653176	-1.241995	-3.163168
O	-0.182461	-2.326759	-1.470303
C	-1.981219	-0.083332	-1.639013
H	-2.371124	-0.961978	-1.122105
H	-2.228122	-0.14093	-2.701881
H	-2.433168	0.814428	-1.217122
C	-0.572176	1.125398	0.704773
N	-1.04648	2.035337	1.279739
F	2.523879	0.0	0.0
