12

C	-0.48579	-0.062099	-1.422443
C	0.0	0.0	0.0
F	-1.883601	-0.193722	-1.477539
H	1.096204	0.0	0.0
H	-0.060621	-0.943758	-1.907016
H	-0.357509	0.927875	0.467426
C	-0.149589	1.143658	-2.200453
N	0.057903	2.09879	-2.848792
N	-0.42076	-1.221808	0.687949
H	0.340451	-1.495684	1.299042
H	-1.245514	-1.061959	1.247292
H	2.924884	0.0	0.0
