12

C	-0.501034	-0.032226	-1.432667
C	0.0	0.0	0.0
F	-0.050804	1.075156	-2.142937
H	1.093287	0.0	0.0
H	-1.599301	0.01998	-1.462559
H	-0.356225	-0.907743	0.50224
C	-0.11191	-1.256405	-2.156096
N	0.107034	-2.250778	-2.740242
N	-0.437311	1.197732	0.712994
H	0.273977	1.905144	0.572316
H	-1.309583	1.557722	0.343742
H	2.954999	0.0	0.0
