14

C	-0.472294	-0.05475	-1.449472
C	0.0	0.0	0.0
Br	0.148768	1.498814	-2.47579
H	1.095422	0.0	0.0
H	-1.564638	-0.017338	-1.534516
C	-0.000772	-1.263341	-2.118411
N	0.324743	-2.256892	-2.653614
C	-0.395512	-1.277121	0.748624
H	0.159007	-2.118093	0.326766
H	-1.471536	-1.490166	0.720157
H	-0.087181	-1.174551	1.790517
C	-0.556329	1.167416	0.650627
N	-1.019519	2.092651	1.210483
F	2.524378	0.0	0.0
