14

C	-0.480115	-0.054899	-1.447326
C	0.0	0.0	0.0
Br	0.120338	1.509947	-2.470033
H	1.095469	0.0	0.0
H	-1.572296	-0.027729	-1.530241
C	-0.006157	-1.254665	-2.132214
N	0.303525	-2.240388	-2.691633
C	-0.386147	-1.280043	0.747646
H	-0.070466	-1.179914	1.788015
H	0.168516	-2.116747	0.320031
H	-1.460765	-1.499622	0.72419
C	-0.55921	1.165709	0.654327
N	-1.019301	2.090112	1.219146
F	2.524043	0.0	0.0
