14

C	-0.210762	-0.062271	-1.489682
C	0.0	0.0	0.0
Br	-2.073445	-0.51305	-2.079837
H	1.098176	0.0	0.0
H	0.401281	-0.878504	-1.878337
C	0.154017	1.172394	-2.171946
N	0.425182	2.173588	-2.723712
C	-0.37579	-1.29055	0.716484
H	0.170908	-2.116078	0.253088
H	-0.043596	-1.224492	1.754617
H	-1.448384	-1.504371	0.692618
C	-0.591713	1.168786	0.608948
N	-1.069664	2.103357	1.141064
F	2.501294	0.0	0.0
