14

C	-0.374163	-4e-05	-1.483565
C	0.0	0.0	0.0
Br	0.414597	-1.528429	-2.426827
H	1.095599	0.0	0.0
H	0.075833	0.874774	-1.956736
C	-1.812617	-0.023447	-1.736134
N	-2.977359	-0.037852	-1.896887
C	-0.51426	-1.202685	0.780066
H	-0.048315	-2.10712	0.386345
H	-1.604528	-1.308982	0.744032
H	-0.204952	-1.102395	1.822595
C	-0.484879	1.248842	0.561772
N	-0.872981	2.261201	1.020515
F	2.533336	0.0	0.0
