14

C	-0.490353	-0.059017	-1.443577
C	0.0	0.0	0.0
Br	0.134017	1.488846	-2.478911
H	1.095448	0.0	0.0
H	-1.581055	-0.014266	-1.520434
C	-0.027341	-1.267211	-2.121366
N	0.326303	-2.241373	-2.675638
C	-0.385953	-1.277805	0.753285
H	-0.070383	-1.174684	1.794044
H	0.168645	-2.11486	0.329117
H	-1.462849	-1.493978	0.732881
C	-0.55797	1.16778	0.652203
N	-1.026693	2.093603	1.206843
F	2.529859	0.0	0.0
