14

C	-0.210316	-0.061489	-1.489718
C	0.0	0.0	0.0
Br	-2.077977	-0.487096	-2.077753
H	1.098173	0.0	0.0
H	0.388286	-0.887058	-1.87712
C	0.17336	1.167045	-2.17482
N	0.449818	2.161684	-2.736165
C	-0.38264	-1.288548	0.716474
H	0.160818	-2.11788	0.253647
H	-0.052204	-1.223883	1.755408
H	-1.45715	-1.497507	0.690995
C	-0.588093	1.172109	0.607367
N	-1.065115	2.10718	1.139278
F	2.504518	0.0	0.0
