12

C	-0.487786	-0.050398	-1.428957
C	0.0	0.0	0.0
Cl	-2.288451	-0.123161	-1.513283
H	1.092676	0.0	0.0
H	-0.120894	-0.9614	-1.902204
H	-0.398194	0.849575	0.550658
C	-0.043318	1.122171	-2.175069
N	0.273642	2.082045	-2.77267
N	-0.429282	-1.22531	0.719608
O	-0.751877	-1.100183	1.898215
O	-0.396819	-2.288497	0.102804
Cl	3.243471	0.0	0.0
