12

C	-0.493742	0.035345	-1.438093
C	0.0	0.0	0.0
Cl	-0.035619	-1.497611	-2.235464
H	1.091299	0.0	0.0
H	0.007126	0.840766	-1.974516
H	-0.392409	-0.851236	0.552908
C	-1.944051	0.208372	-1.537508
N	-3.108867	0.35074	-1.604066
N	-0.44176	1.22565	0.71093
O	-0.626385	1.140047	1.920862
O	-0.555562	2.256524	0.045238
Cl	3.265304	0.0	0.0
