12

C	-0.595333	-0.001468	-1.400096
C	0.0	0.0	0.0
Cl	-0.411914	1.643067	-2.092698
H	1.088062	0.0	0.0
H	-1.668325	-0.195259	-1.356755
H	-0.349461	0.866182	0.561038
C	-0.003845	-0.97365	-2.315761
N	0.419222	-1.724854	-3.112288
N	-0.464091	-1.191574	0.754853
O	-0.347592	-1.153188	1.974793
O	-0.923842	-2.141358	0.11562
Cl	3.253576	0.0	0.0
