12

C	-0.482656	-0.039418	-1.431654
C	0.0	0.0	0.0
Cl	-2.280823	-0.138497	-1.525586
H	1.092645	0.0	0.0
H	-0.09876	-0.937673	-1.915098
H	-0.401608	0.843606	0.557033
C	-0.053591	1.148758	-2.161982
N	0.247648	2.104075	-2.774552
N	-0.426727	-1.232965	0.707057
O	-0.377777	-2.290882	0.082713
O	-0.76324	-1.119193	1.883293
Cl	3.240957	0.0	0.0
