12

C	-0.596289	0.030951	-1.398737
C	0.0	0.0	0.0
Cl	-0.375218	1.682374	-2.06765
H	1.088378	0.0	0.0
H	-1.673934	-0.139242	-1.357732
H	-0.347275	0.854425	0.580341
C	-0.025535	-0.941401	-2.328447
N	0.378972	-1.693231	-3.135132
N	-0.464383	-1.207472	0.73098
O	-0.959138	-2.130593	0.074547
O	-0.31028	-1.208142	1.948512
Cl	3.25607	0.0	0.0
