12

C	-0.497171	0.057379	-1.430537
C	0.0	0.0	0.0
Cl	-0.051302	-1.392323	-2.366833
H	1.088354	0.0	0.0
H	0.050468	0.883196	-1.8917
H	-0.331436	0.893039	0.538269
C	-1.926252	0.327385	-1.567243
N	-3.052605	0.625825	-1.708267
N	-0.542518	-1.154028	0.764078
O	-1.550627	-1.716509	0.332628
O	0.026877	-1.427823	1.813653
Cl	3.297555	0.0	0.0
