15

C	-0.609148	-0.044419	-1.377528
C	0.0	0.0	0.0
F	-0.210463	-1.152655	-2.079927
H	1.093287	0.0	0.0
H	-1.704882	-0.030377	-1.355825
N	-0.245397	1.157358	-2.208244
O	0.85408	1.165456	-2.744662
O	-1.09868	2.038667	-2.295616
N	-0.399244	-1.209267	0.73322
H	-1.120164	-1.736272	0.248797
H	0.42726	-1.795479	0.782662
N	-0.452486	1.233252	0.636148
H	0.336311	1.569401	1.177063
H	-1.194526	1.005624	1.289804
F	2.630346	0.0	0.0
