15

C	-0.560693	0.002542	-1.407315
C	0.0	0.0	0.0
F	-0.153063	-1.097282	-2.100064
H	1.100495	0.0	0.0
H	-1.654738	0.032985	-1.412807
N	-0.129012	1.215274	-2.192804
O	-0.759197	2.24881	-1.950431
O	0.786048	1.111119	-2.996776
N	-0.561688	-1.229417	0.602387
H	-0.593262	-1.022501	1.595227
H	0.149459	-1.946792	0.482926
N	-0.423329	1.154483	0.775007
H	0.35372	1.801641	0.788902
H	-1.224039	1.628465	0.377021
F	2.652703	0.0	0.0
