15

C	-0.384318	0.193488	-1.443444
C	0.0	0.0	0.0
F	-0.167332	1.478449	-1.872697
H	1.108871	0.0	0.0
H	0.137137	-0.507459	-2.091695
N	-1.857658	-0.060632	-1.678564
O	-2.179057	-1.036803	-2.35221
O	-2.651942	0.721723	-1.150777
N	-0.460578	-1.335887	0.373625
H	0.256876	-1.72214	0.976203
H	-1.29931	-1.236175	0.935211
N	-0.450484	1.061926	0.89145
H	0.338029	1.681772	1.030067
H	-1.212674	1.593165	0.487375
F	2.637437	0.0	0.0
