15

C	-0.366746	-0.205911	-1.456285
C	0.0	0.0	0.0
F	-0.032059	0.861921	-2.221643
H	1.100061	0.0	0.0
H	0.102584	-1.104939	-1.854152
N	-1.850605	-0.417344	-1.634019
O	-2.56949	0.538647	-1.894898
O	-2.253678	-1.568477	-1.425765
N	-0.372068	-1.149267	0.830204
H	-1.023229	-1.776028	0.376055
H	0.484365	-1.652629	1.032507
N	-0.54328	1.262218	0.47438
H	0.210525	1.741251	0.950525
H	-1.263209	1.05877	1.158309
F	2.631815	0.0	0.0
