16

C	-0.376087	-0.010749	-1.484518
C	0.0	0.0	0.0
Br	0.159034	1.674715	-2.276203
H	1.097926	0.0	0.0
C	0.282535	-1.164203	-2.205249
H	0.078813	-1.107082	-3.273712
H	1.356467	-1.116612	-2.013812
H	-0.108752	-2.107542	-1.814476
N	-1.890593	-0.107602	-1.668634
O	-2.293911	-0.300845	-2.809
O	-2.594307	0.013008	-0.668369
C	-0.437833	-1.241115	0.640414
N	-0.758747	-2.255455	1.138282
C	-0.475024	1.164035	0.740852
N	-0.814706	2.104757	1.354892
Cl	3.16551	0.0	0.0
