16

C	-0.353168	-0.011102	-1.495496
C	0.0	0.0	0.0
Br	0.086829	1.717443	-2.26672
H	1.097941	0.0	0.0
C	0.395407	-1.110142	-2.216671
H	0.208192	-1.05584	-3.286627
H	1.459627	-0.987261	-2.000841
H	0.061818	-2.082881	-1.842403
N	-1.857385	-0.184001	-1.708222
O	-2.593953	0.032495	-0.751302
O	-2.220893	-0.51981	-2.830111
C	-0.438602	-1.251288	0.618859
N	-0.763167	-2.274508	1.096224
C	-0.49141	1.150789	0.749755
N	-0.843052	2.079805	1.376426
Cl	3.165883	0.0	0.0
