16

C	-0.377583	-0.021632	-1.48934
C	0.0	0.0	0.0
Br	0.146488	1.658358	-2.301795
H	1.097921	0.0	0.0
C	0.295864	-1.171254	-2.203647
H	-0.09271	-2.114892	-1.813504
H	0.09843	-1.115498	-3.271813
H	1.367303	-1.113403	-2.005418
N	-1.890913	-0.128135	-1.682471
O	-2.284245	-0.325173	-2.825579
O	-2.604164	-0.016599	-0.69074
C	-0.437579	-1.237949	0.646138
N	-0.756495	-2.251169	1.147782
C	-0.471688	1.165905	0.740255
N	-0.803366	2.10878	1.35673
Cl	3.167381	0.0	0.0
