14

C	0.0	0.0	0.0
C	-0.352001	0.006876	-1.490436
F	1.357135	0.0	0.0
H	0.208925	0.795226	-1.989276
H	-1.421907	0.138329	-1.618295
N	-0.347104	1.375062	0.579036
O	-0.33475	2.328207	-0.201373
O	-0.399395	1.459793	1.801372
C	-0.72309	-0.999541	0.786191
N	-0.688272	-1.956469	1.497103
N	0.023595	-1.266096	-2.168259
O	-0.286713	-1.328263	-3.35924
O	0.59392	-2.154799	-1.541441
H	-2.243268	0.0	0.0
