14

C	0.0	0.0	0.0
C	-0.349359	0.035719	-1.492327
F	1.356703	0.0	0.0
H	-1.397913	0.259813	-1.638415
H	0.293713	0.764952	-1.984096
N	-0.372548	1.349577	0.606622
O	-0.360613	2.317365	-0.157876
O	-0.426353	1.41207	1.830966
C	-0.681926	-1.035733	0.770261
N	-0.642264	-1.982815	1.491461
N	-0.08024	-1.269281	-2.162932
O	-0.525304	-1.369027	-3.306619
O	0.567911	-2.135117	-1.581443
H	-2.242675	0.0	0.0
