14

C	0.0	0.0	0.0
C	-0.396752	0.076575	-1.465775
F	1.360373	0.0	0.0
H	-0.013997	0.992655	-1.903018
H	-1.497304	0.024119	-1.465686
N	-0.36813	1.317852	0.689951
O	-0.343396	2.33244	-0.007143
O	-0.443291	1.296529	1.913777
C	-0.598504	-1.086283	0.778307
N	-0.591878	-2.037328	1.485546
N	0.161437	-1.046065	-2.244917
O	0.54471	-0.794974	-3.391423
O	0.130284	-2.173476	-1.747904
H	-2.385091	0.0	0.0
