14

C	0.0	0.0	0.0
C	-0.328507	0.026875	-1.513489
F	1.353272	0.0	0.0
H	0.180091	-0.852875	-1.916169
H	-1.393564	0.000186	-1.684309
N	-0.326507	1.31665	0.707493
O	-0.400562	2.338003	0.02971
O	-0.327051	1.270215	1.93195
C	-0.882644	-1.034068	0.586119
N	-0.835439	-2.12588	1.080822
N	0.203227	1.185628	-2.29175
O	1.419454	1.359831	-2.321545
O	-0.616285	1.860874	-2.911525
H	-2.155633	0.0	0.0
