14

C	0.0	0.0	0.0
C	-0.242465	-0.187995	-1.510869
F	1.363747	0.0	0.0
H	0.395596	-1.020101	-1.820009
H	0.047414	0.735277	-2.004244
N	-0.334355	1.403611	0.477681
O	-0.407308	1.560607	1.695816
O	-0.281796	2.315264	-0.349884
C	-0.734487	-0.957695	0.809644
N	-0.741832	-1.913457	1.524063
N	-1.597739	-0.533994	-2.014246
O	-2.226117	0.34298	-2.607282
O	-1.912227	-1.723448	-1.965378
H	-1.989926	0.0	0.0
