15
Coordinates from ORCA-job run
  C   0.95738163525001     -0.26379836107844     -0.42551012104548
  C   -0.47913394344138      0.11559218083720     -0.10016062534179
  Cl  1.38486088972621      0.00745812715996     -2.12177336367073
  H   -1.11705898043171     -0.42358887833758     -0.80697340904025
  H   1.67061996237096      0.26001858950786      0.20807439705083
  N   1.15905744857775     -1.72638960098388     -0.12722235670222
  O   2.18971802442192     -2.02946164818919      0.46211431536913
  O   0.28254784033018     -2.49614404779811     -0.50602002931605
  C   -0.69601617963939      1.61448084219922     -0.23682309004633
  H   -0.05893303497572      2.15304413450714      0.47176129013180
  H   -0.47040830688731      1.97257726925403     -1.24118029587130
  H   -1.73747001595489      1.85550621928550     -0.01318607089987
  N   -0.69730035656756     -0.34104701182786      1.27064135000933
  H   -1.03053458330530      0.40687810872854      1.86237900209012
  H   -1.35533039947377     -1.10612592326440      1.30487900728280
