15
Coordinates from ORCA-job run
  C   0.48267950305681     -1.02304980986254     -0.27685063265836
  C   -0.52424014090271      0.12668966159758     -0.27037238092819
  Cl  0.58173369040662     -1.85759851025989      1.26695888391357
  H   -0.50842527479913      0.51050592107562     -1.29580591434842
  H   0.21187646309767     -1.74657731610430     -1.04275430545309
  N   1.82883729366585     -0.46688939618412     -0.68624647305512
  O   1.89224963119531     -0.17897559534464     -1.87926588385429
  O   2.70037757625672     -0.28733148405411      0.15193153598633
  C   -0.13829627084983      1.24618018727979      0.69156660960158
  H   0.82859062499036      1.69182734383517      0.44640945616480
  H   -0.09375589389984      0.87967829486974      1.71935114824646
  H   -0.89247667847954      2.03486599756572      0.64234711327389
  N   -1.83940934086632     -0.46394492230362     -0.05626206545589
  H   -2.55576293612035      0.19308941835476     -0.33915303763179
  H   -1.97497824675161     -0.65946979046516      0.92914594619852
