15
Coordinates from ORCA-job run
  C   0.59816275505244     -0.59329508408915     -0.88447972753458
  C   -0.65309589553264      0.11792383001650     -0.37337121561016
  Cl  0.27414806327936     -2.15240788085056     -1.62466501955026
  H   -1.21414977974707      0.36542531334419     -1.28244232200388
  H   1.12514372947631      0.02635334307843     -1.60724550989805
  N   1.57875959356716     -0.75926816760293      0.24926131839311
  O   1.25721023434903     -1.49327883312038      1.17830705563419
  O   2.60436326807262     -0.08613445469729      0.18052208741013
  C   -0.24429223061147      1.42133573477924      0.32148305129708
  H   -1.13889997542953      2.00690165896957      0.54450160849250
  H   0.26219086965241      1.21482259756935      1.26795494048445
  H   0.41781840022972      2.03527754133895     -0.29602319859265
  N   -1.49136172229912     -0.76961853995767      0.41042390026368
  H   -2.35270276154904     -0.29604807966661      0.65062358375011
  H   -1.02329454851016     -1.04098897911166      1.26614944746433
