15
Coordinates from ORCA-job run
  C   0.57655867764367     -0.54656020930937     -0.88011129693675
  C   -0.60892794511870      0.19007512655478     -0.25602911522956
  Cl  0.04381135954284     -1.95154913371864     -1.80655835085425
  H   -1.30128571626864      0.35154432732216     -1.09820591993462
  H   1.14198281717883      0.10224821289923     -1.54653092701042
  N   1.54677001589384     -0.96311775430121      0.20082122227021
  O   1.49189974353436     -2.09082950558186      0.66158749825415
  O   2.30465088519200     -0.06078403929168      0.55248212268821
  C   -0.21354783046175      1.54929529929390      0.30394356265582
  H   0.29862945745865      2.15700917076520     -0.44469230790716
  H   0.43634470570833      1.43558725414942      1.17066915815939
  H   -1.11526747482683      2.08573879939385      0.61181372945453
  N   -1.15847241591643     -0.63068346261409      0.80984788209093
  H   -1.53868258011226     -1.49626884974142      0.44593448988727
  H   -1.90546369944791     -0.13170523582025      1.27602825241224
