15
Coordinates from ORCA-job run
  C   0.48291135483994     -0.97424201923001     -0.02941990423379
  C   -0.57363492562211      0.12555327348411     -0.26654788741249
  Cl  0.68551657922045     -1.38363314486325      1.66797342815515
  H   -0.60828696083119      0.24325658423907     -1.35490173648288
  H   0.21946818232900     -1.88356742961811     -0.56915424736120
  N   1.78615668780704     -0.52048601586332     -0.64571738055766
  O   2.69029860289838     -0.10533638539102      0.06443936161410
  O   1.77664580156654     -0.55468850467590     -1.87464161202616
  C   -0.17303107034056      1.44917977043806      0.36469731312977
  H   -0.08812154448858      1.35753158253009      1.44967806929550
  H   0.77931439624923      1.81700344355712     -0.02002959341564
  H   -0.94698754413483      2.18363032795068      0.14124178459048
  N   -1.90096405801707     -0.25161846645999      0.17500659467020
  H   -1.91338386253046     -0.40387363041833      1.17630745993992
  H   -2.21690163894574     -1.09970938567920     -0.27993164990530
