15
Coordinates from ORCA-job run
  C   0.95365386857303     -0.29249870438890     -0.36891743469018
  C   -0.48448405518549      0.13686577425857     -0.13394602686533
  Cl  1.45426582054262     -0.12919537936026     -2.05903044071193
  H   -1.10957648169624     -0.37885693513892     -0.87292835564335
  H   1.64632502737761      0.26227916085640      0.26107417456020
  N   1.13435769364971     -1.73832273741576      0.01514508339437
  O   0.21901111943595     -2.50852200296676     -0.26296959630837
  O   2.19191990423215     -2.03356504515373      0.55924586671666
  C   -0.61512925477638      1.64272389243781     -0.30091579526578
  H   -0.01719670900592      2.15337684053849      0.45886664329057
  H   -1.65903569063176      1.93937283353474     -0.17315570628518
  H   -0.29064527518489      1.97306770343428     -1.28726266549270
  N   -0.78815595717447     -0.23533943015207      1.24501923387582
  H   -1.15213874588831     -1.17881734827087      1.28379785535916
  H   -1.48317126426762      0.38743137778699      1.63497716406601
