15
Coordinates from ORCA-job run
  C   0.83741289377556     -0.32678192376870     -0.50237078877990
  C   -0.54990640400556      0.18303923585903     -0.09154697571634
  Cl  1.11674239731455     -0.22561796026462     -2.24205951380688
  H   -1.27044890702758     -0.32346955722680     -0.74058902966142
  H   1.64268510407675      0.19822138694833      0.01091426080092
  N   0.95801467970440     -1.76092258478873     -0.06701695747394
  O   1.78506731912037     -1.99623033969555      0.81080994061492
  O   0.17220168290384     -2.56194156299343     -0.55966792243591
  C   -0.63406934349777      1.68923909348200     -0.28772381059804
  H   -0.43007016382581      1.98134035543154     -1.31791266117058
  H   0.08378678663021      2.19787126869905      0.36393575355800
  H   -1.63439825176596      2.02361016199064     -0.01276537097057
  N   -0.88742452834457     -0.14579896455402      1.28084490670311
  H   -0.99138101857001     -1.14233061131089      1.42071588782797
  H   -0.19921224648843      0.20977200219213      1.93343228110870
