15
Coordinates from ORCA-job run
  C   0.58305482255854     -0.98468585063113     -0.21822194159830
  C   -0.56158651596693      0.02862771623761     -0.22203292179477
  Cl  0.94207787569798     -1.60939371427291      1.38481018002625
  H   -0.69840999962701      0.28143475848912     -1.27865756959378
  H   0.33666763947597     -1.82160927182599     -0.86809399220632
  N   1.79727102358168     -0.32377733561992     -0.83307799980584
  O   2.71483535993631      0.05891166806967     -0.12177619190289
  O   1.70279083530370     -0.17132025155784     -2.04883791263323
  C   -0.23211129948646      1.29568658233268      0.56108794265008
  H   -0.03043434131622      1.06539022199196      1.60942641529922
  H   -1.08706618226939      1.97432629575050      0.51879641685552
  H   0.63398364516805      1.82356247189156      0.15513639751696
  N   -1.75915538761132     -0.68432889840583      0.20401493599662
  H   -1.76380719845365     -0.78101523825666      1.21314251459623
  H   -2.58011027699125     -0.15180915419283     -0.05571627340573
