15
Coordinates from ORCA-job run
  C   0.60859188694244     -0.56356364255317     -0.89799757052621
  C   -0.65494569617840      0.11283057219559     -0.36894870297008
  Cl  0.31124226805564     -2.11164427929329     -1.67172350798027
  H   -1.22420003479947      0.36769026290436     -1.27071926967205
  H   1.12187835396242      0.08132388841503     -1.60842733738346
  N   1.59379095665034     -0.73548694179052      0.23058593499753
  O   1.28901675088225     -1.49785441144446      1.14209046600360
  O   2.60266884116220     -0.03598877040259      0.17856765803440
  C   -0.26924935680661      1.40957850577694      0.35139468762084
  H   0.24381487871022      1.19339547953712      1.29215662398108
  H   0.37969500960379      2.04844235701323     -0.25464158720786
  H   -1.17434648332514      1.97308698436766      0.58837592186970
  N   -1.47277733436936     -0.80670163756397      0.39895081819666
  H   -1.00531028257345     -1.07244217969239      1.25672413452362
  H   -2.35086975791687     -0.36266618746955      0.63461173051248
