15
Coordinates from ORCA-job run
  C   0.54406529538405     -0.55364205356418     -0.86548798251083
  C   -0.67967996102913      0.21420927967482     -0.32044190827459
  Cl  0.09691030220639     -2.09732153017312     -1.58874553332441
  H   -1.25997931158455      0.46361528231139     -1.21640185263116
  H   1.07947798430928      0.02879756894516     -1.61290239499052
  N   1.52951415849245     -0.76957811058061      0.24566777086276
  O   2.52684040878523     -0.05123121386174      0.22471787095224
  O   1.22478996219932     -1.56028456992402      1.13323301280316
  C   -0.21522993571613      1.50432910478791      0.34443408761817
  H   0.45707850244394      2.07767328625581     -0.29748612557201
  H   0.30912178326854      1.29569973395617      1.28105022688484
  H   -1.08996931259201      2.11059857314627      0.57892713757882
  N   -1.55297304530608     -0.51042737171259      0.57390102170081
  H   -1.04382097634691     -0.81400208274571      1.39556263321372
  H   -1.92714585451436     -1.33643589651555      0.12397203568901
