14
Coordinates from ORCA-job run
  C   0.90135739724825     -0.08860598311078      0.40198838397279
  C   -0.57800603765578      0.16591722216030      0.10610735603941
  Cl  1.15211984485887     -0.09751572838205      2.20323925640383
  H   -1.15141450898874     -0.61808650964437      0.62765491178454
  H   1.48342894301117      0.75516855162674      0.02928463915306
  N   1.34394520419582     -1.29395833354239     -0.22493911871489
  H   0.93372518987717     -2.09677411608964      0.23904211991255
  H   2.35005968135886     -1.38358874826895     -0.16815232646305
  N   -0.71771058229149      0.14935650447868     -1.34599485395352
  H   -0.26070454752965     -0.66850602611905     -1.73032498496932
  H   -1.69931604927806      0.13423445684752     -1.59505521781256
  N   -0.98979527013161      1.43835900694890      0.65625453018693
  H   -0.78258253472745      2.15310425886818     -0.03245272874638
  H   -1.98510672994736      1.44889544422691      0.83234803320660
