14
Coordinates from ORCA-job run
  C   0.92700695011313     -0.06554648060518      0.49809783752851
  C   -0.57005867334962      0.02587059135769      0.19760505246496
  Cl  1.23720641674273      0.22435662612361      2.23778149361958
  H   -1.05581228634491     -0.74101713745194      0.80706680531377
  H   1.44257308715698      0.76457423181424     -0.01151961479106
  N   1.39606347177167     -1.37662143388694      0.15246978374371
  H   1.03481194607399     -1.60368384073689     -0.76622275091922
  H   2.40646753686804     -1.41355674247855      0.15721526227734
  N   -0.74484632500489     -0.36229594778099     -1.20957236013809
  H   -0.53404150013143      0.43133401266994     -1.80592406700990
  H   -1.70928144964591     -0.62066167622149     -1.37900445674085
  N   -1.08817683940162      1.31599085802531      0.60112043221755
  H   -2.08779302424975      1.35832399946203      0.45004645532840
  H   -0.65311931059842      2.06093293970915      0.06884012710529
