14
Coordinates from ORCA-job run
  C   0.76296391890533     -0.17654405976780      0.72158811667750
  C   -0.64748242836010      0.08563093752090      0.17016804343198
  Cl  0.64280630659108     -1.60807731739826      1.89083211337529
  H   -1.36986083971111     -0.22483229880482      0.93373613533522
  H   1.08755642123118      0.64320120447140      1.36337270150522
  N   1.68797000570052     -0.37927122701910     -0.31930470110625
  H   2.63035475767864     -0.49322404060415      0.02697712328754
  H   1.41577330628987     -1.19156581106219     -0.85959831266121
  N   -0.85932461753868     -0.74444209644647     -0.99654172125098
  H   -1.83610556078690     -0.97386196404760     -1.11288516777339
  H   -0.54049505750806     -0.23019447780089     -1.80996567461686
  N   -0.74239957449555      1.50355624399209     -0.17585615771184
  H   -1.69325022422286      1.70760128737157     -0.46318357811940
  H   -0.53850641377335      2.08502361959533      0.62966107962716
