14
Coordinates from ORCA-job run
  C   0.72319819932324     -0.27282623947007      0.76763951346585
  C   -0.65013360516959      0.17009585045707      0.27481276903043
  Cl  0.54368635186959     -2.01222579460488      1.41052184306558
  H   -1.37136290093454      0.00814249065829      1.08556308818652
  H   0.99923485379549      0.29804528612782      1.65143699479462
  N   1.67552244748412     -0.13040697985323     -0.25597281571758
  H   2.60805154408724     -0.39208327886698      0.02893445897201
  H   1.38452796516452     -0.63479284840844     -1.08344167864048
  N   -0.96566671713447     -0.60037671989041     -0.93445383659018
  H   -1.78577779754659     -0.20285392614886     -1.37583443702404
  H   -1.18466283961744     -1.55915787000608     -0.68493764139145
  N   -0.57279457417069      1.59191234652293      0.03821071842015
  H   -1.48068523646847      1.96794550424624     -0.20522864434138
  H   0.07786230931758      1.76558217923659     -0.71825033223005
