14
Coordinates from ORCA-job run
  C   0.85950558209845      0.03116710932552      0.30222102026053
  C   -0.66343726523860     -0.05059017670085      0.12246615067339
  Cl  1.16063730657108      0.22825965920479      2.12415469379532
  H   -1.03811481224708     -0.78544950230277      0.84447002305522
  H   1.23445859006063      0.97432531694008     -0.10233406123823
  N   1.54294092258659     -1.05167881983044     -0.28320918456609
  H   1.13043542267529     -1.94234726009484     -0.04116215621393
  H   2.53078581409016     -1.05070918536854     -0.06967108787234
  N   -0.94986980420101     -0.53204751857870     -1.21548703443937
  H   -0.31009049374557     -0.14165920830204     -1.89531959561641
  H   -1.89633480171490     -0.25823727965197     -1.44959980494540
  N   -1.36229346758276      1.19267789712370      0.41325483007361
  H   -1.26566393925664      1.43840010437636      1.39146567132317
  H   -0.97195905409566      1.94688886385970     -0.14224946428947
