14
Coordinates from ORCA-job run
  C   0.64817487051469     -0.56074757084404      0.67403564120160
  C   -0.36997873929327     -0.10529294166211     -0.38198972610523
  Cl  0.61314223149002     -2.33298649701837      0.83822963415089
  H   -0.07744642696127     -0.56056308383194     -1.33408044303427
  H   0.34237573972767     -0.15702369328806      1.64752896284772
  N   2.00938689173101     -0.14928455815929      0.41506870195179
  H   2.37688973572892     -0.70057610473473     -0.35297730112259
  H   1.96576562164361      0.81714978889215      0.10702368008417
  N   -0.18665938567480      1.34492265607956     -0.52602346785858
  H   -0.61300948619322      1.66516639532880     -1.38718589598956
  H   -0.65512936064893      1.82090752950860      0.23831524841142
  N   -1.69795521982530     -0.58162957296247     -0.05253096433306
  H   -1.98595980409309     -0.23474939696143      0.85577501981095
  H   -2.36959666814602     -0.26429295034667     -0.74018909001525
