14
Coordinates from ORCA-job run
  C   0.85925665895159     -0.11772058334398      0.54552191769443
  C   -0.59848078899684      0.14937462921273      0.17757858950756
  Cl  1.01752272520268     -0.22408040110796      2.31707196420302
  H   -1.22349817181803     -0.48635371728043      0.81817143476603
  H   1.45522738188443      0.75438346330787      0.24818757106074
  N   1.29996969348696     -1.37247310032680     -0.03891036373401
  H   1.50823236832489     -1.19706267207857     -1.01601371881175
  H   2.15521515961994     -1.67762965568165      0.40883510279982
  N   -0.73785595787765     -0.15720745622512     -1.25132945085491
  H   -0.72751038749647     -1.16413502831808     -1.37520206012085
  H   -1.64003738103392      0.17865587881644     -1.56810069619159
  N   -0.91304061218410      1.52632728165142      0.47153482917067
  H   -0.54254217956631      2.11714629747220     -0.26445637016079
  H   -1.91245850849718      1.66977506390193      0.52711125067164
