14
Coordinates from ORCA-job run
  C   0.77114708831941     -0.12718193020310      0.49117902858746
  C   -0.43356922430755      0.42595828783515     -0.28185047405094
  Cl  0.26378463225513     -0.94373763694139      1.99427859503963
  H   0.01964438777033      0.94391812839252     -1.15077664167395
  H   1.38027586855088      0.72372642702796      0.82468959340805
  N   1.47998377136698     -1.08631153094054     -0.33447298356010
  H   1.88283970159145     -0.59785273247556     -1.12782158294735
  H   2.23682630176821     -1.51029979237533      0.18824398586677
  N   -1.22566812332831      1.41563949273598      0.41257429710306
  H   -1.63068447498697      0.98212217782325      1.23429142643125
  H   -0.65845327715507      2.20479368579053      0.69890033026780
  N   -1.31077167306568     -0.66167979684126     -0.63202520655818
  H   -0.77502621736106     -1.42783307036135     -1.01896709634087
  H   -1.99932876141773     -0.34126170946684     -1.29924327157263
