14
Coordinates from ORCA-job run
  C   0.85440611276055     -0.03066628790527      0.57082408657049
  C   -0.35105244073658      0.40335248779053     -0.26037028001825
  Cl  0.29031130597931     -1.22863906729237      1.85655589592017
  H   0.06730005072421      1.12145875835969     -0.98043983361770
  H   1.24091468106278      0.80554721588588      1.15652117941997
  N   1.85178520193542     -0.53698598642867     -0.28828547271054
  H   2.64503563993623     -0.90262479892828      0.21970963243651
  H   1.44427453131046     -1.25141540541801     -0.88053227022497
  N   -1.39254984967485      0.96714669024354      0.58667298507153
  H   -1.00170173456971      1.59009838453674      1.28441052146563
  H   -2.03827458148199      1.50236676980367      0.01879105614026
  N   -0.82187721206423     -0.73379188285919     -1.02668852649036
  H   -1.35616646002932     -0.42587881570759     -1.82863465844057
  H   -1.43240524515229     -1.27996806208065     -0.42853431552217
