14
Coordinates from ORCA-job run
  C   0.63818943776713     -0.34641586016430      0.54390021990780
  C   -0.53483789994782     -0.00815047591398     -0.37799222273973
  Cl  0.67348524279417     -2.17574696127327      0.79846034526214
  H   -0.32973271412085     -0.48975485731682     -1.35020148622890
  H   0.44124076079035      0.06339797429236      1.53505001353973
  N   1.85822225402830      0.15727640813669      0.02367296245761
  H   2.10690724834336     -0.31843773741260     -0.83554692595837
  H   2.61780874947954      0.04918781094668      0.68230427092690
  N   -0.65957778593853      1.41746268567654     -0.60883973147273
  H   -0.92468478633764      1.85035287126703      0.27035049549540
  H   0.23926059448121      1.79327695315061     -0.88495187002316
  N   -1.77810477367986     -0.42654891583717      0.23764979252434
  H   -1.81211554069281     -1.43294478895243      0.33228075262225
  H   -2.53606078696655     -0.13395510659934     -0.36713661631327
