14
Coordinates from ORCA-job run
  C   0.87763815271564      0.01043397634218      0.41178887474919
  C   -0.62663432443728     -0.02408951423539      0.11581674182251
  Cl  1.13739551541239      0.55202055253862      2.11397459242210
  H   -1.05391213471749     -0.77359788725397      0.78842679957452
  H   1.34121503345822      0.80956245868890     -0.18741813175094
  N   1.43264554787389     -1.29517922755476      0.23952630436341
  H   1.03071061275119     -1.69682666313321     -0.59926760739120
  H   2.44103621475402     -1.26908674225367      0.17455205344352
  N   -0.76994883750569     -0.51325723237098     -1.24876196485119
  H   -0.46987124756689      0.21164218788941     -1.89443981496943
  H   -1.75681362061314     -0.66332291684641     -1.42439884110140
  N   -1.34616104170926      1.22020607102371      0.33293819527969
  H   -0.87257480557251      1.98252958300100     -0.14170827395461
  H   -1.36472506484310      1.44696535416457      1.31997107236382
