14
Coordinates from ORCA-job run
  C   0.82796275063085     -0.09464320032955      0.45199260260872
  C   -0.66876526933764      0.14942979493745      0.24636176797460
  Cl  1.22769473827886     -0.02007941149075      2.18720832766159
  H   -1.19014502405000     -0.51799038694509      0.93861359736467
  H   1.39644256808014      0.72320101194610     -0.01643009831773
  N   1.18348162994875     -1.41746642630218     -0.04398950570393
  H   1.37084283716392     -1.35669071253455     -1.03790924022018
  H   2.03592188865449     -1.72958855547904      0.40402035838549
  N   -1.12121135819365     -0.20193018790264     -1.09763515617091
  H   -0.61677121650906      0.33174255608629     -1.79850341998527
  H   -0.97660158619844     -1.19019186923439     -1.26840456053772
  N   -0.98448087448196      1.51401616235464      0.59729596648936
  H   -1.97847748566863      1.65578999979849      0.46360538350109
  H   -0.50389359831764      2.15340122509521     -0.02722602304978
