14
Coordinates from ORCA-job run
  C   0.65300956890864     -0.50184577291860      0.69603158192419
  C   -0.38664070587141     -0.01378313205988     -0.32032355703191
  Cl  0.48747407636362     -2.27549955762726      0.90259275003078
  H   -0.15533220443751     -0.50974576485477     -1.27673640005260
  H   0.41425240889736     -0.05542776882412      1.66512008256758
  N   2.02150439573946     -0.20954191303176      0.35614395021438
  H   2.05440776484031      0.78115069204146      0.13613497819139
  H   2.27073619136853     -0.71805379321331     -0.48590624708550
  N   -0.16333019301710      1.41248446632547     -0.50029961254961
  H   -0.49648907476623      1.71691874972712     -1.40572248186032
  H   -0.69717743131090      1.90158175795882      0.21071287738694
  N   -1.73258769277950     -0.26671045173143      0.17502958971037
  H   -2.40871753680485     -0.01145645775212     -0.53516733925644
  H   -1.85910956713043     -1.25007105403963      0.38238982781074
