14
Coordinates from ORCA-job run
  C   0.86099697911451     -0.13385129426015      0.59937765185826
  C   -0.22058119527992      0.54817730147476     -0.22724245961457
  Cl  -0.00062791183093     -1.37185638883745      1.72047299704259
  H   0.31832373232258      1.27467954654951     -0.84366274157499
  H   1.28996519297137      0.56792912668300      1.31126670253852
  N   1.83111345989786     -0.70752436712879     -0.23209601760641
  H   1.39145724888578     -1.28800818636877     -0.93526980730165
  H   2.54247724624946     -1.21307107390819      0.27587149476263
  N   -1.10489831517757      1.29803016678638      0.64440765802116
  H   -1.76353164446213      1.83393180022068      0.09315854089187
  H   -1.62738626590709      0.66716113097341      1.24076421356891
  N   -0.78704897697211     -0.43964653679871     -1.14118982857431
  H   -1.41103199685428     -1.05677937872284     -0.63399797548981
  H   -1.31822755295752      0.01982815333717     -1.86986042852220
