14
Coordinates from ORCA-job run
  C   0.71732432569093     -0.27223908047080      0.77341382259824
  C   -0.64971069111531      0.17926889396491      0.27058143553712
  Cl  0.51838918457415     -2.00259781358497      1.43300273495938
  H   -1.37556459967630      0.03313590820285      1.08019843556151
  H   0.99608538194039      0.30505975465549      1.65218086576175
  N   1.67473393857039     -0.14950273181655     -0.24837804297368
  H   2.60336585087475     -0.41802545174871      0.04305025850326
  H   1.38180283193425     -0.66050486923211     -1.07116165333820
  N   -0.96829908894082     -0.60098886073265     -0.93173536471497
  H   -1.20238054088187     -1.55358264138026     -0.67251157670155
  H   -1.77980691791365     -0.19705822307221     -1.38306489334769
  N   -0.55674548712765      1.59756100373355      0.01969717418115
  H   0.10162419782252      1.75733520506353     -0.73310973454307
  H   -1.45881838575177      1.98113890641793     -0.23316346148325
