14
Coordinates from ORCA-job run
  C   0.84104186736301     -0.07461813755124      0.49350245438542
  C   -0.32879859086286      0.49206725797503     -0.31701898254763
  Cl  0.12000130561105     -1.24347379681030      1.77346706525930
  H   0.13733301864057      1.19391329131754     -1.01694081909006
  H   1.28936399702639      0.69799453178591      1.11828720495083
  N   1.78915836669370     -0.66376788970261     -0.35192559799481
  H   2.55773455948694     -1.09657322361819      0.13952753403312
  H   1.34058660753640     -1.30721916384492     -0.99127269333468
  N   -1.32252777809798      1.23691851537456      0.43722482032608
  H   -1.64219030577685      0.68544648643280      1.22572485649316
  H   -0.92434708379593      2.09568281823850      0.80043683466622
  N   -0.89341727022782     -0.59112712939594     -1.09833223709184
  H   -1.38594957718309     -1.22501394562967     -0.47804846384551
  H   -1.57798911641354     -0.20122961457147     -1.73463197620960
