14
Coordinates from ORCA-job run
  C   0.72021004591704     -0.33348909613414      0.85442314580241
  C   -0.62391358603950      0.05544488044470      0.21670657683916
  Cl  0.49828906362328     -1.85918461443994      1.75630506075900
  H   -1.41899335271041     -0.10236761567854      0.95748278510461
  H   0.99933400174768      0.41841106322394      1.59847563087726
  N   1.80783446281984     -0.49065462992219     -0.07262335902048
  H   1.92849553227332      0.38855362617866     -0.56483545472527
  H   1.54765607444558     -1.20462396586340     -0.74498063857118
  N   -0.88925253766372     -0.79981031374380     -0.91828398896204
  H   -0.51702643130348     -0.36977286026459     -1.75574471145342
  H   -1.87832087491425     -0.95961730065228     -1.04275182819760
  N   -0.48683202335092      1.45105073330991     -0.21156276386697
  H   -0.34068188703864      2.05765116467690      0.58880433739215
  H   -1.34579848780584      1.74740892886477     -0.66141479197763
