14
Coordinates from ORCA-job run
  C   0.90803359575521      0.12019195627151      0.36696321713748
  C   -0.45739905332654      0.41307412665688     -0.27586334161435
  Cl  0.67150966315573     -0.59412096098009      2.04746288839098
  H   -0.22157970379256      1.09062120238344     -1.11030160243510
  H   1.43449057301324      1.05763994819023      0.55451374824286
  N   1.67333702370067     -0.71047600965642     -0.48811214649369
  H   1.23522989947428     -1.62321932632133     -0.53756971831943
  H   2.62149040689660     -0.82135593992671     -0.15399257582862
  N   -1.43104760350458      1.08433196453678      0.55563781306701
  H   -1.12771036869759      2.02607617523665      0.76883104501782
  H   -1.52650879410216      0.58263350787898      1.43120714082852
  N   -1.03557088908138     -0.84622821789521     -0.72544767969024
  H   -0.70611187988135     -1.06318826999075     -1.65780541174470
  H   -2.03816286960958     -0.71498015638395     -0.77652337655856
