14
Coordinates from ORCA-job run
  C   0.86758167402969      0.02684078697820      0.44996089131560
  C   -0.37286405104685      0.43495573383981     -0.35060674181426
  Cl  0.28234134273323     -1.02656281498175      1.88971125835103
  H   0.01469851633244      1.07707424539871     -1.14885675669597
  H   1.29938535789578      0.88828712723868      0.95957277573525
  N   1.80546618233438     -0.60295252261976     -0.37717038412195
  H   1.36444661802705     -1.33796346065726     -0.91496667532519
  H   2.62222835462040     -0.93527502164469      0.11469827869844
  N   -1.36960606040797      1.20685402093931      0.37233170151435
  H   -1.61805523670642      0.73017153990574      1.23205649473791
  H   -1.00327446400228      2.11961098866801      0.61868644033960
  N   -0.91133877553822     -0.75786769918840     -0.97449373089264
  H   -1.33201947021879     -1.34366157712782     -0.26107312950785
  H   -1.64998998805244     -0.47951134674879     -1.60885042233433
