14
Coordinates from ORCA-job run
  C   0.75859612223879     -0.20539194992284      0.52810155417522
  C   -0.33422333316610      0.54982119283627     -0.23465274520574
  Cl  0.02288847787864     -1.39413241999981      1.65398133097090
  H   0.21090871452378      1.21212009718684     -0.92230734348302
  H   1.28890265895440      0.50170890353913      1.17469136296370
  N   1.58436626425487     -0.93506406231004     -0.41153026554582
  H   2.09670605745092     -0.26520869528714     -0.97645596776973
  H   2.26191426067756     -1.50140879407464      0.08492156544934
  N   -1.05511156346963      1.39537468825604      0.68945434532307
  H   -1.77766252395335      1.88304428282491      0.17318294749413
  H   -1.51639652006770      0.82037329016014      1.38599540120916
  N   -1.19922576119799     -0.28308460365738     -1.05390039583785
  H   -0.62146691463841     -0.87219986559695     -1.64559627323736
  H   -1.72219593948578     -0.90495206395454     -0.44588551650600
