14
Coordinates from ORCA-job run
  C   0.65387843082801     -0.23769862440481      0.72327449291978
  C   -0.72547633809582      0.17424971992123      0.17852413909811
  Cl  0.43007287599366     -1.92942675335997      1.46178313491320
  H   -1.42059412481924      0.05647511699748      1.02194469163747
  H   0.90906584160564      0.36793620508056      1.59500960545565
  N   1.67966230145508     -0.16234079527511     -0.23366782754218
  H   1.45759686396731     -0.69580626254122     -1.06289217796257
  H   2.57240935044942     -0.46275619594214      0.13212977870796
  N   -1.25104722562136     -0.62033421627543     -0.90910417223359
  H   -1.26214426459320     -1.60696845076117     -0.68682623437616
  H   -0.71681472528693     -0.44427097679439     -1.75047221165139
  N   -0.63037995600451      1.53134191486853     -0.32924023867282
  H   -0.12851532068565      2.13154750377752      0.31233683897330
  H   -1.56671370919240      1.89605181470892     -0.45379981926676
