14
Coordinates from ORCA-job run
  C   0.79338768878854     -0.08289870631981      0.53517785107561
  C   -0.42546404094255      0.48771252911236     -0.20586794957061
  Cl  0.25089014950522     -1.38043724626086      1.70619644580479
  H   0.01020892075745      1.24752454181188     -0.87398367307495
  H   1.23401287268528      0.68887233780902      1.17004287367508
  N   1.77100942424118     -0.53778713413684     -0.39201002559754
  H   2.62508236189004     -0.80447079309831      0.07952549008262
  H   1.42704544146556     -1.34612977045875     -0.89536225561236
  N   -1.38330342709692      1.01120552853600      0.74510143891154
  H   -0.97693162350345      1.75086278592852      1.30505893363426
  H   -2.16580710243715      1.38745546705429      0.22519807756910
  N   -1.14164892810355     -0.44391433797143     -1.04546956276039
  H   -1.42123282169363     -1.25395460674381     -0.50546810451972
  H   -0.59724891555601     -0.72504059526227     -1.84913953961744
