14
Coordinates from ORCA-job run
  C   0.70237966752732     -0.38814299933325      0.80791598267301
  C   -0.62469939127613      0.14091874074611      0.26456454966304
  Cl  0.36396357911265     -2.05077712381683      1.52787675704974
  H   -1.37634972123879      0.06545395756290      1.06072030490457
  H   0.99402733496195      0.21856063986925      1.66257952490656
  N   1.72763824693229     -0.44159181080175     -0.15800812429013
  H   1.37074745143586     -0.51893639999598     -1.09887635844978
  H   2.44450108546529      0.25431603932013     -0.04648495169832
  N   -0.96356130965181     -0.62066246742088     -0.93712684202517
  H   -1.82344200078901     -0.26085635662252     -1.33334049492759
  H   -1.11492290334120     -1.59584780131979     -0.70114157044027
  N   -0.43846628886943      1.54899034450249     -0.02261828165545
  H   -1.33300249826627      2.00996568791378     -0.13225459278300
  H   0.07118674799729      1.63960954939633     -0.89380590292721
