14
Coordinates from ORCA-job run
  C   0.81128149433107     -0.04021083185149      0.46592944669102
  C   -0.66481225575281      0.09129351637071      0.08757080406278
  Cl  0.97955436575812      0.13016392432065      2.23940473240958
  H   -1.22904465852131     -0.58217942693538      0.74723566458698
  H   1.35573353691257      0.81025565199990      0.03447526970344
  N   1.31329574205230     -1.34125773010510      0.07073666189357
  H   1.48093717632473     -1.30672444920768     -0.92928769699207
  H   2.19948399119179     -1.52657360851303      0.52474746963293
  N   -0.75899451789597     -0.25476483480747     -1.32593961480172
  H   -0.75740184176390     -1.26296598776005     -1.42348834268928
  H   -1.65293865051736      0.08720394027875     -1.65915689154271
  N   -1.21411471860579      1.42131447056545      0.23725910584461
  H   -1.21898880409377      1.69507171125363      1.21125335047449
  H   -0.64099085941968      2.08137365439111     -0.27773995927362
