14
Coordinates from ORCA-job run
  C   0.63626666036634     -0.44079292558138      0.67191479744570
  C   -0.71484003248909      0.18891012310223      0.31693710991463
  Cl  0.42787548661851     -2.17753115230573      1.04164053725803
  H   -1.35018932642087      0.13726231841143      1.20610142511095
  H   1.00894999914521      0.01433850916223      1.59461226686357
  N   1.53344807159806     -0.30272984006621     -0.46443293621558
  H   2.29194906584906     -0.96964183598001     -0.39550509304412
  H   1.93940925421550      0.62600512930563     -0.42370442715743
  N   -1.41790103723764     -0.44669008393358     -0.78228247906931
  H   -0.73617359033893     -0.65862649226763     -1.50534789031343
  H   -1.81612157075233     -1.32785751601109     -0.48050387782480
  N   -0.41631809954463      1.59173505665398      0.04967215391871
  H   -1.28687692228733      2.10945604339247      0.08453031302134
  H   -0.09847795872186      1.65716266611766     -0.91263189990826
