14
Coordinates from ORCA-job run
  C   0.88526695595501     -0.04915658254077      0.52442874828703
  C   -0.55966133439882      0.05559292085651      0.03818033076639
  Cl  0.94448982597281      0.31397415249374      2.29487239341203
  H   -1.13263813580043     -0.68238984407204      0.61694252384503
  H   1.46675042249369      0.76204377307932      0.06825150675404
  N   1.36603610734433     -1.37732059732841      0.30163000313238
  H   1.08995297790099     -1.64073565765532     -0.63780018796008
  H   2.37175881985885     -1.42149340524890      0.39591363819155
  N   -0.58868475771376     -0.35890539837793     -1.35694461489915
  H   -0.38794659646393      0.45583475314227     -1.92746156764867
  H   -1.50753617883807     -0.69958125826079     -1.60816521041169
  N   -1.02664360687987      1.42846709364385      0.18008004943054
  H   -0.90207108954452      1.74625013964518      1.13419042455231
  H   -2.01807340988629      1.46641991062331     -0.02611803745170
