14
Coordinates from ORCA-job run
  C   0.61476704447464     -0.45959356502501      0.63726658187037
  C   -0.48903432026932     -0.08598164675981     -0.36336792766267
  Cl  0.56275759643065     -2.24882527571817      0.88669253015795
  H   -0.27424135877742     -0.63607631408432     -1.29621344585235
  H   0.36640039263736     -0.00913015105733      1.60121498067702
  N   1.95239674027077     -0.09553879331702      0.27202719250551
  H   2.15940954740413     -0.34556278283769     -0.68693732451420
  H   2.11564123195691      0.88997942290789      0.42187155311067
  N   -0.51147784540403      1.32608097865600     -0.69200441844728
  H   0.35913892383903      1.62482300661460     -1.11008581312607
  H   -0.68932364398218      1.86309964757611      0.14966733036071
  N   -1.78501620408024     -0.37201471329123      0.21911324189945
  H   -2.49834259183181     -0.09037943964598     -0.44213233245796
  H   -1.88407551266848     -1.36188037401805      0.40188785147884
