14
Coordinates from ORCA-job run
  C   0.84904802884630     -0.04957301103814      0.59987595371107
  C   -0.33686015661916      0.41806916285474     -0.26723273009940
  Cl  0.25026801934192     -0.76007720378215      2.13067775793721
  H   0.12901434399302      1.01245925989280     -1.07384723143795
  H   1.43485603967040      0.82944543406336      0.88538219646977
  N   1.73195817968489     -1.00646542860151     -0.01907226509111
  H   2.16598269190269     -0.60332460401585     -0.84153017607058
  H   1.20591529193534     -1.83230345433861     -0.27891009415019
  N   -1.29728932603210      1.28535974430030      0.38233262248295
  H   -1.62523667991909      0.83472532844961      1.22943026176672
  H   -0.86519143749029      2.16318475466489      0.64262352793784
  N   -1.06235932511495     -0.73995918889597     -0.76251878865727
  H   -1.97785763940853     -0.41870429798612     -1.05197909504315
  H   -0.60424803079045     -1.13283649556737     -1.57423193975591
