14
Coordinates from ORCA-job run
  C   0.84949362109571     -0.06448339676168      0.53501104008366
  C   -0.59788774129067      0.09281228168132      0.04516808597617
  Cl  0.83123331148439     -0.03585994391079      2.33671233452750
  H   -1.19800907666085     -0.69945970443869      0.52128320711182
  H   1.41158521503859      0.81549513397935      0.21337923496605
  N   1.55076450554944     -1.23840029087965      0.09898714995881
  H   1.00329283146184     -2.07622674743937      0.25465396367967
  H   1.78749216804724     -1.15145455415216     -0.88056676597269
  N   -0.55579017718886      0.01547875934129     -1.41023979850059
  H   -0.45433227914400     -0.94436275147278     -1.71349709883172
  H   -1.44649653522225      0.35569378954590     -1.75360589974078
  N   -1.22495352038679      1.35773031373021      0.36566861696958
  H   -1.31332676973389      1.46236610325422      1.36793495730510
  H   -0.64106555304991      2.11167100752285      0.01811097246743
