14
Coordinates from ORCA-job run
  C   0.75857775128607     -0.04026743609335      0.38759029099396
  C   -0.75519755115018      0.10398534465272      0.15322586297083
  Cl  1.12549613968501      0.24597779714380      2.11871999986599
  H   -1.23693881858579     -0.59057717114026      0.84866703112178
  H   1.27937263820039      0.76273593504520     -0.15560106455374
  N   1.19712343320101     -1.38416529387172      0.04660789444912
  H   2.05215324115981     -1.60770171293543      0.54024057283563
  H   1.40373819323454     -1.41958397243595     -0.94447237719420
  N   -1.11886019395912     -0.29826577620669     -1.19240430230106
  H   -0.92559178976345     -1.28251007657136     -1.32073273009060
  H   -0.60330153230292      0.23216364114080     -1.88693776514975
  N   -1.27466027757561      1.43451999506687      0.39763951934936
  H   -0.97887397940122      1.76332270982945      1.30809820988247
  H   -0.92303725402853      2.08236601637592     -0.29864114217980
