14
Coordinates from ORCA-job run
  C   0.74122651755878     -0.22627131434016      0.66803021959188
  C   -0.36292364982246      0.44507804914611     -0.17539298782305
  Cl  0.03481274156090     -1.52176914042022      1.67594912059331
  H   0.18801921352060      1.16674882828187     -0.80731387118536
  H   1.15551974412803      0.51141379883510      1.36245287135225
  N   1.83752338109699     -0.78680363087565     -0.08336629587800
  H   1.49441570607632     -1.46655449477086     -0.75126859473262
  H   2.33006794724188     -0.05267287175110     -0.57870553587052
  N   -1.34557827948599      1.05645639792146      0.69216266729225
  H   -2.03920916470124      1.51736283523038      0.11711956275358
  H   -0.92158004994174      1.73951928279969      1.30769087104076
  N   -1.09252653037554     -0.41435314956227     -1.07874358607643
  H   -0.49267625939080     -0.80323302139600     -1.79401991732782
  H   -1.52509131746572     -1.16392156909834     -0.55159452373021
