14
Coordinates from ORCA-job run
  C   0.62282459962148     -0.22484113498727      0.70244821121367
  C   -0.79801220195554      0.14562527619889      0.24510032121118
  Cl  0.56308445514901     -1.89185406221394      1.49212347882331
  H   -1.45099090351514      0.05929065532420      1.11932544214466
  H   0.93363045226290      0.43601712628776      1.51229565610050
  N   1.54184455638333     -0.13606865060463     -0.37135835995754
  H   2.49567613632630     -0.28892792468651     -0.07378310598852
  H   1.31127535899465     -0.80089634820656     -1.09832427918625
  N   -1.32042203653386     -0.71056571803580     -0.80496477871595
  H   -1.04554859826332     -1.67806379175621     -0.70076750019165
  H   -1.06999591012055     -0.34833444908330     -1.71361741657927
  N   -0.81738321299550      1.51754081995305     -0.22923988572705
  H   -1.06186358723451      2.15814806849504      0.51197900918620
  H   0.09588089188074      1.76193013331530     -0.59321679233331
