14
Coordinates from ORCA-job run
  C   0.80515740575980     -0.07775245322318      0.45615606219909
  C   -0.68909961172616      0.10029125947095      0.09409557740902
  Cl  0.98088840400888      0.08629632227772      2.24552037190987
  H   -1.23786303804057     -0.68772456231258      0.62566556830138
  H   1.37171857069072      0.75007317076721      0.01687051757272
  N   1.42327521850288     -1.31363768271630      0.06428773106445
  H   1.61309315724382     -1.32914873995058     -0.92786825854674
  H   0.85316274144904     -2.10937451818237      0.32444722352536
  N   -0.92317985405438     -0.07910527822778     -1.32872048965178
  H   -0.41719567252129      0.61792515204401     -1.86512821401881
  H   -0.61805730493962     -0.99426056680681     -1.63067160067953
  N   -1.25866778327800      1.37529464407279      0.48371450002981
  H   -0.80574285688087      2.12589861634620     -0.02754221550068
  H   -1.09548937621426      1.53622463644072      1.46917322638583
