14
Coordinates from ORCA-job run
  C   0.78639813024770     -0.17413629880148      0.64349399026176
  C   -0.29026367086205      0.53081811906701     -0.19879802342665
  Cl  -0.03577751042847     -1.29950265900398      1.79654088308376
  H   0.27489761642181      1.18190609544142     -0.87845462244350
  H   1.28015646705132      0.57530715354128      1.26303652992604
  N   1.77709599587201     -0.91369554745557     -0.08217704223873
  H   1.34960093936864     -1.49395858315935     -0.79244146093455
  H   2.44477429675757     -0.28432125580859     -0.50870348224635
  N   -1.07803297321463      1.38443055506149      0.66281966725523
  H   -1.54806782740711      0.81987803773088      1.36140741917963
  H   -1.79562008020720      1.82325304046435      0.09786910665855
  N   -1.10185976014979     -0.33519853481488     -1.04264598339900
  H   -1.48909250957069     -1.10011819668572     -0.50198732775890
  H   -0.57420911387911     -0.71466192557686     -1.81895965391728
