14
Coordinates from ORCA-job run
  C   0.90743125241923     -0.01739852909359      0.48941707573921
  C   -0.37394946690993      0.47238385886678     -0.20644967087325
  Cl  0.43418638842776     -1.00949044786999      1.92631319388027
  H   -0.01511635928439      1.05110781861223     -1.06753722557937
  H   1.43182776766162      0.85081852441392      0.89008666739332
  N   1.81165867937425     -0.78634922474720     -0.31402541634597
  H   2.32216677968689     -0.18372193693162     -0.94643858007560
  H   1.31748313467665     -1.49613934932690     -0.83923332344444
  N   -1.06685912174204      1.38830734120773      0.67266449131134
  H   -1.33737089769874      0.90413151811161      1.52115037046160
  H   -1.91849472133234      1.68323277486238      0.20974824551500
  N   -1.23926388246196     -0.56801519652618     -0.74447921614325
  H   -0.83255532121351     -1.02250408770175     -1.55261320063024
  H   -1.43914423160350     -1.26736306387742     -0.03860341120863
