14
Coordinates from ORCA-job run
  C   0.68215222687472     -0.40517635010627      0.77509922875906
  C   -0.68089441741572      0.16159626488416      0.33884192113176
  Cl  0.42001835115828     -2.09801084350299      1.34809269596264
  H   -1.34403617464600      0.09615276583722      1.20644968079970
  H   1.01572102709930      0.15856997216142      1.64627999181191
  N   1.72894052710950     -0.39129600785101     -0.20011254379513
  H   1.42848719884631     -0.72832647130150     -1.10422335149340
  H   2.16158120477364      0.51831889948044     -0.27025149047521
  N   -1.35187554916654     -0.52798402334666     -0.75431522645666
  H   -1.52743229897354     -1.49712107526966     -0.51531785688527
  H   -0.78441009297438     -0.50684295990850     -1.59458255978523
  N   -0.46250653416774      1.56731729093873      0.05193902420116
  H   -1.36255794461899      1.99846050345159     -0.12459754441678
  H   0.07481247610116      1.65434203453303     -0.80430196935853
