11
Coordinates from ORCA-job run
  C   -0.43854448148240     -0.07677134365162      0.44690867513607
  C   0.74283258690362     -0.01969858006591     -0.52633745973169
  H   -0.38986415072307     -1.01764493320143      0.99980449097005
  H   0.69572284406340      0.89613540407847     -1.12374909710800
  H   -0.34170791596009      0.73685050449145      1.17902762107146
  H   0.67633717764565     -0.86197186545260     -1.21862994113686
  N   -1.67861595078026     -0.05607288166474     -0.32259514904405
  H   -2.45382015871070     -0.34559935151687      0.25965736281885
  H   -1.87588859351521      0.88662516148315     -0.63572973158142
  C   2.02579197633329     -0.05526877179400      0.17392341211702
  N   3.03775666622578     -0.08658334270589      0.76671981648859
