11
Coordinates from ORCA-job run
  C   -0.48027810775730      0.40714357754183     -0.03636881275799
  C   0.78602503292820     -0.45392984882783     -0.07460562513134
  H   -0.41273875034073      1.11038622753009      0.80515843809194
  H   0.83668151354350     -1.08964106567751      0.81482979538272
  H   -0.52624972908875      1.00121888394964     -0.95191837371222
  H   0.74143275274872     -1.11470854595145     -0.94318814324294
  N   -1.64295177239049     -0.47445750012054      0.00197284090832
  H   -1.76899849830061     -0.84071186222611      0.93769832637176
  H   -2.47996215499748      0.04403709524152     -0.23091365772638
  C   1.99707452443314      0.36284457666594     -0.13559415881178
  N   2.94896518922181      1.04681846187441     -0.18607062937209
