11
Coordinates from ORCA-job run
  C   -0.45750683569831      0.10908250625423      0.42019292101017
  C   0.76327100658052     -0.22795159611827     -0.44151567150922
  H   -0.45018080783280     -0.53445503720359      1.30284535250077
  H   0.70612409209839     -1.27532506526693     -0.74614009458628
  H   -0.37458176357228      1.14643896105015      0.77274806453572
  H   0.75910743353627      0.37635647364158     -1.35397769571171
  N   -1.66468168008599     -0.17506263393019     -0.34954074709944
  H   -1.83247400123620      0.56779398051056     -1.01709016573460
  H   -2.46784893400242     -0.21149116104456      0.26467301478258
  C   2.01596071072468      0.01215695407605      0.27304314699883
  N   3.00281077948814      0.21345661803098      0.87476187481318
