16
Coordinates from ORCA-job run
  C   -0.72834601972921     -0.23683929109864      0.39521846213863
  C   0.77260750440304      0.06147817621693      0.39037932577544
  Cl  -1.16742861644435     -0.96854842806216      1.94745098903820
  H   1.10733906771902      0.48263221898272      1.33327567664686
  N   -1.13456429772040     -1.05968258472819     -0.65323032990644
  H   -0.91300460631572     -0.64531061774304     -1.55053482848528
  H   -2.11914899974057     -1.28348522946891     -0.59205967541966
  N   -1.43250708008331      1.16759073646398      0.42962946981231
  O   -0.83799151306326      2.06545537365353      1.01244633272238
  O   -2.53022209614447      1.22271177816671     -0.09999679849536
  N   1.16925939804267      1.02020654102642     -0.69208117170589
  O   0.40267702910892      1.16668341787891     -1.63945440568781
  O   2.25970741638047      1.55314470147454     -0.53587772203190
  N   1.53984330618034     -1.20927298255103      0.14029727028113
  O   1.81002632353712     -1.47282525488254     -1.02383465584184
  O   1.80175318386970     -1.86493855532923      1.13937206115922
