16
Coordinates from ORCA-job run
  C   -0.80512381443362     -0.32660666450051      0.11894955306858
  C   0.70024124762156     -0.41188776847302     -0.13336199334917
  Cl  -1.18712941619533     -1.75106421880088      1.15613003595895
  H   0.92017547457335     -1.37744440790224     -0.58700108920185
  N   -1.52847204453787     -0.25073076222828     -1.07618134020613
  H   -1.13826370349542     -0.77381283884955     -1.84602855448442
  H   -2.51159904657519     -0.44760258633340     -0.94231108261715
  N   -1.17655842483037      0.95656462041283      0.90034668672695
  O   -2.06127224163670      0.89200131037114      1.73406963398551
  O   -0.58726101506161      1.94946915372222      0.50308006247064
  N   1.53192536798334     -0.34518398141959      1.11245009205931
  O   2.63644487749041     -0.86585242839888      1.00046577989533
  O   1.07359955735078      0.22521468497777      2.09284484287089
  N   1.24498232934152      0.61661952372963     -1.10140654294077
  O   1.96864136062271      1.49736319073885     -0.66829145134090
  O   0.92166949178245      0.41395317295390     -2.26575463289578
