16
Coordinates from ORCA-job run
  C   -0.76161043558079     -0.33301812974277      0.22810109178678
  C   0.68844514828901      0.05583544168121      0.52520443344656
  Cl  -1.38990243815903     -1.29491974383749      1.57616126197339
  H   0.82390038933964      0.36481943661778      1.55701676273434
  N   -0.91599518677447     -1.02931889294907     -0.96891765618042
  H   -0.58427603545287     -0.48359275311232     -1.75509851166392
  H   -1.87427350290285     -1.32080403497373     -1.11006109806848
  N   -1.57761965436342      1.00731748906463      0.30998883426875
  O   -1.16767849148611      1.85201242542100      1.09598795626229
  O   -2.57117339883166      1.06675008170490     -0.39562228381361
  N   1.17764420614203      1.17542630517497     -0.34330017453836
  O   0.57092041538848      1.40134221711939     -1.38617037748537
  O   2.17782613391740      1.74865079367217      0.06747474317931
  N   1.59108393631310     -1.11916549657234      0.25959026679361
  O   2.07311533278352     -1.20432191323794     -0.86203465345731
  O   1.73759358137801     -1.88701322603039      1.20067940476247
