16
Coordinates from ORCA-job run
  C   -0.68949953629796     -0.36001236950939     -0.02229454171844
  C   0.70736464199025      0.26578425461364     -0.01064872795536
  Cl  -0.67120615100581     -2.08382635453305      0.24154118236325
  H   0.62018181916684      1.35147762129956      0.02289055408041
  N   -1.29186093965568     -0.06258427862139     -1.26784112455439
  H   -2.17259850120619     -0.54723245665091     -1.38495494842138
  H   -1.40537832067329      0.93604495265002     -1.40161594371626
  N   -1.48706593793220      0.33003116544097      1.14904669222556
  O   -2.16451570351374     -0.34601999098098      1.89816363932314
  O   -1.41619236848201      1.55560502915646      1.11394903989910
  N   1.42791704845140     -0.07654478815617     -1.27550433768966
  O   1.53985257845182      0.84790621432538     -2.07520582619823
  O   1.81196912718270     -1.22930711941881     -1.40839100734611
  N   1.53421795211100     -0.12800083781165      1.17834508301271
  O   0.91093556093618     -0.27589718953079      2.22251931234916
  O   2.74487873047668     -0.17842385227286      1.01900095434651
