16
Coordinates from ORCA-job run
  C   -0.75591447043724     -0.26929030676642      0.23736485504510
  C   0.72062936620647      0.06648339393508      0.49108617053637
  Cl  -1.39605938051439     -1.09398163335209      1.72525481387302
  H   0.93859992702533      0.23269237074620      1.54329922752498
  N   -0.96916752015256     -0.94480644763248     -0.96438821204306
  H   -0.75568917455552     -1.93041559334192     -0.88537341198752
  H   -1.91465565635846     -0.79986582732922     -1.29714515366071
  N   -1.53020748505555      1.05848007931752      0.21164993992395
  O   -2.50139747694058      1.11938595086343     -0.52529648950960
  O   -1.13352500691586      1.91241982505714      0.99102820253545
  N   1.18401152718942      1.28802534842402     -0.24752540702754
  O   2.08500147674562      1.90932304897078      0.30321887337413
  O   0.65726184535177      1.53225772907538     -1.32486265980498
  N   1.58452114567771     -1.08064795083178      0.01437454561684
  O   1.24812435849591     -2.18409199216502      0.42530240161585
  O   2.53946652423793     -0.81696799497064     -0.69998769601228
