16
Coordinates from ORCA-job run
  C   -0.74699358022728     -0.18675695744840      0.22983052746625
  C   0.73905742200662      0.11937777191595      0.37451431552810
  Cl  -1.17006704072709     -1.30729563164518      1.61051309390019
  H   0.93180402460917      0.68845862321641      1.28133441933214
  N   -1.09437074821677     -0.60036855921188     -1.04557073184434
  H   -2.09509943389258     -0.64048510379381     -1.18344397889856
  H   -0.62349465089603     -1.45586625561014     -1.30857423475928
  N   -1.54427230574397      1.09092635310716      0.57468760666454
  O   -2.57048149878608      1.26638469936263     -0.06307186637278
  O   -1.11275074200676      1.77471464694465      1.48797154102941
  N   1.19790555219505      0.95258618411314     -0.80197607811317
  O   0.57610230254814      1.99399855018719     -0.94881101480715
  O   2.13210405349617      0.53620169820261     -1.47090125455129
  N   1.57863176578323     -1.11599173591708      0.41519837213636
  O   2.51163886847487     -1.09724802916991      1.20993746271186
  O   1.29028601138332     -2.01963625425335     -0.36263817942229
