17

C	-0.196509	0.053471	-1.500898
C	0.0	0.0	0.0
Br	-2.164986	0.288249	-1.978396
H	1.099044	0.0	0.0
H	-0.371571	-0.947765	0.403804
N	0.515281	1.145821	-2.134727
H	1.49283	1.007907	-1.843715
H	0.219908	2.018708	-1.709734
C	0.267836	-1.242219	-2.131882
H	-0.313191	-2.091387	-1.766587
H	0.190847	-1.180426	-3.218344
H	1.317832	-1.371064	-1.838079
C	-0.506797	1.177332	0.811994
H	-1.598082	1.25067	0.801335
H	-0.09321	2.119919	0.443031
H	-0.171098	1.074638	1.84804
H	2.950511	0.0	0.0
