17

C	-0.35976	-0.049587	-1.488803
C	0.0	0.0	0.0
Br	-0.262807	1.84598	-2.162079
H	1.095254	0.0	0.0
H	-0.389922	0.896575	0.487631
N	0.60179	-0.802198	-2.261848
H	0.412407	-1.788841	-2.119144
H	1.531008	-0.614493	-1.869064
C	-1.770018	-0.517906	-1.810148
H	-1.951475	-0.451121	-2.884065
H	-2.510425	0.086789	-1.281795
H	-1.885758	-1.562277	-1.498467
C	-0.438016	-1.255889	0.751037
H	0.029622	-1.252245	1.739655
H	-0.084135	-2.159225	0.244428
H	-1.522626	-1.333667	0.88274
H	3.03074	0.0	0.0
