14
Coordinates from ORCA-job run
  C   0.88848966521034     -0.85562148705433     -0.05473048754896
  C   -0.38455930699922     -0.06820559371795      0.26800818232269
  H   0.76699923183081     -1.90433418963017      0.21741533542688
  H   -0.62165243204083     -0.17680696606840      1.33174139693932
  H   1.08459307173927     -0.81775545401286     -1.13083839392013
  C   2.02757600489467     -0.29104167905688      0.66421063365779
  N   2.92650037083768      0.17754536553357      1.25522943818043
  N   -1.54748493208217     -0.74192511299069     -0.43608666553189
  O   -1.46908620002651     -1.95419228479511     -0.62208057406346
  O   -2.50998653213694     -0.04076867014781     -0.72953968270496
  C   -0.30896622632846      1.39466103826299     -0.11879587753691
  H   -0.14214076084943      1.49847546201774     -1.19323178481959
  H   0.51921293495266      1.86734183270288      0.41150859167109
  H   -1.23049488900186      1.91262773895704      0.13718988792768
