14
Coordinates from ORCA-job run
  C   0.91721896189638     -0.80501595045074     -0.19672899972731
  C   -0.35186295928895     -0.11631223185200      0.30892047055897
  H   1.02553260527388     -0.63246439778209     -1.26975293741608
  H   -0.50473676282250     -0.31772458549657      1.36996303420137
  H   0.85160234517285     -1.88594268153651     -0.04076117664923
  C   2.08581785271184     -0.28847360629535      0.51035379861547
  N   3.00661848745129      0.14852243903821      1.09186118874490
  N   -1.52644791924183     -0.75454163685516     -0.37560334388173
  O   -2.49420854807843     -1.04100444061977      0.32412918661374
  O   -1.44592033616012     -0.90915848602555     -1.59246695105191
  C   -0.38528360976571      1.37390239064469      0.01905685245020
  H   0.43337183870568      1.87209815169177      0.54115701821506
  H   -1.32715932650994      1.80523641218838      0.36319273434441
  H   -0.28354262934444      1.55187862335068     -1.05332087501786
