14
Coordinates from ORCA-job run
  C   0.91295557994319     -0.82589580536107     -0.14488316119092
  C   -0.35568268706240     -0.10078351423338      0.30537079628058
  H   0.83094106816154     -1.89809022749465      0.05610774404543
  H   -0.52965732502266     -0.24986064899216      1.37196541984324
  H   1.04462104589186     -0.70420422993800     -1.22204788064738
  C   2.07457997484877     -0.29260128171652      0.56143144076950
  N   2.99141914285593      0.15650714572933      1.14000798527403
  N   -1.53294175677911     -0.74902178540107     -0.36694383101089
  O   -1.40012514695352     -1.07586061698932     -1.54443687368658
  O   -2.55789413838185     -0.86136379397080      0.29983465746775
  C   -0.36802078879155      1.37588566749859     -0.05037801797413
  H   0.45441375295996      1.88641824715474      0.45337380462827
  H   -1.30632429289345      1.83278786922317      0.26877379545017
  H   -0.25728442877671      1.50508297449113     -1.12917587924907
