14
Coordinates from ORCA-job run
  C   0.98722756027852     -0.73055457647882     -0.14165108820401
  C   -0.38329469746404     -0.16802545461602      0.24020743788316
  H   1.23318633315851     -0.43458351108546     -1.16386087469586
  H   -0.67062493610959     -0.49503990445763      1.24030308589458
  H   0.97213469265962     -1.82406417213930     -0.10873840690602
  C   2.00798823004150     -0.23692006516420      0.77856069063578
  N   2.80633076672114      0.17806738771190      1.53185947982248
  N   -1.40465774098396     -0.78407068889945     -0.67259923233822
  O   -1.14381023803185     -0.79487384764643     -1.87384951479232
  O   -2.44011118218283     -1.19623906534137     -0.15663694916701
  C   -0.47460635718227      1.34160189511919      0.10442722165674
  H   -0.23383623513705      1.64352035051900     -0.91673182236250
  H   0.22649553550998      1.81906658950072      0.79094573898360
  H   -1.48242173127767      1.68311506297787      0.34776423358958
