14

C	0.0	0.0	0.0
C	-0.433129	-0.109465	-1.450783
Br	2.042942	0.0	0.0
H	-1.531081	-0.187539	-1.357116
H	-0.188844	0.852093	-1.9212
N	-0.637149	1.113517	0.575764
H	-1.691761	0.847734	0.40109
H	-0.50778	1.094755	1.58444
C	-0.241001	-1.276527	0.710301
N	-0.419877	-2.242864	1.356288
N	0.100326	-1.288326	-2.113736
H	-0.525781	-1.566424	-2.856889
H	1.008915	-1.090862	-2.512186
H	-2.933647	0.0	0.0
