14

C	0.0	0.0	0.0
C	-0.4794	-0.049856	-1.44855
Br	1.953491	0.0	0.0
H	-1.561502	-0.233451	-1.336964
H	0.00468	-0.886474	-1.961252
N	-0.620284	1.116166	0.636277
H	-1.659355	0.880922	0.504225
H	-0.427017	1.093946	1.633479
C	-0.307666	-1.300849	0.644235
N	-0.485608	-2.33504	1.175896
N	-0.163488	1.211684	-2.127508
H	-0.385988	1.944779	-1.459977
H	-0.828555	1.313574	-2.887637
H	-3.004432	0.0	0.0
