14

C	0.0	0.0	0.0
C	-0.524817	-0.130911	-1.468489
Br	1.958987	0.0	0.0
H	-1.226631	-0.973339	-1.46031
H	0.301737	-0.344864	-2.149079
N	-0.510729	1.113938	0.740337
H	-0.46405	1.902442	0.097039
H	-1.525205	0.882718	0.799625
C	-0.311388	-1.246789	0.726618
N	-0.457206	-2.276164	1.274411
N	-1.185745	1.113478	-1.841467
H	-1.349507	1.093303	-2.843199
H	-2.103481	1.029506	-1.37136
H	-2.98767	0.0	0.0
