14

C	0.0	0.0	0.0
C	-0.47513	0.004787	-1.457195
Br	1.961759	0.0	0.0
H	-1.565638	0.127741	-1.347074
H	-0.038866	0.888724	-1.936174
N	-0.563155	1.060352	0.781067
H	-0.421196	1.925232	0.263251
H	-1.594825	0.842684	0.724613
C	-0.350526	-1.291416	0.622511
N	-0.535464	-2.360016	1.07372
N	-0.080732	-1.201412	-2.183937
H	-0.17038	-1.025617	-3.177557
H	-0.755577	-1.925284	-1.955342
H	-3.025132	0.0	0.0
