14

C	0.0	0.0	0.0
C	-0.645865	-0.055804	-1.41517
Br	2.043722	0.0	0.0
H	-1.153212	-1.028148	-1.474927
H	0.145559	-0.020863	-2.166811
N	-0.473694	1.081762	0.709866
H	-0.04706	1.28768	1.596205
H	-0.780377	1.841147	0.114804
C	-0.216971	-1.263795	0.729619
N	-0.35057	-2.284585	1.296377
N	-1.564541	1.059831	-1.55412
H	-1.81315	1.151073	-2.533357
H	-2.435224	0.761219	-1.013036
H	-3.492219	0.0	0.0
