14

C	0.0	0.0	0.0
C	-0.309198	-0.438185	-1.495772
Br	1.952153	0.0	0.0
H	0.422506	0.086918	-2.118103
H	-0.070965	-1.506615	-1.561233
N	-0.582062	1.231437	0.427977
H	-0.464039	1.913716	-0.316093
H	-1.601125	1.019572	0.486533
C	-0.373905	-1.068944	0.935737
N	-0.581356	-1.967878	1.663804
N	-1.626823	-0.17847	-2.008805
H	-2.34967	-0.32256	-1.267775
H	-1.704843	0.811272	-2.218341
H	-3.251103	0.0	0.0
