16

C	-0.311641	-0.013921	-1.414127
C	0.313961	-0.421833	-0.09332
Br	-1.921736	1.031446	-1.07713
H	1.214179	-0.987352	-0.344713
H	0.636276	0.497756	0.408411
C	0.638173	0.793042	-2.274066
H	0.987401	1.649059	-1.690288
H	0.147552	1.12382	-3.192098
H	1.500083	0.170032	-2.520841
N	-0.697267	-1.294822	-2.159591
O	-1.85197	-1.511084	-2.498444
O	0.25488	-2.039658	-2.383674
N	-0.587846	-1.294933	0.65992
H	-0.046658	-1.765157	1.375019
H	-1.267678	-0.717956	1.141476
Cl	2.097933	2.588747	0.548073
