16

C	-0.448739	0.000788	-1.497885
C	-0.124258	-0.177622	-0.017229
Br	-2.380859	0.281974	-1.747251
H	0.905078	-0.551023	0.019193
H	-0.789733	-0.93665	0.395006
C	0.315709	1.125656	-2.139334
H	0.032653	2.044696	-1.628039
H	0.097933	1.199215	-3.203174
H	1.384563	0.972459	-1.969092
N	-0.173535	-1.319998	-2.208105
O	-0.484874	-2.348522	-1.612351
O	0.329183	-1.282714	-3.327923
N	-0.258468	1.095083	0.670956
H	-0.569924	0.924102	1.617689
H	0.684174	1.485768	0.729958
Cl	2.995278	1.324064	0.332016
