16

C	-0.443937	-0.009919	-1.501713
C	-0.128741	-0.174943	-0.017283
Br	-2.372431	0.280454	-1.765262
H	0.897399	-0.552454	0.028136
H	-0.801152	-0.926405	0.397701
C	0.331164	1.103427	-2.150353
H	0.118565	1.168909	-3.215814
H	1.398176	0.945018	-1.973736
H	0.051563	2.029049	-1.648984
N	-0.171483	-1.340272	-2.194714
O	-0.504352	-2.359522	-1.594861
O	0.352006	-1.319198	-3.305357
N	-0.260297	1.104922	0.658062
H	-0.578404	0.944392	1.604452
H	0.684373	1.490346	0.719431
Cl	2.995916	1.306013	0.34229
