16
Coordinates from ORCA-job run
  C   0.81560493440599     -0.23257102357050      0.18624508416015
  C   -0.37884374915734      0.31101315112567     -0.15505312191882
  C   1.07795585570364     -1.63767347508950      0.66792661753223
  H   1.65503746025453     -1.61355332591126      1.59615767012824
  H   1.67017024488946     -2.18838534883850     -0.06809576338306
  H   0.15938852203602     -2.18964942545783      0.85491000212757
  C   2.00126722380248      0.57276478619755      0.08162356178973
  N   2.99813859967126      1.19490362472280      0.01086692954831
  C   -1.68030156434610     -0.43763598422982     -0.09620105536223
  H   -2.31210791667005     -0.02738210856860      0.69934259829277
  H   -1.56916941383014     -1.50673863385185      0.07255946999178
  H   -2.22819018041339     -0.29919210981032     -1.03338198828909
  C   -0.51033044857678      1.73720991701121     -0.61167590956186
  H   -0.88401515951140      1.76906853447007     -1.64096284007448
  H   0.43101608018709      2.28486067010967     -0.57084574006121
  H   -1.24562048844525      2.26296075169124      0.00558448507997
