16
Coordinates from ORCA-job run
  C   0.83914754961693     -0.22020902197319      0.12800563728331
  C   -0.37483636601345      0.33947145231614     -0.09460338918817
  C   1.09035345041974     -1.68849546082580      0.38732021092110
  H   0.29140528021887     -2.13076322857479      0.98259756303625
  H   2.02657480463571     -1.82295657033531      0.93073429815982
  H   1.17012949285150     -2.24483250238640     -0.55152916703775
  C   2.01120537097528      0.60620993818725      0.08382172067356
  N   2.99458452406044      1.25277603674054      0.05352057185762
  C   -0.56235647734798      1.80995131703754     -0.33249907648778
  H   0.36372936308362      2.37586115984084     -0.22942100963772
  H   -0.96164421216473      1.98159602085008     -1.33784408930108
  H   -1.29672696778106      2.21307082604241      0.37273399647104
  C   -1.63953942279511     -0.47210832440524     -0.09780930069602
  H   -2.19995071056415     -0.30785280303568      0.82989677070644
  H   -1.46477373193167     -1.54171123728322     -0.20679924681684
  H   -2.28730194726397     -0.15000760219514     -0.91812548994377
