16
Coordinates from ORCA-job run
  C   0.74278126902254     -0.25642154745707      0.37958979976490
  C   -0.49140167313909      0.15675802405314      0.00155432062011
  C   1.88773980077807     -0.59382785994542     -0.54588052955713
  H   2.54253080114898      0.27168855962442     -0.68669928388579
  H   1.53453253553669     -0.92295901573474     -1.52228016247239
  H   2.49303790128139     -1.39578613653532     -0.11919226754495
  C   1.04972887967076     -0.35580609593560      1.77856335501139
  N   1.33983789316245     -0.44943555183884      2.91566590218109
  C   -1.58079000601407      0.46208950953142      0.98894632361192
  H   -1.29693518955680      0.23228964128057      2.01600801367931
  H   -2.48166003923170     -0.10895420902338      0.74125304189860
  H   -1.85185316341377      1.52205330242020      0.93525146205371
  C   -0.87944614206550      0.32492136339788     -1.44110261879111
  H   -0.02545287588384      0.42094976583778     -2.11002697572532
  H   -1.50006195542896      1.21779434826498     -1.55680289454723
  H   -1.48358803586715     -0.52635409794003     -1.77584748629714
