14

C	-0.638273	0.144765	-1.358084
C	0.0	0.0	0.0
F	-1.99788	0.156303	-1.242262
H	1.089997	0.0	0.0
H	-0.340632	0.831398	0.617843
C	-0.20787	1.39115	-2.001695
N	0.099295	2.420419	-2.477053
N	-0.276569	-0.991021	-2.33532
O	0.915378	-1.094729	-2.566329
O	-1.202301	-1.631264	-2.804435
N	-0.470953	-1.235267	0.673802
O	-0.694441	-1.159004	1.877921
O	-0.564983	-2.252515	-0.009779
Br	3.374377	0.0	0.0
