14

C	-0.503998	0.124919	-1.419249
C	0.0	0.0	0.0
F	0.118811	-0.699331	-2.27535
H	1.088849	0.0	0.0
H	-0.364263	0.822663	0.611246
C	-1.963478	-0.016194	-1.553831
N	-3.129883	-0.095252	-1.666778
N	-0.19843	1.576378	-1.870656
O	0.483802	1.714342	-2.869434
O	-0.710049	2.44923	-1.180179
N	-0.467704	-1.25699	0.630907
O	-0.84753	-2.170433	-0.102213
O	-0.409208	-1.300076	1.854875
Br	3.359819	0.0	0.0
