14

C	-0.51072	0.005684	-1.415712
C	0.0	0.0	0.0
F	-0.141675	1.192258	-1.986034
H	1.089829	0.0	0.0
H	-0.351243	0.893533	0.513147
C	-0.054585	-1.103596	-2.253814
N	0.32049	-1.978571	-2.940927
N	-2.051875	0.045307	-1.452611
O	-2.613748	-0.504863	-2.390221
O	-2.580276	0.714218	-0.573648
N	-0.506874	-1.167758	0.74825
O	-0.244306	-1.211625	1.942125
O	-1.162087	-2.009112	0.12542
Br	3.354017	0.0	0.0
