14

C	-0.506692	-0.01169	-1.42129
C	0.0	0.0	0.0
F	-0.187396	1.118882	-2.079727
H	1.089021	0.0	0.0
H	-0.362628	-0.87919	0.533201
C	0.003685	-1.184654	-2.145645
N	0.367359	-2.11542	-2.763234
N	-2.045567	-0.165138	-1.481991
O	-2.49188	-1.083295	-0.807415
O	-2.658499	0.587391	-2.217266
N	-0.507628	1.189863	0.742492
O	-1.590671	1.659139	0.387709
O	0.168907	1.587006	1.681075
Br	3.393397	0.0	0.0
