14

C	0.0	0.0	0.0
C	-0.437171	0.312671	-1.417039
F	1.40632	0.0	0.0
H	-0.115887	1.340182	-1.631324
H	-0.278638	-1.024305	0.268781
H	-1.529707	0.286845	-1.423656
N	-0.49681	0.94636	0.944805
H	-0.995207	0.464289	1.679106
H	-1.19686	1.528915	0.502359
C	0.139302	-0.646838	-2.449295
H	-0.166864	-0.363764	-3.460773
H	1.230236	-0.660102	-2.410216
H	-0.223119	-1.663287	-2.270142
Br	-3.874757	0.0	0.0
