14

C	0.0	0.0	0.0
C	-0.510136	0.169691	-1.411965
F	1.419147	0.0	0.0
H	-0.05437	-0.609857	-2.031396
H	-0.297579	-0.972634	0.396586
H	-1.590445	-0.003568	-1.364428
N	-0.475152	1.012343	0.868462
H	-0.089267	1.912701	0.622807
H	-0.265821	0.803456	1.83329
C	-0.222914	1.547819	-1.998177
H	0.837173	1.804829	-1.913319
H	-0.493447	1.577053	-3.056302
H	-0.820207	2.310766	-1.494656
Br	-4.366038	0.0	0.0
