14

C	0.0	0.0	0.0
C	-0.345152	-0.362322	-1.43929
F	1.404436	0.0	0.0
H	0.221171	-1.266272	-1.691037
H	-0.313616	-0.783734	0.695561
H	0.069041	0.444583	-2.060773
N	-0.498381	1.248615	0.480077
H	-1.442693	1.113628	0.82756
H	-0.549854	1.921545	-0.276579
C	-1.82546	-0.559211	-1.720559
H	-1.983409	-0.835115	-2.766769
H	-2.424909	0.326326	-1.518566
H	-2.262649	-1.343248	-1.101332
Br	-4.896036	0.0	0.0
