14

C	0.0	0.0	0.0
C	-0.464157	0.309279	-1.408083
F	1.40637	0.0	0.0
H	-0.028465	-0.451374	-2.065795
H	-0.273277	-1.030641	0.263177
H	-1.55017	0.188856	-1.427237
N	-0.474368	0.978193	0.933402
H	-1.485903	1.029252	0.797223
H	-0.328235	0.633005	1.875501
C	-0.057805	1.704489	-1.870685
H	1.023859	1.839267	-1.794557
H	-0.355397	1.864745	-2.91073
H	-0.535887	2.467522	-1.257036
Br	-3.869591	0.0	0.0
