17

C	-0.60053	-0.012155	-1.411281
C	0.0	0.0	0.0
Br	0.007475	-1.628441	-2.392608
H	1.099959	0.0	0.0
C	-2.124824	-0.006915	-1.424177
H	-2.455434	0.906191	-0.9258
H	-2.49487	-0.871309	-0.87263
H	-2.508748	-0.023493	-2.445195
C	-0.095674	1.129001	-2.173966
N	0.228621	2.050039	-2.829572
N	-0.537434	-1.135011	0.780304
H	-0.348729	-1.981241	0.249306
H	0.09597	-1.200437	1.574138
N	-0.425294	1.25903	0.610633
H	0.392373	1.661242	1.053464
H	-1.131392	1.065866	1.311976
F	2.647959	0.0	0.0
