17

C	-0.306388	0.061069	-1.485597
C	0.0	0.0	0.0
Br	-2.267318	0.4206	-1.801246
H	1.097396	0.0	0.0
C	0.530849	1.150286	-2.134628
H	1.55726	0.944064	-1.801547
H	0.21927	2.112879	-1.732361
H	0.444939	1.140028	-3.223615
C	-0.062493	-1.228298	-2.129502
N	0.153752	-2.216587	-2.727362
N	-0.503651	-1.226145	0.58805
H	0.102741	-1.48258	1.356639
H	-1.446549	-1.101261	0.940994
N	-0.371585	1.264627	0.625845
H	0.307024	1.44934	1.355164
H	-1.296383	1.208859	1.038316
F	2.647298	0.0	0.0
