17

C	-0.305316	-0.013452	-1.487108
C	0.0	0.0	0.0
Br	-2.261381	0.357971	-1.82404
H	1.102685	0.0	0.0
C	0.550016	1.026762	-2.191125
H	0.460335	0.960933	-3.277053
H	0.252614	2.01575	-1.839893
H	1.572399	0.822517	-1.845965
C	-0.083977	-1.337126	-2.068354
N	0.066687	-2.340421	-2.66151
N	-0.507588	-1.190539	0.647493
H	-1.464334	-1.059262	0.960763
H	0.073951	-1.394806	1.451364
N	-0.367711	1.299808	0.557983
H	0.321705	1.529766	1.263285
H	-1.283054	1.257685	0.99465
F	2.649343	0.0	0.0
