17

C	-0.536132	0.012577	-1.442091
C	0.0	0.0	0.0
Br	0.233882	-1.498843	-2.446967
H	1.093254	0.0	0.0
C	-2.053118	-0.102402	-1.521957
H	-2.497956	0.752561	-1.003129
H	-2.35462	-1.034656	-1.041555
H	-2.396537	-0.104177	-2.558737
C	-0.098332	1.223967	-2.137092
N	0.201351	2.165675	-2.772697
N	-0.437895	-1.217634	0.672244
H	-1.207956	-1.034934	1.309391
H	0.353755	-1.553717	1.212168
N	-0.415462	1.264396	0.609589
H	0.362823	1.596059	1.167971
H	-1.221816	1.14683	1.213678
F	2.621307	0.0	0.0
