17

C	-0.62557	0.010938	-1.402922
C	0.0	0.0	0.0
Br	0.07703	-1.502359	-2.453742
H	1.093302	0.0	0.0
C	-2.143912	-0.114862	-1.363677
H	-2.548647	0.73951	-0.813027
H	-2.569962	-0.122174	-2.368573
H	-2.398208	-1.045826	-0.855243
C	-0.248318	1.222553	-2.130519
N	0.015894	2.172964	-2.769416
N	-0.402183	-1.22097	0.699394
H	0.43099	-1.568467	1.160436
H	-1.099865	-1.028359	1.408745
N	-0.394372	1.263081	0.634754
H	-1.136955	1.130553	1.312385
H	0.425763	1.60972	1.119161
F	2.625909	0.0	0.0
