14
Coordinates from ORCA-job run
  C   -0.17469235587703      0.40958328385668      0.02535890335892
  C   1.20498543117061     -0.22042158622047     -0.18160493629472
  F   -0.10583780168250      1.08141288044407      1.26840241096942
  H   1.95492429631577      0.57592142654902     -0.21521774643435
  H   1.22121841050951     -0.73844970202704     -1.14295549979894
  C   -1.28813666324616     -0.60666772779483      0.13738606808961
  H   -1.10317129257013     -1.27669304102248      0.97700676781501
  H   -2.23396708246250     -0.09035670224910      0.31648967900879
  H   -1.36898379621155     -1.18583498957918     -0.78323732047527
  N   -0.41628573772290      1.31869883956328     -1.03967565558195
  H   0.26646575332569      2.06722836967747     -1.03337326854534
  H   -1.33933632129014      1.72623160993060     -0.95572662265198
  C   1.55623503149203     -1.15032843539891      0.88782885745897
  N   1.82658212824930     -1.91032422572912      1.73931836308183
