14
Coordinates from ORCA-job run
  C   -0.26094716442262      0.31622922024263      0.18846097710576
  C   0.86741952446277     -0.73296406693964      0.27312278500074
  F   -0.09941148815858      1.10615429186544      1.32492625695381
  H   0.80436829400139     -1.26116148941803      1.22824674334342
  H   0.74762042495776     -1.46618062198479     -0.52975698941034
  C   -1.62169157721762     -0.34232859178681      0.26261384791508
  H   -1.79583523934636     -0.98965397878622     -0.60031807908572
  H   -2.38223161255264      0.43806725254017      0.28157409678591
  H   -1.70157241154111     -0.93992478468897      1.17174414378096
  N   -0.19715592040272      1.20054583578997     -0.93462748839177
  H   -0.47885502314384      0.74064983438456     -1.78918102392841
  H   0.73056928401020      1.59250746571726     -1.04726883509252
  C   2.17869728186419     -0.10290504779082      0.15194337386327
  N   3.21002562748918      0.44096468085524      0.02052019115982
