14
Coordinates from ORCA-job run
  C   -0.23502882218989      0.34114128988316      0.17715221204395
  C   0.83251331249163     -0.76779734800626      0.28708207264345
  F   0.01486925133666      1.18411592799915      1.25785744604814
  H   0.64187070205113     -1.53808057077449     -0.46573882507240
  H   0.77413159093918     -1.23429245085925      1.27409333234197
  C   -1.62861877700670     -0.22768713025595      0.33605425049005
  H   -1.70907526092377     -0.76732349282511      1.28072231378723
  H   -1.87435571731510     -0.90978815030361     -0.48148925630168
  H   -2.33982310555918      0.59826654517223      0.33665272537322
  N   -0.16133693037749      1.15424044338502     -0.99824076741805
  H   -0.49803216074108      0.66181676576363     -1.81405140517754
  H   0.78312805823978      1.48221915594885     -1.16431431262812
  C   2.17243436304460     -0.22422632753916      0.08580256687969
  N   3.22732349601023      0.25039534241179     -0.11058235300991
