13

C	0.0	0.0	0.0
C	-0.174402	0.198277	-1.532102
Br	1.97025	0.0	0.0
H	0.204152	-0.694017	-2.028614
H	0.399964	1.077494	-1.818673
C	-0.491971	1.126551	0.778822
N	-0.569313	2.108741	1.433501
C	-0.530747	-1.267216	0.475688
N	-0.584806	-2.375526	0.888736
N	-1.540216	0.438181	-2.091601
O	-2.111074	-0.514491	-2.622984
O	-1.924338	1.606328	-2.119885
H	-1.913493	0.0	0.0
