16

C	-0.440903	0.004154	-1.460975
C	0.0	0.0	0.0
Cl	0.381984	-1.217247	-2.378405
H	1.094607	0.0	0.0
N	-1.955466	-0.160442	-1.628874
O	-2.636204	0.021147	-0.62459
O	-2.369925	-0.413286	-2.75057
N	-0.15394	1.400433	-2.038591
O	-1.122504	2.134259	-2.191461
O	1.017804	1.653787	-2.248812
C	-0.444339	-1.248383	0.633297
N	-0.792831	-2.222985	1.189982
N	-0.408824	1.217	0.664688
H	-1.317523	1.130701	1.097004
H	0.295909	1.465089	1.347189
Cl	3.218404	0.0	0.0
