15
Coordinates from ORCA-job run
  C   0.88261434992454     -0.05021296813648      0.28654735721476
  C   -0.34464966989650      0.53480501227213     -0.45222696741138
  Cl  2.27766165989319     -0.24068252487510     -0.80408657176155
  H   -0.13956947528153      1.56663279343795     -0.73799048558287
  N   0.54474870942046     -1.34281951707737      0.83036252457272
  H   -0.07384287138708     -1.21407793494496      1.62397601670046
  H   1.38275101461611     -1.81468324212946      1.14850784855911
  C   1.26340161774284      0.94103214750036      1.31152889178021
  N   1.54574516829705      1.69976782650663      2.16371541742187
  N   -1.46955332468283      0.42777865656762      0.41136434417085
  H   -1.86184728401168     -0.50458471056410      0.33285372175956
  H   -2.18283772169725      1.10441126234672      0.17431540004616
  N   -0.55233363379472     -0.19646584325737     -1.77604875099890
  O   -0.03799462996694      0.30857043889921     -2.76938932131054
  O   -1.23229390917566     -1.21747139654581     -1.74542942516046
