15
Coordinates from ORCA-job run
  C   0.79336936246437      0.13114383326777      0.53625400902528
  C   -0.25609799160688      0.32357124904140     -0.57513376458487
  Cl  1.69837554675106      1.69955375970621      0.57099173881129
  H   0.28822514977892      0.49966901823235     -1.51512923746330
  N   1.75959887936311     -0.90402603363578      0.32170870196901
  H   2.20719534843158     -0.80329938051549     -0.58144273567882
  H   1.32148255090678     -1.81240606881672      0.40601560822801
  C   0.15242768000831     -0.04856014565824      1.84197200256505
  N   -0.33191558723189     -0.19297027663778      2.90180004090074
  N   -1.26076402202465      1.28649070736806     -0.23034436829450
  H   -0.83473059143327      2.16198906070447      0.04282927960443
  H   -1.87195194129059      1.44751832948723     -1.02147617347584
  N   -1.02111549055583     -0.95974314855320     -0.82783082020267
  O   -1.74567787814001     -0.92589491002540     -1.81698342195342
  O   -0.90042101542099     -1.90403599396489     -0.05323085945040
