15
Coordinates from ORCA-job run
  C   0.77683914521281      0.07531723551609      0.49427354780518
  C   -0.23780200329003      0.46867996185049     -0.60234879989219
  Cl  1.89952142921031      1.51667244285286      0.65740886945262
  H   0.31330445125297      0.79000873881923     -1.48710106780501
  N   1.43177283695312     -1.13227016619249      0.16185011129367
  H   2.09167290738237     -1.41614121711841      0.87391936117315
  H   1.88893787041550     -1.08387326987184     -0.74062599798098
  C   0.10346838297415     -0.06956997948413      1.78787117023326
  N   -0.44511863755850     -0.18483410295451      2.82009900182636
  N   -1.12935757747675      1.46667471849799     -0.15964395837100
  H   -1.77837000635355      1.10404352339036      0.52884211282524
  H   -1.63920624148035      1.88356506148606     -0.92589235886403
  N   -0.92603368749020     -0.82994842648965     -1.03349547209851
  O   -1.85915316971837     -1.21109570269705     -0.33448246547305
  O   -0.49047570003347     -1.37922881760498     -2.04067405412470
