15
Coordinates from ORCA-job run
  C   0.78884229679340      0.12965909975344      0.41848294901824
  C   -0.30990698225624      0.33675989059496     -0.63089493999127
  Cl  1.71999741629463      1.67062106895858      0.45012721336836
  H   0.19758078748197      0.51591127650086     -1.58771750004881
  N   1.70038517984277     -0.89939396622580     -0.01735088450630
  H   2.55150535917565     -0.85696901961132      0.53108225402113
  H   1.26426377796156     -1.80363841739887      0.12443188953032
  C   0.22783670357378     -0.05911970358025      1.76593532596342
  N   -0.14931034695892     -0.25949591788151      2.86087212224129
  N   -1.28333688785848      1.30546602369672     -0.21217090859594
  H   -0.83490025166152      2.18886600661744     -0.00749156892456
  H   -1.95892555745051      1.44714475398369     -0.95319923939664
  N   -1.09729584115896     -0.93632507771910     -0.85239644468418
  O   -0.90430883396354     -1.90590331273566     -0.12424551932140
  O   -1.91142681981559     -0.87358270495317     -1.76646474867367
