15
Coordinates from ORCA-job run
  C   0.58811651007301     -0.20990706407033      0.60708386379721
  C   -0.32597333951458     -0.01100948571791     -0.61970140935128
  Cl  -0.04830563365487      0.90649357287589      1.94020553170920
  H   -0.03024849346775     -0.75525540170574     -1.36133118124330
  N   1.90368495739300      0.07820689214369      0.19402490906390
  H   2.57497977213309     -0.00569885389689      0.94569044163657
  H   1.94233759176885      0.98692039765771     -0.25168218649223
  C   0.53366105367462     -1.56280693124457      1.16354182776022
  N   0.57754772240635     -2.63955550480548      1.63107262155524
  N   -0.17937024499141      1.30370127673953     -1.12395204585141
  H   -0.68757129130061      1.96237750900737     -0.54562438418714
  H   -0.52296799457448      1.36982311209753     -2.07235142677007
  N   -1.76429178429235     -0.38014122244261     -0.25277856651599
  O   -2.57850295563942      0.53265664185810     -0.16755989477064
  O   -1.98309587001344     -1.57580493849629     -0.08663810034028
