15

C	0.0	0.0	0.0
C	-0.508325	-0.067047	-1.450419
Cl	1.765166	0.0	0.0
H	0.060945	0.693431	-2.002418
H	-0.370872	-0.821349	0.607421
N	-0.416145	1.276794	0.67504
O	-0.757592	1.197004	1.850342
O	-0.347625	2.306844	0.008906
N	-1.896311	0.204127	-1.651401
H	-2.55288	-0.283435	-1.038004
H	-2.106569	1.186996	-1.552762
N	-0.236292	-1.435021	-1.894394
H	-0.878488	-1.603747	-2.659676
H	0.712392	-1.518084	-2.23834
Cl	-4.621505	0.0	0.0
