15

C	0.0	0.0	0.0
C	-0.472726	0.168715	-1.497964
Cl	1.752701	0.0	0.0
H	-0.058968	-0.73715	-1.961634
H	-0.352873	-0.987231	0.300731
N	-0.556775	0.9038	1.012445
O	-0.217923	2.279436	0.705134
O	-0.298822	0.591786	2.218786
N	0.035434	1.371785	-2.254723
H	0.073651	1.034222	-3.225957
H	-0.554886	2.412313	-0.199537
N	-1.884597	0.238308	-1.751262
H	-2.257938	-0.692318	-1.887071
H	-2.455576	0.623703	-0.995859
Cl	-4.441052	0.0	0.0
