15

C	0.0	0.0	0.0
C	-0.509449	-0.349317	-1.406909
Cl	1.767893	0.0	0.0
H	0.032512	0.310933	-2.097026
H	-0.369681	-0.690272	0.754246
N	-0.419469	1.380549	0.417455
O	-0.371923	2.260037	-0.438818
O	-0.74244	1.529908	1.591043
N	-1.905983	-0.162277	-1.633299
H	-2.159689	0.812857	-1.704377
H	-2.536736	-0.561082	-0.936904
N	-0.201579	-1.76844	-1.591848
H	0.749192	-1.88896	-1.916615
H	-0.834202	-2.090134	-2.31452
Cl	-4.637224	0.0	0.0
