12
Coordinates from ORCA-job run
  C   1.01119304981201      0.29918409725140      0.15185227881935
  C   -0.50301095271047      0.06004648066923      0.24018619964327
  Cl  1.84367629571816     -1.15567762295728     -0.45616374265486
  H   -0.94046487933629      0.99954995307511      0.59655577253377
  H   1.36950293527432      0.46792190946478      1.16936718848928
  C   1.31710951669038      1.44976158025846     -0.69053751467207
  N   1.53491044045856      2.39691303680556     -1.34986282462674
  N   -0.76698953309924     -0.96012255796285      1.23728281288419
  H   -1.75724255320200     -0.99017050375121      1.44709573944570
  H   -0.49593755898853     -1.87117211588830      0.88592193552253
  C   -1.06272841298801     -0.21627404326968     -1.09783830235061
  N   -1.54901834762888     -0.48096021369522     -2.13385954303381
