12
Coordinates from ORCA-job run
  C   0.78031185864128      0.81372802433900      0.21503122411863
  C   -0.56770790451813      0.08826997577484      0.39867333736478
  Cl  1.68961796099621      0.81739187969108      1.74162414592508
  H   -1.04355805830260      0.52737281076533      1.28060569528558
  H   0.60073520924352      1.85711434925085     -0.05422810376782
  C   1.55368322533773      0.16940791451424     -0.84263367963594
  N   2.13143333728974     -0.38119399583185     -1.70430013827803
  N   -0.35330353994474     -1.31963457295760      0.64683775424411
  H   -1.18974867334479     -1.74733327285198      1.02190769507087
  H   -0.10192585642751     -1.80368663835662     -0.20738775001890
  C   -1.41414134486762      0.38903168622580     -0.77601399609440
  N   -2.08639621410309      0.58853183943691     -1.71911618421397
