12
Coordinates from ORCA-job run
  C   0.77536854004236      0.68151300480254     -0.29489308127094
  C   -0.49328239579083      0.01692966927441      0.27755545527899
  Cl  0.91966746482417      2.36129665168924      0.27317730221619
  H   -0.46482610955156      0.13291896830451      1.37073486627196
  H   0.70087008029150      0.69325033362218     -1.38361554949452
  C   1.94230794611728     -0.09556120009277      0.11007136680071
  N   2.84536070223965     -0.75561791568181      0.46786287436436
  N   -0.51863032487437     -1.36048582768276     -0.19625751354508
  H   0.06232390746679     -1.94258854431720      0.39518543856534
  H   -1.45998644664627     -1.73129062369292     -0.18660789807740
  C   -1.67503877879874      0.72921255855429     -0.21714768809137
  N   -2.63613458531998      1.27042292522030     -0.61806557301822
