12
Coordinates from ORCA-job run
  C   0.77969533573351      0.71651087549004     -0.13038961583248
  C   -0.45172636005390     -0.10019744739285      0.30524249552666
  Cl  0.78072068474674      2.31704585707413      0.65028875093032
  H   -0.38163589130413     -0.24324883792375      1.38771241250362
  H   0.74162817198332      0.88418546514538     -1.21007059476845
  C   1.99875452975267     -0.01189788261822      0.20553264650909
  N   2.98752071501089     -0.57527334553490      0.49360353668235
  N   -0.39054841120824     -1.39429078387728     -0.34663301476256
  H   -0.76546572547959     -1.34731625852010     -1.28614097538911
  H   -0.91563107751726     -2.08641361510742      0.17130284822551
  C   -1.68644788556435      0.65476944076686      0.02034013964182
  N   -2.69586408609966      1.18612653249813     -0.26078862926675
