12
Coordinates from ORCA-job run
  C   0.94177430916837      0.23127951459128      0.11833320313906
  C   -0.59461206172861      0.03239322369295      0.21483024455525
  Cl  1.71289602857705     -1.18969920192051     -0.62888293571609
  H   -0.99023071169644      0.94821513263516      0.67095527369262
  H   1.33792887367582      0.30654040693981      1.13467939029353
  C   1.27590010203033      1.44502546447642     -0.61737830121742
  N   1.52018661163352      2.44809381306079     -1.17788270091784
  N   -1.03239101545262     -1.08923507275379      1.01145641886272
  H   -0.75944441553497     -0.97454631672695      1.97933710758463
  H   -0.65218206255435     -1.95777846501252      0.65683341095126
  C   -1.15914445566763     -0.06519439467136     -1.13792170105629
  N   -1.59968120245047     -0.13509410431131     -2.22335941017144
