12
Coordinates from ORCA-job run
  C   0.76882240929202      0.77807324064066      0.15507002645714
  C   -0.59322012369162      0.07700543270530      0.30247790267233
  Cl  1.64992911026090      0.67217636913601      1.70707148629316
  H   -1.11403257682278      0.58134693111269      1.13128764519347
  H   0.61419258029010      1.84179260928700     -0.03913912237285
  C   1.56045032044647      0.19192586427349     -0.92022926838760
  N   2.19254071205638     -0.25815137878258     -1.80116087166870
  N   -0.39521631674672     -1.34933244481918      0.48562815280313
  H   -0.04314212531856     -1.53170176558817      1.41729688522100
  H   -1.26680554453306     -1.84962339987783      0.36705615672862
  C   -1.36915019753703      0.31894628641382     -0.91941052535328
  N   -2.00336824769611      0.52754225549879     -1.88494846758641
