12
Coordinates from ORCA-job run
  C   0.73550647533000      0.62143622269178     -0.27924667708616
  C   -0.56251376798255      0.04087682070846      0.34609281698920
  Cl  0.94695819549447      2.32947651170027      0.17483799956062
  H   -0.51694620797570      0.23797691302104      1.42241424982502
  H   0.66581903891394      0.58096028959231     -1.36958650919038
  C   1.87703368249305     -0.17209627933563      0.16357891787899
  N   2.76734666210244     -0.84702420747602      0.52630492022981
  N   -0.75512684611961     -1.37681425972154      0.14381002303341
  H   -0.80204994008026     -1.61636829116434     -0.83841167108397
  H   -0.02540435347416     -1.91582487175761      0.59250693552098
  C   -1.71141901311349      0.77266268837736     -0.20318757928518
  N   -2.61820392558812      1.34573846336391     -0.67911342639235
