12
Coordinates from ORCA-job run
  C   0.76157571415847      0.84429348752147      0.17000875746723
  C   -0.56063290941118      0.08771331335335      0.41012097194538
  Cl  1.70713560078364      0.92127539904901      1.67273699777110
  H   -1.02628908531493      0.54107466926194      1.29025284434445
  H   0.54561901121815      1.87347799533800     -0.12583835088557
  C   1.52665345206944      0.18750184134167     -0.88571364393206
  N   2.09270054369251     -0.38539672777414     -1.74056485942487
  N   -0.30046324029404     -1.30503266843507      0.69516671506496
  H   -1.11085069000883     -1.74221731543593      1.11362864118880
  H   -0.06383280259910     -1.81081963858567     -0.15061375929702
  C   -1.44220275393883      0.32692153035949     -0.75292045801595
  N   -2.12841284035529      0.46220811400587     -1.69726385622648
