12
Coordinates from ORCA-job run
  C   0.79155251268636      0.60912303672137     -0.37355843069149
  C   -0.43058066335117      0.01263234066132      0.35064832578197
  Cl  0.91191170046261      2.35889122290929     -0.06485198731818
  H   -0.28254530779913      0.16954913577982      1.42325068996097
  H   0.67364756568590      0.47942814842498     -1.45263317402436
  C   2.00641541720865     -0.06819059251678      0.06759089205194
  N   2.99339206462984     -0.58911859077561      0.43141446731485
  N   -0.46535517684162     -1.41249968264241      0.08264124097994
  H   -0.97245863727811     -1.90479638365322      0.80612359668806
  H   -0.91117229885787     -1.60531997707016     -0.80585627375821
  C   -1.65527846070319      0.72754976567337     -0.05507978718639
  N   -2.65952871584229      1.22375157648806     -0.40868955979909
