12
Coordinates from ORCA-job run
  C   0.76482351201483      0.76931453386960      0.20307930583226
  C   -0.60572317751039      0.07389713679323      0.28225559957581
  Cl  1.58456633076645      0.62415081208450      1.78485440303256
  H   -1.15511199830356      0.56249630937483      1.10202272665793
  H   0.62415216104001      1.83784640680992      0.02528506099547
  C   1.59443402806509      0.20219630399006     -0.85394373168418
  N   2.26621857783915     -0.21506500511530     -1.72156734564349
  N   -0.42225139167420     -1.35733043516189      0.43979394168245
  H   -1.29067338833014     -1.85015727352470      0.27570433464590
  H   -0.10713790879229     -1.56337328129350      1.37971354589027
  C   -1.33217240023848      0.34722824538925     -0.96319359522662
  N   -1.92012434487647      0.56779624678401     -1.95500424575835
