12
Coordinates from ORCA-job run
  C   0.80560222748038      0.66187626243445     -0.22502645052990
  C   -0.44970126231416     -0.04332349587543      0.32334015593969
  Cl  0.89166281085883      2.33971957232164      0.36515765200769
  H   -0.36414496667021     -0.05992636364466      1.41396933812679
  H   0.75005346958776      0.70619299710331     -1.31593126208739
  C   2.00025817532681     -0.07687648713238      0.17036011700002
  N   2.97056100096037     -0.64901831726046      0.50079746259168
  N   -0.45560390596400     -1.40730142855392     -0.17011762208730
  H   -0.99744136994155     -2.00907582718404      0.43586615624514
  H   -0.84932162918697     -1.45618422629186     -1.10176690471656
  C   -1.65623027064625      0.72673280424939     -0.03269382821024
  N   -2.64469427949100      1.26818450983397     -0.36395481427961
