12
Coordinates from ORCA-job run
  C   0.97067553114633      0.08772922541604      0.08480369323131
  C   -0.57403813654666      0.12858485615374      0.23153896841079
  Cl  1.49121833113983     -1.45013431742129     -0.64762730756065
  H   -0.81001372361675      1.10391439524367      0.67465669754222
  H   1.40701201836887      0.12262235541361      1.08676273887019
  C   1.46043827932810      1.22020487678488     -0.69208792299142
  N   1.82646659095704      2.16255575639375     -1.29042411765595
  N   -1.15102001703469     -0.89529840204939      1.06998900381169
  H   -0.83112268648821     -0.80358795178065      2.02587084723998
  H   -0.92059958749519     -1.81927738168174      0.72669533064160
  C   -1.19178814711033      0.08843721952339     -1.10068683938084
  N   -1.67722845264835      0.05324936800398     -2.16849109215894
