12
Coordinates from ORCA-job run
  C   0.74873677314229      0.78954705131043      0.18286220559874
  C   -0.60211316319849      0.06023728510726      0.29132653720449
  Cl  1.59722518572961      0.68164352672588      1.75255721836569
  H   -1.15109247791714      0.54407446214888      1.11422529912328
  H   0.57802233833627      1.85230504928957     -0.00296957019415
  C   1.57526758750768      0.23277334539521     -0.88198186489996
  N   2.23943527145371     -0.17545207667904     -1.75970661802455
  N   -0.37976140420535     -1.36367891538001      0.46092429926071
  H   -0.04522162696053     -1.55227688435471      1.39770464165501
  H   -1.23669009042124     -1.88119474197031      0.31377927743050
  C   -1.35488855869366      0.30288255128457     -0.94496809738362
  N   -1.96891983477313      0.51013934712228     -1.92375332813613
