12
Coordinates from ORCA-job run
  C   0.73574629123300      0.60376538741414     -0.32258900163341
  C   -0.55082825144545      0.05980920950706      0.35764021227368
  Cl  0.97656372222522      2.32425160878818      0.06469535344336
  H   -0.47320111352506      0.29290893005338      1.42486954711753
  H   0.63625053406268      0.52563073713467     -1.40852130095798
  C   1.87937798328438     -0.18710344236650      0.11961044642538
  N   2.75710701439993     -0.87141545998252      0.49551057026556
  N   -0.76443531606436     -1.36151761718732      0.20984698695730
  H   -0.83945193378700     -1.63443592601401     -0.76187340997404
  H   -0.02934321955585     -1.89327699811718      0.65841781421824
  C   -1.70642005779207      0.78608391011756     -0.18486313036898
  N   -2.62036565303543      1.35529966065253     -0.65174408776663
