12
Coordinates from ORCA-job run
  C   0.80545454373553      0.64776740139972     -0.25983791432452
  C   -0.44355470953239     -0.03302403488808      0.33240178672776
  Cl  0.91774912792850      2.33900292252655      0.28728767304722
  H   -0.33466558652361     -0.02250291271664      1.42106146839238
  H   0.72659015280766      0.66722933092486     -1.35002855778517
  C   2.00198955333210     -0.09096805430879      0.12935761460887
  N   2.97412398463208     -0.66199767205697      0.45633785660087
  N   -0.47022534974227     -1.40846473657848     -0.12587004684476
  H   -1.01080903086439     -1.98955079320644      0.50103665560796
  H   -0.87487113651345     -1.47657814075803     -1.05159585276930
  C   -1.65142327939795      0.73913390608431     -0.01512080938891
  N   -2.64135826986184      1.29095278357801     -0.32402987387240
