12
Coordinates from ORCA-job run
  C   0.72151614651366      0.76272285409151      0.20603964060999
  C   -0.68056774830419      0.10282933625636      0.33308233604078
  Cl  1.56743946681552      0.64369938370872      1.77234013548278
  H   -1.18004601966883      0.59971422741170      1.17187371355905
  H   0.61858463469652      1.82659690015691     -0.02029107965672
  C   1.49686518094894      0.10356458714132     -0.83789382563540
  N   2.07796181325475     -0.46739070765257     -1.68412005815351
  N   -0.70383672025301     -1.31869167557543      0.56935082927904
  H   -0.25759746711654     -1.54272349267548      1.44931658757404
  H   -0.24620606806891     -1.82542916446352     -0.17925148080575
  C   -1.42651023637246      0.42129851613909     -0.89249970861119
  N   -1.98760298244542      0.69380923546139     -1.88694708968308
