12
Coordinates from ORCA-job run
  C   0.97265632442054      0.06746052360167      0.10059540248710
  C   -0.57245473111273      0.11262413911946      0.24214260681394
  Cl  1.47936167954812     -1.38824886912441     -0.79178414351511
  H   -0.79956703884385      1.03767518320687      0.78624634011412
  H   1.40181305909351     -0.01303521188799      1.10299533241953
  C   1.48054939797679      1.27121776431333     -0.54664594853738
  N   1.85029293892600      2.26705993844571     -1.04825224484235
  N   -1.16822256369523     -0.98804040226791      0.96136505568924
  H   -0.94879441859721     -1.87239623189084      0.52047700994448
  H   -0.85354279451488     -1.00524634971272      1.92317517632988
  C   -1.18165986362936      0.22341587733981     -1.09017605101082
  N   -1.66143198957170      0.28851363885699     -2.15913853589258
