12
Coordinates from ORCA-job run
  C   0.95514058701014      0.18849526947957      0.08618616054022
  C   -0.57604097012238      0.00651132749601      0.26277413768932
  Cl  1.62208502803006     -1.08476903295055     -0.96530028396172
  H   -0.90603226736845      0.83045720584472      0.90745126114481
  H   1.42544560569661      0.06670020408927      1.06572707814935
  C   1.27666657209501      1.51032092955522     -0.43911130152065
  N   1.51767034897034      2.59291219531430     -0.82620330102552
  N   -0.99370006082312     -1.23365032753583      0.87227936245572
  H   -0.67292436069697     -2.02940954497710      0.33512939422137
  H   -0.64572629393587     -1.30679645714691      1.81991462236321
  C   -1.24011630830191      0.17048438325414     -1.03734963561887
  N   -1.76246788055347      0.28874384757717     -2.08149749443722
