12
Coordinates from ORCA-job run
  C   0.73785454191945      0.75382336338873      0.15904287596290
  C   -0.66890776886556      0.12029687496670      0.35186952198758
  Cl  1.63237536460922      0.67021279854633      1.70060151831553
  H   -1.13392759267735      0.65107358018012      1.18973366608562
  H   0.64332701412136      1.81164878904192     -0.09723138146694
  C   1.46980123418547      0.05197904338120     -0.88830931118268
  N   2.02324736973808     -0.53301497642597     -1.74337421560397
  N   -0.70491024350046     -1.29259097245067      0.63369876928718
  H   -0.28155402927782     -1.82971923621266     -0.11387451345867
  H   -0.23105988813986     -1.49618497277915      1.50415903746807
  C   -1.44922922959331      0.41371424483034     -0.85848145775863
  N   -2.03801677251923      0.67876146353313     -1.83883450963600
