12
Coordinates from ORCA-job run
  C   0.72079687333224      0.77409959647473      0.16203738947246
  C   -0.67526124023826      0.11374478717652      0.34105491162692
  Cl  1.59385299487248      0.72539760439158      1.71718908689589
  H   -1.16360604568044      0.64425322337770      1.16576256451188
  H   0.60813071478153      1.82704048065794     -0.10683433592214
  C   1.48167420701674      0.07536656463825     -0.86664156000892
  N   2.04828619026264     -0.52895254577112     -1.69936962238036
  N   -0.68689349601805     -1.29656566879951      0.63796095366941
  H   -0.24757541302060     -1.83285032615092     -0.10095212591734
  H   -0.21594761723912     -1.48212396584454      1.51404713508348
  C   -1.44338149362038      0.37610474016677     -0.88405289232135
  N   -2.02007567444878      0.60648550968258     -1.88020150470991
