16

C	-0.222855	0.050706	-1.520325
C	0.0	0.0	0.0
Cl	-0.086984	1.813293	-1.999374
H	1.091576	0.0	0.0
H	-0.459413	0.842909	0.52705
N	0.85138	-0.652754	-2.195828
H	1.707186	-0.430312	-1.656217
H	0.674211	-1.638065	-2.015519
C	-1.576541	-0.428654	-2.001817
H	-2.374135	0.186995	-1.576772
H	-1.714218	-1.461764	-1.672682
H	-1.62487	-0.376323	-3.091357
N	-0.408281	-1.324191	0.501498
H	-1.246034	-1.25759	1.065976
H	0.341267	-1.659513	1.093726
F	2.736352	0.0	0.0
