16

C	-0.220132	-0.055776	-1.521362
C	0.0	0.0	0.0
Cl	-0.119185	1.673559	-2.117239
H	1.093421	0.0	0.0
H	-0.461592	0.8758	0.466981
N	0.867005	-0.782847	-2.14853
H	1.717171	-0.528209	-1.614477
H	0.69582	-1.760752	-1.927413
C	-1.561369	-0.593514	-1.974595
H	-1.601161	-0.619695	-3.065437
H	-1.679165	-1.602565	-1.573828
H	-2.375704	0.032091	-1.601037
N	-0.403561	-1.287558	0.592823
H	-1.240082	-1.184728	1.153496
H	0.349082	-1.579603	1.204286
F	2.73721	0.0	0.0
