16

C	-0.309466	0.075475	-1.505291
C	0.0	0.0	0.0
Cl	-0.025418	-1.573097	-2.225265
H	1.093659	0.0	0.0
H	-0.346961	0.960309	0.413335
N	-1.675852	0.428685	-1.899996
H	-2.316145	-0.215893	-1.442199
H	-1.85675	1.350447	-1.507824
C	0.701615	1.026066	-2.117682
H	0.651718	1.005729	-3.208696
H	1.686025	0.748493	-1.722942
H	0.479253	2.04133	-1.769693
N	-0.561662	-1.094105	0.776808
H	0.021547	-1.907661	0.61266
H	-1.497805	-1.328778	0.458895
F	2.756241	0.0	0.0
