16

C	-0.156094	-0.006375	-1.54468
C	0.0	0.0	0.0
Cl	-0.105118	1.741783	-2.125844
H	1.095247	0.0	0.0
H	-0.349951	-0.988272	0.330642
N	0.980042	-0.677418	-2.135089
H	0.820975	-1.675898	-2.047927
H	1.804643	-0.457036	-1.535472
C	-1.461632	-0.571449	-2.077331
H	-1.542062	-1.620328	-1.773498
H	-2.318149	-0.024801	-1.67539
H	-1.485917	-0.51467	-3.166961
N	-0.602677	1.045991	0.807354
H	0.008483	1.850983	0.752387
H	-1.492229	1.332751	0.417699
F	2.761717	0.0	0.0
