16

C	-0.310169	0.102118	-1.502677
C	0.0	0.0	0.0
Cl	-0.062103	-1.573478	-2.174513
H	1.093397	0.0	0.0
H	-0.455555	-0.899987	0.424871
N	-1.662596	0.480676	-1.893593
H	-1.776933	1.474628	-1.731223
H	-2.327945	-0.016846	-1.308986
C	0.717051	1.01395	-2.15226
H	1.700098	0.719998	-1.762034
H	0.523403	2.046553	-1.835258
H	0.659371	0.963952	-3.24128
N	-0.395041	1.191448	0.761475
H	-1.210021	1.648801	0.369987
H	0.38291	1.838507	0.737032
F	2.744852	0.0	0.0
