14

C	-0.232858	0.127816	-1.501036
C	0.0	0.0	0.0
Br	-0.491232	-2.003902	-2.094953
H	1.088707	0.0	0.0
H	-0.436525	-0.873813	0.464924
C	-1.519706	0.61853	-1.97582
N	-2.541595	1.050407	-2.364741
N	0.846801	0.705383	-2.078538
H	1.7442	0.504073	-1.590446
H	0.861592	0.812216	-3.079994
N	-0.442935	1.187008	0.740159
O	-0.488986	2.270135	0.151844
O	-0.676069	1.028476	1.942444
H	2.682126	0.0	0.0
