14

C	-0.22347	0.168883	-1.500685
C	0.0	0.0	0.0
Br	-0.546938	-1.946083	-2.145585
H	1.088674	0.0	0.0
H	-0.441894	-0.884502	0.439588
C	-1.496763	0.70386	-1.968345
N	-2.517135	1.146889	-2.349317
N	0.871804	0.725386	-2.061118
H	1.765299	0.512285	-1.565726
H	0.891951	0.873555	-3.057132
N	-0.449977	1.170614	0.761883
O	-0.753799	0.97687	1.94214
O	-0.435904	2.274304	0.212648
H	2.687105	0.0	0.0
