14

C	-0.351691	-0.101737	-1.45897
C	0.0	0.0	0.0
Br	-2.409618	-0.238176	-1.702399
H	1.091132	0.0	0.0
H	-0.410706	0.898164	0.453376
C	-0.065325	1.196757	-2.088578
N	0.20625	2.205288	-2.630884
N	0.276319	-1.190892	-2.095247
H	0.438042	-1.020346	-3.079043
H	1.140816	-1.419081	-1.605504
N	-0.443196	-1.136252	0.798365
O	-1.10296	-0.898855	1.81705
O	-0.062723	-2.261239	0.455716
H	2.589421	0.0	0.0
