14

C	-0.530802	0.284336	-1.386843
C	0.0	0.0	0.0
Br	0.381459	1.776905	-2.30774
H	1.100269	0.0	0.0
H	-0.33986	-0.987988	0.31717
C	-0.245186	-0.897546	-2.222287
N	-0.145929	-1.86158	-2.888912
N	-1.941762	0.6135	-1.363025
H	-2.442858	-0.131953	-0.889029
H	-2.295452	0.708673	-2.308347
N	-0.487765	0.947308	0.987128
O	-0.243037	2.143499	0.80957
O	-1.044189	0.487583	1.999683
H	2.566303	0.0	0.0
