14

C	-0.512011	-0.016889	-1.422888
C	0.0	0.0	0.0
Br	-0.032965	-1.950516	-2.085862
H	1.086436	0.0	0.0
H	-0.384917	-0.84276	0.567815
C	-1.974404	-0.056811	-1.495431
N	-3.149326	-0.018265	-1.551715
N	0.054518	0.954023	-2.242666
H	0.598263	1.630689	-1.723373
H	-0.560304	1.352046	-2.933929
N	-0.351267	1.209479	0.716015
O	-0.036744	2.299669	0.197789
O	-0.772468	1.099245	1.879572
H	2.508071	0.0	0.0
