14

C	-0.269691	-0.047503	-1.500449
C	0.0	0.0	0.0
Br	-0.08558	-2.040706	-2.096294
H	1.107341	0.0	0.0
H	-0.374825	0.950134	0.388582
C	-1.618162	0.281727	-1.962889
N	-2.668799	0.62266	-2.366347
N	0.696477	0.785388	-2.062546
H	0.710253	0.773262	-3.07319
H	1.62779	0.607445	-1.639119
N	-0.661625	-1.066185	0.773921
O	-1.879763	-1.18428	0.617686
O	0.017067	-1.732354	1.549698
H	2.776469	0.0	0.0
