14

C	-0.284586	-0.030257	-1.480877
C	0.0	0.0	0.0
Br	-2.23355	-0.34349	-1.834054
H	1.093292	0.0	0.0
H	-0.333167	-0.925921	0.466813
C	0.062601	1.196791	-2.20414
N	0.373388	2.134256	-2.839746
N	0.46382	-1.118269	-2.08279
H	1.437133	-0.948196	-1.789915
H	0.175546	-1.977209	-1.621478
N	-0.535946	1.10185	0.776334
O	-0.784235	0.875486	1.966933
O	-0.634833	2.211086	0.23896
H	2.587143	0.0	0.0
