15
Coordinates from ORCA-job run
  C   -0.61425740796232     -0.22055396095578      0.18384613818076
  C   0.77965898295022     -0.05382773011665     -0.43878437816009
  H   -0.59772247581900     -1.10380734344278      0.83471901243880
  H   0.76284211612973      0.81993412092404     -1.09914838393095
  H   0.96143366295088     -0.92813887857040     -1.07333973027924
  C   -1.70371190105118     -0.40559207240815     -0.87703333107619
  H   -2.68648374136478     -0.53143340563308     -0.41877862704269
  H   -1.48618619005873     -1.29146617730594     -1.47845124750402
  H   -1.74198255006892      0.46182967891153     -1.53974256659085
  C   -0.92669024207563      0.93179840931331      1.03516228412384
  N   -1.16963339224037      1.87188387629397      1.69562868378872
  C   1.89066195851300      0.08642838067034      0.59551645016563
  H   2.86558014673664      0.16563554816591      0.10967677124535
  H   1.91823788475555     -0.78115928684449      1.26044306738172
  H   1.74825314860490      0.97846884099817      1.20928585725920
