15
Coordinates from ORCA-job run
  C   -0.57716783813386     -0.34404373814079      0.08635131905799
  C   0.73358377263980      0.24728156219529     -0.45225704414333
  H   -0.44015290903516     -1.42496315359239      0.21722136750395
  H   0.90426267225765     -0.18445071875761     -1.44452806292393
  H   0.59624226208836      1.32472265661282     -0.59409642371794
  C   -1.75452756960343     -0.10315264586242     -0.86343030907423
  H   -1.54238842862350     -0.55483179611693     -1.83524971638478
  H   -1.91570139653745      0.96743755853218     -1.00721256007724
  H   -2.67567099211953     -0.53944491804789     -0.47292596267478
  C   -0.87373788970949      0.21041997506583      1.41121630854045
  N   -1.11263584423637      0.67984351835796      2.46074235131236
  C   1.93254615218859     -0.01824840327550      0.45093733525616
  H   2.84624414801764      0.38994825759904      0.01350289662834
  H   1.79659468206903      0.44089981921535      1.43254298793785
  H   2.08250917873771     -1.09141797378493      0.59718551275913
