15
Coordinates from ORCA-job run
  C   -0.61285722879207     -0.46321731282155      0.25249464013268
  C   0.76859953979301      0.08514567907156      0.64873073202410
  H   -0.48907766871071     -1.49819090519265     -0.09108384783684
  H   1.15558694751087     -0.51842217045805      1.47550690276880
  H   0.64132131049685      1.10179518624113      1.03612291231971
  C   -1.29326104767626      0.34829370374913     -0.85503144138287
  H   -0.71934214376112      0.28984734224977     -1.78073628389565
  H   -2.29721470571543     -0.03057494874131     -1.05422931078071
  H   -1.37557700529207      1.39753733571007     -0.56108856432215
  C   -1.47632799279787     -0.50733161097935      1.43702470236116
  N   -2.16543995008960     -0.51512525483381      2.38772747951212
  C   1.76703091427624      0.07907015337637     -0.50476853043930
  H   1.84947214371494     -0.91745083256852     -0.94794399280805
  H   1.48603532568298      0.77923476274030     -1.29326438293675
  H   2.75905156136024      0.36738887245691     -0.15046101471624
