15
Coordinates from ORCA-job run
  C   -0.68678554601707     -0.58866613894310      0.18997383636013
  C   0.83081939872008     -0.71602565981592     -0.03421379267587
  H   -1.11755221111544     -1.59670785645632      0.16191560980717
  H   1.23434763274128     -1.40293410482385      0.71656640911092
  H   0.97977089471259     -1.19222675074877     -1.00979168261775
  C   -1.38593143402608      0.26668093490123     -0.87245436724973
  H   -1.06408222979043      1.30727042698033     -0.81924906924404
  H   -1.15247000843848     -0.12012506179522     -1.86766969223414
  H   -2.46891296540523      0.24186827428256     -0.73827099203248
  C   -0.95392602232840     -0.05078507428200      1.52844187013074
  N   -1.14823127113018      0.39913291399242      2.59550310815278
  C   1.58206204506272      0.60990187924293      0.02495824526204
  H   1.28050768719320      1.28454774665746     -0.77844060545893
  H   2.65637478975171      0.44111393280284     -0.07583162827831
  H   1.41300924006972      1.11595453800541      0.97856275096749
