15
Coordinates from ORCA-job run
  C   -0.70736523857842     -0.57084864288023      0.17004724227905
  C   0.81203443837277     -0.73839178853794     -0.01203340003348
  H   -1.16389200662119     -1.56693459871177      0.12846880152512
  H   0.97531225554535     -1.21724999215217     -0.98396969250551
  H   1.17621416689650     -1.43647526686434      0.74842542556138
  C   -1.35324542704579      0.30411257741881     -0.91010098784858
  H   -2.43983963770789      0.30735047941475     -0.80674036582923
  H   -1.10167872444233     -0.08659708974406     -1.89925210775471
  H   -1.00608145133277      1.33580170067750     -0.84484677703103
  C   -0.99689101975654     -0.02564260301038      1.50090454862193
  N   -1.20890954480625      0.43157369282953      2.56148937861756
  C   1.59635282366331      0.56706761752807      0.07003739290997
  H   2.66819886719242      0.36931474291411      0.00067083975311
  H   1.33685039053532      1.24929866520150     -0.74163441932928
  H   1.41294010808551      1.07762050591663      1.01853412106371
