15
Coordinates from ORCA-job run
  C   -0.69581701396831     -0.57517124605160      0.19832884024294
  C   0.82146415836941     -0.72750501226690     -0.01185487816867
  H   -1.13987680988749     -1.57773355944191      0.19318991743552
  H   0.97089163037231     -1.22534403981548     -0.97650769229268
  H   1.21050927818308     -1.40433287164028      0.75552101425862
  C   -1.37610624317518      0.26220987448690     -0.89054309113432
  H   -2.46006934454187      0.25648298826537     -0.76247782641677
  H   -1.14250610345924     -0.15293732409847     -1.87412403408550
  H   -1.03942467234524      1.29902408786958     -0.86155956851743
  C   -0.96528176919026      0.00151395161001      1.52008932364208
  N   -1.16198628035450      0.48420460847458      2.57237249155753
  C   1.59044282168764      0.58908790748489      0.02580692396045
  H   1.30488241192415      1.25089177060551     -0.79401581148793
  H   2.66307383996197      0.40325900869783     -0.06243270603235
  H   1.42080409642353      1.11734985581997      0.96720709703849
