10
Coordinates from ORCA-job run
  C   -0.69158102989216     -0.28499456153929      0.07908677996901
  C   0.69367828554348      0.35503327921974     -0.07970335055734
  Cl  -0.55267323840443     -1.90846872281821      0.80004669149863
  H   0.57481635145180      1.38469673255023     -0.43084599988331
  H   -1.16254085910149     -0.41315796512306     -0.89781661015912
  H   1.19300720251424      0.38425851673300      0.89188728055194
  C   -1.53938618702809      0.56535365720079      0.91031060301255
  N   -2.20188200756733      1.27782438844608      1.56760841354701
  C   1.51674424991736     -0.38523682953616     -1.03258154059940
  N   2.16981723256663     -0.97530849513311     -1.80799226737998
