10
Coordinates from ORCA-job run
  C   -0.62255947648046     -0.58351851300564      0.22015412624077
  C   0.57595108242319     -0.24039211693785     -0.67095856628651
  Cl  -0.07217906628300     -1.30513252243856      1.75341475849121
  H   0.20771210337240      0.11916669002816     -1.63699045274579
  H   -1.22960901489488     -1.33986264815117     -0.28237330500248
  H   1.15567492350204     -1.15042753423327     -0.84447496492226
  C   -1.45199141000509      0.59005209044843      0.47837466306054
  N   -2.12622927755047      1.53571847677266      0.65181679150282
  C   1.43656675200770      0.77719928551705     -0.07340122211555
  N   2.12666338390857      1.59719679200019      0.40343817177725
