10
Coordinates from ORCA-job run
  C   -0.69869424785207     -0.27731110582006     -0.01617766260945
  C   0.70415563140227      0.34230404923028      0.03246256377373
  Cl  -0.63120543175328     -2.01178362899300      0.38525141315301
  H   0.62331285592722      1.42356309133224     -0.11609867818368
  H   -1.10914595377723     -0.20305845031432     -1.02541878283500
  H   1.14381837458853      0.16789235600252      1.01746193238510
  C   -1.58320864238677      0.42198767846954      0.91207069556454
  N   -2.27116189857041      1.01264793408004      1.65796909718676
  C   1.56936463539185     -0.21892256144965     -1.00177922761284
  N   2.25176467702990     -0.66031936253761     -1.84774135082217
