10
Coordinates from ORCA-job run
  C   -0.65312067072723     -0.56803144254419      0.17193678814404
  C   0.59982460990093     -0.24063366365776     -0.64761867919321
  Cl  -0.20639673385754     -1.35139973195216      1.70799439629016
  H   0.29270830728930      0.16369013646188     -1.61752647223486
  H   -1.25836575514728     -1.28807344971977     -0.38319940907582
  H   1.15566783619099     -1.16504727087492     -0.82419618397088
  C   -1.45444584672126      0.62663578870353      0.42177345929052
  N   -2.09912820370367      1.59493702044393      0.58212675465739
  C   1.46451404688752      0.72501098657627      0.02560323199332
  N   2.15874240988825      1.50291162656320      0.56310611409935
