10
Coordinates from ORCA-job run
  C   -0.73440564248778     -0.42024031524556     -0.01697585834888
  C   0.77463699298898     -0.35224138941071     -0.28541620552258
  Cl  -1.18393813149960     -2.10408947898031      0.36438327785236
  H   1.31972356484342     -0.65116790653155      0.61323585516350
  H   -1.28758730001117     -0.14068732823452     -0.91571270372731
  H   1.02436632793205     -1.05779333604999     -1.08168057406733
  C   -1.12390988329095      0.46377057991069      1.07727332020697
  N   -1.42646449604509      1.18554023502385      1.95278108959161
  C   1.17149568564742      0.99598471578040     -0.68533084619385
  N   1.46708288192271      2.07992422373772     -1.02355735495448
