10
Coordinates from ORCA-job run
  C   -0.62607568067957     -0.39798006953305      0.13320718683649
  C   0.61493571582930      0.45921675453726     -0.15019287317070
  Cl  -0.26533928047072     -1.63179941122671      1.36708009419951
  H   0.34175167847897      1.26994470290474     -0.83269480056404
  H   -0.92807577749142     -0.93396932843653     -0.76898437900301
  H   0.96643423199213      0.90605908394809      0.78289453150713
  C   -1.72596171880364      0.45448845404648      0.57615002161028
  N   -2.58556398080308      1.17865131918208      0.91520388448808
  C   1.68243621601116     -0.33368467795234     -0.75427858135924
  N   2.52545859593687     -0.96892682747001     -1.26638508454452
