10
Coordinates from ORCA-job run
  C   -0.71695601426227     -0.45319160347018      0.01381644702773
  C   0.79531156411052     -0.34615669070122     -0.22418406712599
  Cl  -1.10419796781970     -2.10155347439247      0.57570792559817
  H   1.32566099766595     -0.51381823347806      0.71631737396439
  H   -1.25487664467848     -0.30411843233208     -0.92434349448744
  H   1.09847490300750     -1.12663159658533     -0.92644526259521
  C   -1.17357741274786      0.53097985841203      0.99039989103039
  N   -1.51471250286959      1.33633035703196      1.77386034838413
  C   1.14362835337874      0.96397412297148     -0.76969593971084
  N   1.40124472421519      2.01418569254386     -1.22543322208533
