10
Coordinates from ORCA-job run
  C   -0.63033254617744     -0.57620656278286      0.21805227475243
  C   0.60889016439363     -0.27034485781172     -0.62985398757119
  Cl  -0.15243530803092     -1.22545336894659      1.80691401636470
  H   0.28693375350094      0.03953463802405     -1.62903398464416
  H   -1.21230985830073     -1.35623490904019     -0.27789164594858
  H   1.19944288730876     -1.18440008820364     -0.73047599323187
  C   -1.47222955837708      0.60550855278799      0.38278969416662
  N   -2.15980730809716      1.55187291577264      0.48391835415060
  C   1.43666428772790      0.77990308086127     -0.04229612848274
  N   2.09518348605210      1.63482059933903      0.41787740044419
