10
Coordinates from ORCA-job run
  C   -0.64937548004047     -0.57300131808275      0.17968521500660
  C   0.58357149248112     -0.23255321309618     -0.66444641576010
  Cl  -0.16449117940484     -1.37532820887745      1.69490905222143
  H   1.13901830247817     -1.15295217723030     -0.86120201384990
  H   -1.26602188585327     -1.28755327517194     -0.37010140460428
  H   0.25346263827383      0.17868267430259     -1.62362850350196
  C   -1.44560734840282      0.61703276312593      0.46512817135316
  N   -2.07449674687466      1.58969374909870      0.65862147081154
  C   1.45973992444388      0.73038675236721     -0.00274596941314
  N   2.16520028289906      1.50559225356420      0.52378039773667
