17

C	0.0	0.0	0.0
C	-0.598736	0.179969	-1.424285
Cl	1.792699	0.0	0.0
H	-1.626896	0.521881	-1.255601
C	-0.463473	1.077038	0.975535
H	-1.553447	1.043053	1.029397
H	-0.139068	2.053618	0.61841
H	-0.030218	0.88298	1.95912
C	-0.391821	-1.327962	0.479017
N	-0.605202	-2.415929	0.868898
N	-0.620489	-0.955529	-2.274779
H	-1.430015	-1.517476	-2.041448
H	0.223981	-1.507516	-2.214118
N	0.138345	1.306006	-2.10117
O	0.998668	1.013902	-2.928267
O	-0.15955	2.449919	-1.756733
Br	-3.762424	0.0	0.0
