17

C	0.0	0.0	0.0
C	-0.571071	-0.130793	-1.418761
Cl	1.796453	0.0	0.0
H	-1.664823	-0.036474	-1.307062
C	-0.485512	1.23905	0.744078
H	-1.578612	1.253135	0.6956
H	-0.07335	2.1404	0.293094
H	-0.158729	1.176194	1.785183
C	-0.399574	-1.203892	0.735928
N	-0.679261	-2.156069	1.36397
N	-0.205598	-1.352534	-2.029841
H	-0.832063	-1.565783	-2.793708
H	0.745372	-1.315023	-2.373611
N	-0.127561	1.090076	-2.232655
O	-0.715261	2.150102	-2.033124
O	0.789658	0.933052	-3.042143
Br	-3.826454	0.0	0.0
