17

C	0.0	0.0	0.0
C	-0.59679	0.216827	-1.417234
Cl	1.792525	0.0	0.0
H	-1.639984	0.509615	-1.244876
C	-0.466578	1.042285	1.01079
H	-0.128922	2.029728	0.698214
H	-1.558638	1.014931	1.046427
H	-0.049738	0.807818	1.991843
C	-0.388139	-1.344347	0.439374
N	-0.59872	-2.437997	0.814185
N	-0.55539	-0.880663	-2.317488
H	0.311075	-1.399634	-2.25982
H	-1.345525	-1.483329	-2.124141
N	0.09817	1.403981	-2.038231
O	0.982098	1.188379	-2.861879
O	-0.258237	2.518058	-1.652143
Br	-3.774976	0.0	0.0
