13
Coordinates from ORCA-job run
  C   0.52665772374526     -0.31932805354091     -0.66273180548688
  C   -0.67579120395723     -0.14043689386262     -0.07608263909567
  H   0.56114172592680     -0.97583937310541     -1.52689760150335
  C   1.79443165129270      0.35754005060106     -0.22631625812129
  H   1.96833988715158      1.31094603238461     -0.73953840075928
  H   2.66116543825232     -0.27448020102005     -0.43413967256967
  H   1.79963048323122      0.55770830483579      0.84996463777916
  N   -1.80552202363441     -0.89229787118100     -0.43881857314767
  H   -2.66039219996156     -0.56608472139123     -0.01850801221965
  H   -1.68635222295163     -1.88924720618570     -0.37977938422162
  N   -0.96592979184599      0.85615070286635      0.87287931034891
  H   -0.19741759652396      1.48941256397238      1.03314144642696
  H   -1.31996187072509      0.48695666562673      1.74582695257006
