13
Coordinates from ORCA-job run
  C   0.57592747519755      0.35730569359359     -0.59933759633804
  C   -0.64983123353644      0.24034563486865     -0.04627894596006
  H   0.71221121538048      1.14433249383412     -1.33485777981071
  C   1.73514772627356     -0.54827985923587     -0.29604517831584
  H   2.68138552136635     -0.01094019438952     -0.39485375485210
  H   1.79043527738665     -1.41188124116686     -0.96966374218614
  H   1.69487015770384     -0.93231236696411      0.72834571021636
  N   -1.08589921903169     -0.85923388857599      0.71442232022041
  H   -0.41078625659447     -1.60741340846832      0.75638429303479
  H   -1.40344469976940     -0.60466411240452      1.64072724969505
  N   -1.66368053031478      1.18775985232518     -0.26463348805085
  H   -2.56147894766395      0.90988099446230      0.09677901973313
  H   -1.41485648639772      2.13410040212136     -0.03198810738601
