13
Coordinates from ORCA-job run
  C   0.56328893429162      0.40151308731710     -0.54841579474212
  C   -0.57696209442926      0.25944033870726      0.15917925943818
  H   0.61724732552549      1.20436515683803     -1.27825706034074
  C   1.75127296804617     -0.49701670094667     -0.37190108624320
  H   2.68470960113865      0.05348832178539     -0.51454267428291
  H   1.76146343436359     -0.91887924088153      0.63683441874908
  H   1.76447475403726     -1.33321071440597     -1.08204745110516
  N   -1.61939768746091      1.21009245628840      0.19057056646545
  H   -2.49795582127214      0.83198027817740     -0.14184416138843
  H   -1.38099180334862      2.04512895635615     -0.32514993188141
  N   -0.78778371693481     -0.80557057497300      1.04556039911412
  H   -0.63658839009137     -1.72226588592708      0.65795160148541
  H   -1.64277750386566     -0.72906547833548      1.57206191473173
