13
Coordinates from ORCA-job run
  C   0.58142380895343     -0.47272056606656     -0.46561126792044
  C   -0.61899995231795     -0.18802897124028      0.08104716512988
  H   0.63900528004879     -1.29202174902244     -1.17665485091898
  C   1.83127335954019      0.28744939023362     -0.13427299850708
  H   1.75109210733056      0.73262249728802      0.86115333698776
  H   2.70408748643886     -0.37047646115405     -0.13862974969586
  H   2.04046359123832      1.09681917039493     -0.84470011342170
  N   -1.75828343923375     -1.01429363126180     -0.02411201027751
  H   -1.54934314993279     -1.88269242190291     -0.49548460991716
  H   -2.53492151833872     -0.54795417941977     -0.47642364911711
  N   -0.82335665170238      0.91210661254920      0.92519136343700
  H   -0.52034170980610      1.79806464286940      0.55555792095696
  H   -1.74409921221846      0.94112566673264      1.33193946326424
