13
Coordinates from ORCA-job run
  C   0.63993304335126      0.53293057198211     -0.29220628587309
  C   -0.63076369171368      0.16276175347891     -0.02897889217375
  H   0.82261372289717      1.56132224142305     -0.59084192286802
  C   1.80307270677609     -0.40839643286860     -0.18814282304442
  H   2.30537593620259     -0.36195740648574      0.78611723153298
  H   1.47082772760509     -1.43889459199849     -0.34079018736483
  H   2.55931672442415     -0.18363882536629     -0.94459806590656
  N   -1.76698801576451      0.94242846034562     -0.33307804263441
  H   -2.30921653949410      1.17515033047995      0.48974686903653
  H   -1.52183342077780      1.78126560885456     -0.83927247347984
  N   -0.96053323024988     -1.10634635898687      0.46620126800831
  H   -0.45947864065852     -1.38653600843343      1.29319319938036
  H   -1.95232632259786     -1.27108934242479      0.52365012538674
