13
Coordinates from ORCA-job run
  C   0.67571461134569      0.54318303326817     -0.16439720087933
  C   -0.60714276197431      0.21703472709151      0.09806746207135
  H   0.89546784193285      1.56753136414010     -0.45173663171805
  C   1.80292847481874     -0.44269296830679     -0.07922067866782
  H   2.03570009998615     -0.91099162593897     -1.04366958813533
  H   1.55498024890060     -1.24114038068418      0.62549064624690
  H   2.72067420944841      0.03884462395581      0.26792516761121
  N   -1.01169351831954     -1.09688968161515      0.37106428847225
  H   -1.97892745644911     -1.17271725722533      0.64088445754583
  H   -0.73155862074218     -1.78155948275680     -0.31174544479998
  N   -1.65159359297863      1.15327333397461      0.25280014574965
  H   -2.39466236530535      1.02044609560788     -0.42204628186318
  H   -1.31188717066332      2.10367821848915      0.21658365836650
