13
Coordinates from ORCA-job run
  C   0.58237473524547     -0.44784183243435     -0.52495657278755
  C   -0.66534910795671     -0.17935681737596     -0.08565994899469
  H   0.69675369595046     -1.29524265456510     -1.19424377062566
  C   1.80034848866683      0.36092680757257     -0.18167081773831
  H   2.00394224705842      1.15534042368888     -0.90961663186876
  H   1.71369841313501      0.83170299502419      0.80280117493636
  H   2.68911759885769     -0.27394735611006     -0.15068840725946
  N   -1.74648959972873     -1.04199993305329     -0.33021636171797
  H   -2.63876747646628     -0.65862782391012     -0.06454470894240
  H   -1.61047589981332     -1.98967533376114     -0.02235312782980
  N   -1.05169476841449      1.00614202389558      0.56583106590854
  H   -1.46083312671041      0.84413825788003      1.47700784358385
  H   -0.31162519982395      1.68944124314877      0.61931026333585
