13
Coordinates from ORCA-job run
  C   0.60467899147000      0.39068041833775     -0.54614969218374
  C   -0.57663187823797      0.37194244870616      0.10662349364086
  H   0.76518310362811      1.20011109259770     -1.25188655063322
  C   1.70979205465807     -0.60455244415003     -0.33724908966833
  H   2.43172161736553     -0.28627770246538      0.42440041989161
  H   2.27295540064753     -0.75654032625675     -1.26122310859516
  H   1.32562702860669     -1.58445967038284     -0.03643027267016
  N   -0.86375542649601     -0.42875074425408      1.22681883945071
  H   -0.06835957129193     -0.95600948979289      1.55346377017261
  H   -1.66638978440998     -1.03006220420583      1.09287776951977
  N   -1.62559454938570      1.24731899557466     -0.21980386224594
  H   -2.39472746928525      1.21771593970522      0.42933043861951
  H   -1.91449951726908      1.21988368658632     -1.18277215529854
