13
Coordinates from ORCA-job run
  C   0.63417590201893      0.50597418815617     -0.34834500669381
  C   -0.59475356029241      0.23035318721501      0.13619432568542
  H   0.78715533967650      1.46038499875324     -0.84404459376682
  C   1.78807580000337     -0.44556235897163     -0.23509529290858
  H   1.90573853723217     -1.08348117147059     -1.11985003956772
  H   2.73024278563723      0.09329743915337     -0.10614229534292
  H   1.65546627317998     -1.10071999060214      0.63021737203913
  N   -1.63496012408514      1.17663520057173      0.25547708767541
  H   -2.45513667422996      0.92028844540054     -0.28015115841464
  H   -1.32804928612934      2.10458066483337      0.00095439931531
  N   -0.92493446533447     -1.01189185063599      0.69495089842492
  H   -0.71580281446183     -1.80962963280530      0.11762161546272
  H   -1.84721771321502     -1.04022911959778      1.09821268809158
