13
Coordinates from ORCA-job run
  C   0.57946629320874     -0.47863917009436     -0.41565752306812
  C   -0.66440221130387     -0.19587066518154      0.02542255672273
  H   0.71242485932459     -1.37943881207160     -1.00814368481164
  C   1.78383978102496      0.38311618626101     -0.16176552130098
  H   1.73693548454497      0.86774562866591      0.81915110154747
  H   2.69611630955417     -0.21749237250296     -0.17068739945844
  H   1.91363456244714      1.17151621512425     -0.91248912829630
  N   -1.75227315734622     -1.08480717000710     -0.03801325872338
  H   -1.51247575677521     -1.95071998453734     -0.49802211934184
  H   -2.55674795196289     -0.65377582696455     -0.47440785109895
  N   -1.05760758656668      1.01316128413716      0.61403344202299
  H   -0.29739621864678      1.66077997035259      0.75219781283525
  H   -1.58051440750292      0.86442471681852      1.46638157297121
