13
Coordinates from ORCA-job run
  C   0.71211674384716      0.55197674447213     -0.06559300158710
  C   -0.61095237571653      0.32240428675632      0.07130145195605
  H   1.02025032667677      1.58248870132357     -0.21457404986851
  C   1.77362767442276     -0.50764503260628      0.00706505080987
  H   2.17824097117693     -0.63798197451523      1.01790827926703
  H   1.40213201038048     -1.48195922312500     -0.32612380227488
  H   2.61710733655584     -0.25431053731101     -0.63983070384255
  N   -1.17577623547608     -0.88458325520929      0.52163988891693
  H   -1.83149294279257     -1.28785998151070     -0.13500051850499
  H   -0.48720044890408     -1.56395856747024      0.80739926831827
  N   -1.57009201980910      1.32758052112599     -0.13605991181079
  H   -1.52356665880754      1.77723500641596     -1.03450227308633
  H   -2.50339438155403      1.05661331165379      0.12737032170700
