13
Coordinates from ORCA-job run
  C   0.58720896032033     -0.52479005974954     -0.39908278967128
  C   -0.64333877578749     -0.08270054547732     -0.06550067117905
  H   0.66678209244109     -1.47819782328068     -0.91374059950702
  C   1.84086456045733      0.23846064227490     -0.08983048528832
  H   1.62384401903819      1.30734959739654     -0.01283162203269
  H   2.31107942832355     -0.07392466365314      0.85086843175838
  H   2.58723259957596      0.10282755494874     -0.87672839763440
  N   -0.84902416121824      1.07777909399594      0.69323367138734
  H   -0.34397605047929      1.11646217437889      1.56317372580741
  H   -1.81869020683932      1.33514189929078      0.78016360671764
  N   -1.84838488436752     -0.64733840631770     -0.53565606565999
  H   -2.43267061640563     -0.99186729497002      0.21620108314014
  H   -1.68092696505895     -1.37920216883741     -1.21126988783816
