13
Coordinates from ORCA-job run
  C   0.64939594437162      0.50952157251372     -0.31344515780057
  C   -0.62817342219488      0.16836109745212     -0.04438112159039
  H   0.84689124645593      1.51821240827703     -0.66519675518286
  C   1.80017008376921     -0.43799419762796     -0.14679058216931
  H   2.56481618970837     -0.26469544920610     -0.90833703148638
  H   1.45659550148716     -1.47143399859153     -0.24430189726974
  H   2.29531115741973     -0.34278796859735      0.82756663694861
  N   -1.75283144605199      0.94206306066126     -0.40288193666894
  H   -2.29899968554156      1.22538175192377      0.40136277349507
  H   -1.49295906908497      1.74982458161846     -0.95070251365607
  N   -0.97786651479667     -1.06819480924293      0.51538728216698
  H   -0.48927956952429     -1.30925026753726      1.36187433421520
  H   -1.97207041601767     -1.21900778164323      0.56884596899842
