13
Coordinates from ORCA-job run
  C   0.64374538934484      0.48042152169247     -0.36791123643465
  C   -0.61407436017024      0.21578585167890      0.04301527044186
  H   0.87595684066540      1.49098159784276     -0.69166355403554
  C   1.72797571791856     -0.55601904346936     -0.39144934506917
  H   2.41496489730855     -0.38728489608401     -1.22457777427161
  H   2.33406506590053     -0.56256148453156      0.52308465452760
  H   1.29559514074034     -1.55348300770498     -0.50903093701449
  N   -1.71033327948689      1.08702221085792     -0.13244658902070
  H   -2.13164039870221      1.36137478786933      0.74648521188541
  H   -1.45725196543479      1.90455509066714     -0.66875921174694
  N   -0.98772220744616     -1.02390988808198      0.57933581094381
  H   -0.41640609583656     -1.35077449648835      1.34104861484168
  H   -1.97587474480138     -1.10610824424828      0.75486908495274
