13
Coordinates from ORCA-job run
  C   -0.91126967553018     -0.45960453959080     -0.12247510246018
  C   0.56599807001531     -0.64190871490281      0.20680881435048
  H   -1.47581895790179     -1.32568945208159      0.25712695394093
  H   0.68889933571995     -0.63989901161093      1.29743829730672
  H   -1.03491421733231     -0.45062211831052     -1.21070219887199
  H   0.88001822910289     -1.63469401820366     -0.13438785346796
  N   -1.39583284788369      0.82328343469646      0.39159239983613
  H   -1.42281964970296      0.78671618046877      1.40420486165377
  H   -2.34391039822374      0.98747865626635      0.07601484771997
  C   1.44713270614299      0.43408478267350     -0.41749575397896
  H   1.36839634589773      0.40842556680577     -1.50824807388270
  H   2.49802690970399      0.28949678657735     -0.15486068506909
  H   1.13509414999180      1.42393244721212     -0.08601650707711
