14
Coordinates from ORCA-job run
  C   -0.64606010056611      0.01878699898546     -0.15488734110745
  C   0.76748013955982      0.58514539102373     -0.07229651957912
  Cl  -1.06605030747960     -0.28087950381481     -1.83094335933265
  H   0.79837132041357      1.55827842700985     -0.55843800668587
  H   1.06505478828020      0.65591139797083      0.97498038348562
  N   -1.64405322264448      0.85184859743790      0.44469240900421
  H   -1.81105083953343      1.68030747025485     -0.11041469011147
  H   -1.38338411784597      1.09671208882025      1.39238562829229
  N   -0.70444998045397     -1.28451512240377      0.66704271296783
  O   -1.08362673992204     -2.31796346538684      0.15342582720921
  O   -0.38700264105213     -1.10705218344146      1.83940697238433
  N   1.77905429746929     -0.27234574367203     -0.75319977522521
  O   2.55402137379392      0.28049323224202     -1.52696621086686
  O   1.76169602998096     -1.46572758502599     -0.46478803043485
