14
Coordinates from ORCA-job run
  C   -0.70738454125316      0.13922349376150     -0.23078673894023
  C   0.62650639956046      0.06277065803393     -0.94839988715374
  Cl  -1.97529379673659     -0.03044345113010     -1.46777034039573
  H   0.75939304825672      0.96551159457751     -1.54520855386787
  H   0.68931097067884     -0.81917184978133     -1.57886419500313
  N   -0.90673960296727      1.33037136843328      0.48200785351778
  H   -1.83216609074604      1.35671595973964      0.89083315875021
  H   -0.20753026522766      1.41248834424114      1.21025222490575
  N   -0.85900410843859     -1.14361553024375      0.64894020325396
  O   -0.28140616716381     -2.15336524699535      0.26714997789992
  O   -1.57108146386729     -1.03209429719863      1.63643637705363
  N   1.79442292025328     -0.01477031015537     -0.01425627576713
  O   1.59823739228433      0.17183033423460      1.18599778632557
  O   2.87473530536679     -0.24845106751707     -0.53733159057900
