14
Coordinates from ORCA-job run
  C   -0.75930614792940      0.04528985195044     -0.17034935769476
  C   0.56857162675097     -0.01307081691674     -0.91988234385156
  Cl  -2.01264582162487     -0.03828574402612     -1.43799555541073
  H   0.63196076362933      0.79949214822764     -1.64224366373366
  H   0.69370285384540     -0.97030479158932     -1.42479159772349
  N   -1.02152851662919      1.14709079358639      0.66897187031759
  H   -0.44591709268616      1.13315905158088      1.49977438220455
  H   -0.95387391643908      2.02439379622905      0.17214648723254
  N   -0.89425391633942     -1.24637549332043      0.66744962992102
  O   -1.28398003752537     -1.13581327726160      1.81752679239489
  O   -0.59778491120554     -2.28029815006351      0.08447175572636
  N   1.73249864268726      0.14720240375686      0.00181063636672
  O   2.76478136573314      0.58652499754196     -0.49022973701249
  O   1.57677510773292     -0.19800476969551      1.17234070126302
