14

C	0.0	0.0	0.0
C	-0.541397	-0.018765	-1.436843
F	1.372819	0.0	0.0
H	-1.477723	-0.585189	-1.413378
H	-0.306671	0.946272	0.460714
N	-0.440688	-1.183103	0.683487
H	-0.157468	-1.116597	1.654829
H	-1.461267	-1.162933	0.664299
C	0.388917	-0.714321	-2.330332
N	1.088824	-1.27305	-3.088986
N	-0.758382	1.361838	-1.895074
H	-1.62252	1.644591	-1.433756
H	-0.969878	1.33694	-2.887596
Cl	-3.497016	0.0	0.0
