14

C	0.0	0.0	0.0
C	-0.358444	0.776919	-1.289057
F	1.410587	0.0	0.0
H	0.57667	0.770149	-1.854124
H	-0.312263	0.513647	0.909475
N	-0.501022	-1.300971	-0.012883
H	-0.61991	-1.744621	-0.903234
H	-0.192008	-1.894988	0.735146
C	-0.586684	2.21354	-0.988223
N	-0.650373	3.382304	-0.883255
N	-1.351271	0.122996	-2.111566
H	-1.474992	0.674733	-2.955299
H	-2.245143	0.108727	-1.606237
Cl	-3.742776	0.0	0.0
