14

C	0.0	0.0	0.0
C	-0.298503	0.110587	-1.525513
F	1.400674	0.0	0.0
H	0.459311	-0.555501	-1.954001
H	-0.297185	0.898539	0.553857
N	-0.515259	-1.231212	0.503331
H	-1.532025	-1.177321	0.407047
H	-0.325717	-1.283759	1.498389
C	0.059808	1.474285	-1.956933
N	0.365216	2.560313	-2.281306
N	-1.577718	-0.268353	-2.076707
H	-2.353782	0.129254	-1.545156
H	-1.677963	-1.272074	-1.988105
Cl	-3.934411	0.0	0.0
