14

C	0.0	0.0	0.0
C	-0.467324	-0.238383	-1.435408
F	1.390954	0.0	0.0
H	-1.557367	-0.348576	-1.394433
H	-0.298271	1.017656	0.289336
N	-0.464227	-1.040818	0.857355
H	-0.239702	-0.804469	1.817864
H	-1.484142	-1.041784	0.77964
C	0.123729	-1.483491	-1.948187
N	0.608189	-2.452712	-2.399202
N	-0.146945	0.856782	-2.349236
H	0.795199	1.178208	-2.152201
H	-0.790665	1.615658	-2.155971
Cl	-3.527776	0.0	0.0
