14

C	0.0	0.0	0.0
C	-0.332778	0.059275	-1.514516
F	1.386521	0.0	0.0
H	0.481253	-0.510207	-1.978368
H	-0.290067	0.920838	0.515784
N	-0.484553	-1.198239	0.588087
H	-1.389543	-1.429048	0.189036
H	-0.61804	-1.064436	1.581683
C	-0.173493	1.459394	-1.972461
N	-0.073417	2.549229	-2.400181
N	-1.578444	-0.572311	-1.885542
H	-1.784125	-0.403407	-2.861776
H	-2.373862	-0.223347	-1.338603
Cl	-4.032809	0.0	0.0
