14

C	0.0	0.0	0.0
C	-0.471604	-0.163016	-1.434574
F	1.393719	0.0	0.0
H	-1.564494	-0.067554	-1.393322
H	-0.290556	1.008102	0.317762
N	-0.49068	-1.060947	0.816348
H	-1.49078	-1.143419	0.620827
H	-0.42591	-0.778962	1.788658
C	-0.12785	-1.500141	-1.954194
N	0.12761	-2.523541	-2.47163
N	0.08862	0.91764	-2.245451
H	-0.318256	0.883707	-3.171374
H	1.08625	0.769273	-2.335326
Cl	-3.566568	0.0	0.0
