14

C	0.0	0.0	0.0
C	-0.529803	-0.216393	-1.414995
F	1.393715	0.0	0.0
H	-1.608911	-0.39361	-1.27738
H	-0.346171	0.972915	0.356373
N	-0.485728	-1.023814	0.851406
H	0.043473	-1.877809	0.741781
H	-0.544163	-0.741707	1.815684
C	0.089191	-1.416353	-1.983001
N	0.566671	-2.383849	-2.445537
N	-0.230082	0.951675	-2.261593
H	-0.868566	1.680201	-1.954246
H	-0.51066	0.731676	-3.21229
Cl	-3.802747	0.0	0.0
