14

C	0.0	0.0	0.0
C	-0.174073	-0.166953	-1.544666
F	1.423933	0.0	0.0
H	0.538312	0.551795	-1.970601
H	-0.336147	0.977795	0.342728
N	-0.50283	-1.029025	0.812616
H	-1.459112	-0.761808	1.053641
H	-0.571911	-1.87153	0.250154
C	-1.42956	0.121462	-2.251133
N	-2.159857	0.348766	-3.143222
N	0.212016	-1.55284	-1.858977
H	1.202492	-1.645434	-1.667088
H	0.054537	-1.735767	-2.841791
Cl	-3.44848	0.0	0.0
