14

C	0.0	0.0	0.0
C	-0.328471	0.33498	-1.494233
F	1.410542	0.0	0.0
H	0.572402	0.053606	-2.0486
H	-0.317835	0.797166	0.671238
N	-0.507395	-1.237455	0.456511
H	-1.42513	-1.070641	0.861613
H	-0.660965	-1.850005	-0.337685
C	-0.458283	1.797209	-1.668564
N	-0.523571	2.954663	-1.865757
N	-1.430556	-0.45975	-1.997239
H	-2.274006	-0.28332	-1.43748
H	-1.631963	-0.198836	-2.955261
Cl	-3.851101	0.0	0.0
