14

C	0.0	0.0	0.0
C	-0.491855	-0.153295	-1.426852
F	1.413313	0.0	0.0
H	-1.586601	-0.093237	-1.330597
H	-0.340005	0.967177	0.368109
N	-0.482295	-1.049391	0.804525
H	-0.61434	-0.80564	1.770974
H	0.054254	-1.896208	0.690247
C	-0.122924	-1.492085	-1.930914
N	0.239781	-2.526646	-2.353756
N	0.015192	0.932274	-2.257486
H	-0.472812	0.937956	-3.144116
H	1.001548	0.786893	-2.43618
Cl	-3.746757	0.0	0.0
