14

C	0.0	0.0	0.0
C	-0.325705	-0.402853	-1.474427
F	1.373166	0.0	0.0
H	0.512708	-1.043497	-1.767496
H	-0.33183	1.01712	0.211827
N	-0.534557	-0.90088	0.959185
H	-1.369454	-0.487506	1.355739
H	-0.848459	-1.745719	0.48833
C	-0.21013	0.809668	-2.3117
N	-0.106871	1.798746	-2.940051
N	-1.533559	-1.182298	-1.594666
H	-1.71411	-1.418142	-2.562953
H	-2.354996	-0.706285	-1.202337
Cl	-4.001541	0.0	0.0
