11

C	0.0	0.0	0.0
C	-0.23482	0.072637	-1.54225
Cl	1.784083	0.0	0.0
H	0.183726	1.030929	-1.859029
H	-0.383084	-0.917158	0.437527
H	0.424829	-0.692821	-1.962218
C	-0.444879	1.179543	0.737025
N	-0.52812	2.184283	1.341208
C	-1.504861	-0.092358	-2.254588
N	-2.185289	-0.248467	-3.204094
Br	-3.230401	0.0	0.0
