11

C	0.0	0.0	0.0
C	-0.232439	-0.002888	-1.544235
Cl	1.783925	0.0	0.0
H	0.319785	-0.87347	-1.91177
H	-0.387737	-0.891878	0.483613
H	0.307386	0.871468	-1.922519
C	-0.440169	1.21708	0.67686
N	-0.541755	2.249713	1.22975
C	-1.513565	-0.022384	-2.25945
N	-2.184723	-0.047834	-3.228335
Br	-3.232636	0.0	0.0
