11

C	0.0	0.0	0.0
C	-0.523781	-0.353294	-1.392011
Cl	1.781599	0.0	0.0
H	-1.623916	-0.3027	-1.327567
H	-0.348708	-0.732456	0.728603
H	-0.159421	0.37691	-2.119283
C	-0.428831	1.340807	0.404374
N	-0.613905	2.453957	0.730113
C	-0.104292	-1.690296	-1.794851
N	0.234297	-2.765662	-2.121816
Br	-3.581625	0.0	0.0
