11

C	0.0	0.0	0.0
C	-0.412487	0.027833	-1.484205
Cl	1.781208	0.0	0.0
H	-1.504753	-0.061294	-1.538277
H	-0.377982	-0.909192	0.465034
H	0.053983	-0.833996	-1.974728
C	-0.43137	1.179355	0.747107
N	-0.542185	2.161107	1.381834
C	0.041398	1.237752	-2.16295
N	0.421669	2.185248	-2.74142
Br	-3.420646	0.0	0.0
