11

C	0.0	0.0	0.0
C	-0.521024	0.465255	-1.358893
Cl	1.782092	0.0	0.0
H	-1.621539	0.462799	-1.276483
H	-0.367911	-1.008083	0.189061
H	-0.218293	-0.260789	-2.119187
C	-0.420782	0.883181	1.090585
N	-0.609682	1.608947	1.994104
C	-0.030039	1.786317	-1.731202
N	0.363659	2.847827	-2.042446
Br	-3.56812	0.0	0.0
