16
Coordinates from ORCA-job run
  C   -0.58199139166060     -0.11839544001924      0.07695795858621
  C   0.67983394563379      0.51144127978113     -0.50251008667734
  Cl  -1.17592452206616     -1.37418074130524     -1.17632586691215
  H   0.90265961153224      1.38138696802273      0.12541715775621
  H   0.44096775530601      0.88027995754726     -1.50322691382413
  C   -1.70764005088009      0.89009773583310      0.20506924958692
  H   -1.91142404639806      1.36357913582060     -0.75546307695923
  H   -1.41803270856564      1.65085628300238      0.93386642241504
  H   -2.62457040055206      0.40392365700717      0.54580912273192
  N   -0.32287525378511     -0.72267769357872      1.33494038493883
  H   -1.17179594536500     -1.10007585467548      1.73794743465622
  H   0.35291543072470     -1.47157333187530      1.25690457376300
  C   1.89580362857440     -0.40494733945147     -0.55666324368297
  H   1.67443009123653     -1.32464515714371     -1.10130546794264
  H   2.72117276117348      0.09526695407843     -1.06758556900655
  H   2.24747109509156     -0.66133641304363      0.44516792057068
