16
Coordinates from ORCA-job run
  C   -0.64432397418831     -0.38464526985428      0.05084322297440
  C   0.88656726280652     -0.42899658738612      0.02297536025044
  Cl  -1.23673645483475     -0.98606038442857     -1.55214334584844
  H   1.21731588109985     -0.20279883033663      1.04500066713545
  H   1.18101879713132     -1.46431095026332     -0.18082072185792
  C   -1.19628823030869      1.01298359441199      0.25992778291530
  H   -0.80257094345075      1.42857912246815      1.19402439382304
  H   -2.28307431765246      0.96129898332542      0.32596904952379
  H   -0.92185069633018      1.67751508431121     -0.55807776446221
  N   -1.22615108915357     -1.26364116411155      1.04648507610832
  H   -0.83004375901395     -2.19365508064830      0.96134877562396
  H   -1.00270329986516     -0.90786819247431      1.97022660968753
  C   1.57614409195151      0.51048552061492     -0.95957926906418
  H   1.40857536765295      1.55775259467032     -0.70114875542477
  H   1.21902158508994      0.34492486401960     -1.97694115826614
  H   2.65509977906572      0.33943669568145     -0.95008992311856
