15

C	-0.461651	0.057394	-1.454398
C	0.0	0.0	0.0
Cl	0.020037	-1.589793	-2.177929
H	1.092267	0.0	0.0
H	-0.347524	-0.917377	0.484904
N	-1.869388	0.256429	-1.573139
H	-2.371112	-0.464056	-1.067028
H	-2.14768	0.218572	-2.547263
C	0.315684	1.105287	-2.222701
H	0.047394	2.089831	-1.830825
H	1.383906	0.934965	-2.066509
H	0.073933	1.064938	-3.288955
C	-0.47904	1.155656	0.744937
N	-0.84428	2.097383	1.345853
H	2.819175	0.0	0.0
