15

C	-0.414031	-0.063449	-1.455493
C	0.0	0.0	0.0
Cl	-2.270119	-0.670891	-1.507632
H	1.094244	0.0	0.0
H	-0.318539	-0.908426	0.515917
N	-0.303078	1.179619	-2.09025
H	-0.797467	1.915466	-1.603114
H	-0.586687	1.141197	-3.059173
C	0.377216	-1.131064	-2.172305
H	1.436305	-0.888939	-2.022562
H	0.174776	-2.11145	-1.740459
H	0.123673	-1.15746	-3.235283
C	-0.535466	1.162248	0.682903
N	-0.95907	2.130366	1.19831
H	2.776081	0.0	0.0
