15

C	-0.491412	0.072213	-1.456799
C	0.0	0.0	0.0
Cl	-0.14318	-1.548692	-2.179669
H	1.093289	0.0	0.0
H	-0.356246	-0.91251	0.487159
N	-1.917119	0.299536	-1.647663
H	-2.132351	1.219497	-1.27322
H	-2.433687	-0.376822	-1.091933
C	0.309392	1.116123	-2.210028
H	1.375506	0.918961	-2.062337
H	0.084898	2.107533	-1.80005
H	0.042018	1.099132	-3.267754
C	-0.493761	1.157146	0.729407
N	-0.919976	2.106183	1.277365
H	2.816993	0.0	0.0
