12

C	-0.090723	0.135367	-1.517364
C	0.0	0.0	0.0
Br	-1.827265	1.172996	-2.080654
H	1.094492	0.0	0.0
H	-0.477088	-0.899838	0.382222
H	-0.375822	0.898931	0.485864
N	1.051471	0.817701	-1.967446
H	1.871949	0.599209	-1.33222
H	1.241399	0.6818	-2.950459
C	-0.324872	-1.150979	-2.190431
N	-0.417611	-2.18336	-2.749488
F	2.735059	0.0	0.0
