12

C	-0.432218	-0.01064	-1.421434
C	0.0	0.0	0.0
Br	-2.583661	-0.129513	-1.496313
H	1.092059	0.0	0.0
H	-0.396056	0.909632	0.472933
H	-0.40725	-0.875818	0.513746
N	-0.012579	1.109065	-2.167004
H	-0.131766	1.966246	-1.625738
H	-0.456183	1.174931	-3.082668
C	-0.081079	-1.239623	-2.141927
N	0.213549	-2.223148	-2.715707
F	2.600571	0.0	0.0
