12

C	-0.088451	0.150265	-1.521483
C	0.0	0.0	0.0
Br	-1.764156	1.410186	-2.025427
H	1.094507	0.0	0.0
H	-0.467284	-0.912236	0.366513
H	-0.387763	0.883103	0.50301
N	1.098864	0.693843	-1.983866
H	1.914469	0.528218	-1.313203
H	1.288916	0.546998	-2.963228
C	-0.510786	-1.072368	-2.213924
N	-0.764968	-2.077537	-2.771215
F	2.748621	0.0	0.0
