17

C	0.0	0.0	0.0
C	-0.352171	-0.024022	-1.537149
Cl	1.831002	0.0	0.0
H	0.53334	-0.373981	-2.072085
C	-0.548233	1.198241	0.736727
H	-0.273314	1.116173	1.791334
H	-0.143028	2.127639	0.343716
H	-1.640334	1.157614	0.635521
N	-0.491753	-1.190764	0.561437
H	-0.700934	-1.148804	1.544326
H	-0.012262	-2.034063	0.287064
N	-0.555011	1.361018	-2.103845
O	0.410671	2.113605	-1.988506
O	-1.613144	1.625883	-2.657062
C	-1.43208	-0.927291	-1.927388
N	-2.011565	-1.800281	-2.460239
Cl	-3.758909	0.0	0.0
