17

C	0.0	0.0	0.0
C	-0.5685	0.065301	-1.421999
Cl	1.817682	0.0	0.0
H	-1.672828	0.043622	-1.259794
C	-0.464539	1.243496	0.740338
H	-1.558907	1.236695	0.748572
H	-0.082317	1.204038	1.763325
H	-0.085872	2.150335	0.269235
N	-0.512623	-1.154707	0.637544
H	-0.624571	-1.035844	1.631264
H	-0.019058	-1.99815	0.397182
N	-0.265761	-1.12581	-2.298172
O	-0.645631	-1.036474	-3.461303
O	0.293053	-2.101748	-1.807758
C	-0.171889	1.260692	-2.154173
N	0.147126	2.245622	-2.709497
Cl	-3.686641	0.0	0.0
