18

C	-0.562531	-0.105734	-1.405163
C	0.0	0.0	0.0
Cl	-2.357026	-0.225413	-1.345561
H	1.091573	0.0	0.0
N	-0.188696	1.094595	-2.280558
O	-1.056165	1.86159	-2.677311
O	1.005452	1.154475	-2.548916
C	0.007411	-1.333951	-2.082495
H	1.094949	-1.286556	-2.000816
H	-0.299398	-1.364317	-3.130377
H	-0.35572	-2.212785	-1.558177
N	-0.33612	-1.163279	0.75728
H	-1.158981	-0.994778	1.319776
H	0.449103	-1.345416	1.37457
N	-0.40371	1.262146	0.656932
O	-0.81577	1.218526	1.82485
O	-0.205856	2.307235	0.027804
H	2.536955	0.0	0.0
