18

C	-0.582736	0.034159	-1.434256
C	0.0	0.0	0.0
Cl	0.416223	0.965519	-2.567496
H	1.087877	0.0	0.0
N	-0.554483	-1.422027	-1.910776
O	-1.593656	-2.063021	-1.737501
O	0.483703	-1.875055	-2.365312
C	-2.011379	0.537963	-1.511855
H	-2.416287	0.381803	-2.512851
H	-2.64246	0.02683	-0.78441
H	-2.005386	1.605549	-1.296003
N	-0.328688	-1.13607	0.778433
H	-1.18338	-1.619932	0.553956
H	0.474958	-1.751421	0.806774
N	-0.472339	1.253221	0.661882
O	-0.037917	2.308363	0.187942
O	-1.248924	1.187067	1.618756
H	2.598517	0.0	0.0
