18

C	-0.5643	-0.108419	-1.40392
C	0.0	0.0	0.0
Cl	-2.358362	-0.22769	-1.345543
H	1.091579	0.0	0.0
N	-0.189723	1.091366	-2.283687
O	1.007742	1.166964	-2.526491
O	-1.059655	1.836186	-2.71162
C	0.010495	-1.333904	-2.081283
H	-0.300169	-1.368854	-3.128087
H	1.098859	-1.276789	-2.004145
H	-0.342127	-2.215979	-1.553051
N	-0.327517	-1.165056	0.759217
H	0.466768	-1.347702	1.366467
H	-1.142448	-0.997407	1.334338
N	-0.40707	1.2591	0.657553
O	-0.258004	2.302653	0.014323
O	-0.774236	1.216415	1.839567
H	2.530928	0.0	0.0
