18

C	-0.482349	-0.052995	-1.433001
C	0.0	0.0	0.0
Cl	-2.246504	-0.413767	-1.548845
H	1.089463	0.0	0.0
N	-0.210137	1.253092	-2.179187
O	-0.965382	1.583104	-3.084713
O	0.837829	1.805073	-1.874212
C	0.305925	-1.105844	-2.186328
H	1.370334	-0.90404	-2.013205
H	0.068513	-2.09424	-1.795633
H	0.055133	-1.069369	-3.24854
N	-0.306072	-1.161672	0.76844
H	-1.102051	-1.683116	0.431714
H	0.527023	-1.733025	0.856306
N	-0.479243	1.217126	0.710268
O	-0.122079	1.339907	1.879181
O	-1.149518	2.053082	0.089404
H	2.57257	0.0	0.0
