18

C	-0.502884	-0.025698	-1.444576
C	0.0	0.0	0.0
Cl	-2.283957	0.269123	-1.495987
H	1.09243	0.0	0.0
N	0.203415	1.026961	-2.315217
O	-0.432227	1.923344	-2.855013
O	1.406354	0.840198	-2.408114
C	-0.194986	-1.362132	-2.082278
H	-0.456106	-1.329196	-3.142299
H	0.872975	-1.556334	-1.960714
H	-0.769304	-2.131532	-1.57435
N	-0.439693	-1.148183	0.729365
H	0.31515	-1.398768	1.365406
H	-1.255072	-0.896824	1.27938
N	-0.360184	1.275326	0.630324
O	-0.040019	2.300905	0.019624
O	-0.885795	1.266893	1.757185
H	2.558662	0.0	0.0
