18

C	-0.387079	0.009159	-1.490282
C	0.0	0.0	0.0
Cl	-0.005107	-1.595142	-2.168221
H	1.090599	0.0	0.0
N	-1.904106	0.17474	-1.60867
O	-2.613514	-0.748487	-1.212632
O	-2.321006	1.257732	-2.016376
C	0.351295	1.058234	-2.280854
H	0.144753	0.945819	-3.346428
H	1.414814	0.905496	-2.067837
H	0.068982	2.055672	-1.956828
N	-0.440072	-1.071911	0.813597
H	-1.320974	-1.470516	0.522229
H	0.293793	-1.768027	0.836389
N	-0.497992	1.300285	0.568371
O	-1.558182	1.283193	1.199093
O	0.179868	2.309412	0.365016
H	2.671118	0.0	0.0
