16

C	-0.486793	-0.004131	-1.455348
C	0.0	0.0	0.0
F	-0.075733	1.135466	-2.124542
H	1.099902	0.0	0.0
C	0.00717	-1.184691	-2.18726
N	0.35554	-2.11783	-2.808542
C	-1.967711	-0.025051	-1.487602
N	-3.141147	0.02189	-1.500196
N	-0.480256	-1.253842	0.574625
H	0.308393	-1.784345	0.925288
H	-1.127123	-1.08629	1.333769
C	-0.489631	1.23785	0.730908
H	-0.201454	2.144703	0.196977
H	-1.578901	1.229994	0.856603
H	-0.018194	1.265277	1.715611
Cl	3.356464	0.0	0.0
