16

C	-0.501716	-0.004014	-1.44508
C	0.0	0.0	0.0
F	-1.903038	0.014919	-1.443791
H	1.095819	0.0	0.0
C	-0.067485	1.182688	-2.204684
N	0.262956	2.123269	-2.824727
C	-0.091552	-1.223373	-2.160515
N	0.220712	-2.193996	-2.74161
N	-0.453672	-1.249116	0.601608
H	0.319249	-1.667971	1.101537
H	-1.216188	-1.089765	1.24581
C	-0.480437	1.248086	0.730402
H	-0.064983	1.232508	1.739664
H	-1.572798	1.27621	0.792989
H	-0.130071	2.161145	0.243995
Cl	3.33785	0.0	0.0
