16

C	-0.461894	-0.016996	-1.463389
C	0.0	0.0	0.0
F	0.04101	1.071893	-2.151519
H	1.100113	0.0	0.0
C	-0.019286	-1.248812	-2.143464
N	0.311051	-2.224243	-2.707453
C	-1.938135	0.052139	-1.540526
N	-3.104729	0.176837	-1.589366
N	-0.532961	-1.229797	0.592634
H	-0.854618	-1.045299	1.534944
H	0.221004	-1.907143	0.656708
C	-0.505525	1.243137	0.705854
H	-0.233253	2.140269	0.148246
H	-0.027542	1.305277	1.686254
H	-1.592993	1.216966	0.83674
Cl	3.370715	0.0	0.0
