16

C	-0.501124	-0.014693	-1.44608
C	0.0	0.0	0.0
F	-1.902291	-0.002536	-1.445207
H	1.095744	0.0	0.0
C	-0.070419	1.169453	-2.212327
N	0.260017	2.107732	-2.836092
C	-0.085358	-1.236813	-2.15452
N	0.236025	-2.208281	-2.729295
N	-0.450726	-1.246343	0.609223
H	0.320955	-1.654722	1.119972
H	-1.221528	-1.08712	1.244166
C	-0.48246	1.252558	0.721132
H	-1.575157	1.280272	0.781285
H	-0.069175	1.243845	1.731645
H	-0.131299	2.162681	0.229492
Cl	3.339579	0.0	0.0
