16

C	-0.461995	-0.017094	-1.463376
C	0.0	0.0	0.0
F	0.041135	1.071582	-2.151716
H	1.099989	0.0	0.0
C	-0.019814	-1.2491	-2.143361
N	0.310368	-2.224363	-2.707706
C	-1.938233	0.052459	-1.540258
N	-3.104904	0.177079	-1.587506
N	-0.532784	-1.229741	0.592794
H	-0.857283	-1.044743	1.534012
H	0.221745	-1.906177	0.659334
C	-0.505158	1.24337	0.705745
H	-0.232452	2.140373	0.148137
H	-0.02727	1.305328	1.686194
H	-1.592651	1.217703	0.836493
Cl	3.370578	0.0	0.0
