13
Coordinates from ORCA-job run
  C   -0.47015141596456      0.43916028326764     -0.35177713300775
  C   0.86542412799621      0.45287875129852     -0.15029167197533
  H   1.42232517521299      1.28093833223677     -0.58616283348355
  C   -1.45928450907486     -0.58464121801840      0.13943679350214
  H   -0.97760804372855     -1.37399326538776      0.71385018052988
  H   -2.21305192239875     -0.10748452012277      0.77122697098036
  H   -1.98251788405581     -1.04118203113524     -0.70470245992099
  C   -1.04004358322066      1.51433072451851     -1.11816234723233
  N   -1.53683535418627      2.37991074572968     -1.74109617823246
  C   1.67392629554289     -0.54974663631328      0.60930748931800
  H   2.43550180338914     -0.99047054070810     -0.04118855922412
  H   1.07603477003734     -1.35793449857668      1.02756069907415
  H   2.20628054045090     -0.05976612678889      1.42999904967199
