13
Coordinates from ORCA-job run
  C   -0.53895998004571      0.09677673018416     -0.05967451522404
  C   0.61799832359590     -0.43809738089066      0.38145193870082
  H   0.54501910955552     -1.22345425220663      1.13314357751250
  C   -1.90273368351179     -0.32477395922005      0.41900157083749
  H   -2.50680737153347     -0.69814630819679     -0.41203457953270
  H   -1.81410918477797     -1.11317940478646      1.16862669131192
  H   -2.43777425179793      0.51977654319090      0.86129782472957
  C   -0.51057965405378      1.13681520128311     -1.05065773726338
  N   -0.51624078556011      1.98993727755597     -1.86125621278030
  C   1.99238634794951     -0.05419949948663     -0.06421544670034
  H   1.97213630269962      0.73611105048267     -0.81584218777421
  H   2.51238593391948     -0.91958402813078     -0.48595894004748
  H   2.58727889356071      0.29201803022119      0.78611801623015
