13
Coordinates from ORCA-job run
  C   -0.49101307315849      0.19371946705410     -0.50889258297864
  C   0.83779017406033     -0.04804559226561     -0.52203371612541
  H   1.34872660461013      0.05165806526938     -1.47853358517428
  C   -1.42174172219695      0.12512841025226      0.67300905437329
  H   -2.21493041481531     -0.60362266394005      0.48739797151412
  H   -0.90044149226953     -0.15819167875897      1.58569258607612
  H   -1.90013099463458      1.09446747252194      0.83453782535847
  C   -1.11480172205505      0.56043161077016     -1.75167726199704
  N   -1.65560179213091      0.86270596728973     -2.75182132775100
  C   1.69526080626964     -0.44111912575912      0.63836503132599
  H   1.14322434401935     -0.52521755683375      1.57310653419853
  H   2.17915782617700     -1.40232911818706      0.44067081721827
  H   2.49550145612436      0.29141474258697      0.78017865396156
