13
Coordinates from ORCA-job run
  C   -0.53883179475073      0.09619018870719     -0.05851150113897
  C   0.61969124096725     -0.43287528814422      0.38548679714648
  H   0.54908338357179     -1.20326997918433      1.15287130602852
  C   -1.90039673696107     -0.31161375250933      0.43809144749440
  H   -1.81015612660413     -1.08780237546041      1.19967179415208
  H   -2.42732908424153      0.54296118503294      0.87005896999596
  H   -2.51295013335030     -0.69526741533285     -0.38172046016783
  C   -0.51466942571849      1.11701415826763     -1.06937362805850
  N   -0.52339765035617      1.95426982962294     -1.89626005679377
  C   1.99178081328645     -0.06073658193034     -0.07646820711163
  H   2.50743644189081     -0.93476092811924     -0.48528871972355
  H   1.96764696894901      0.71531628206859     -0.84264181182714
  H   2.59309210331711      0.30057467698143      0.76308407000396
