13
Coordinates from ORCA-job run
  C   -0.53951996067313      0.08922383074602     -0.06470620543278
  C   0.62007902877385     -0.42973212687361      0.38816772263738
  H   0.55001303230750     -1.21361951141074      1.14157158170019
  C   -1.90215301025557     -0.34740727481673      0.40336944086678
  H   -2.45096601874995      0.49232555938171      0.83679805033685
  H   -1.81123152855572     -1.13193386342899      1.15632945495687
  H   -2.49378037798308     -0.73144606219897     -0.43147267533381
  C   -0.51496395489198      1.12726675428464     -1.05816226141245
  N   -0.52343307215623      1.97779583463301     -1.87139721016740
  C   1.99306521030514     -0.02964536299518     -0.04700923683508
  H   2.57789979054271      0.32109959982543      0.80850809585318
  H   2.52597299351682     -0.88797593859589     -0.46698435719734
  H   1.96901786781963      0.76204856144931     -0.79701239997239
