13
Coordinates from ORCA-job run
  C   -0.48090623444338      0.11560643741544     -0.54281604203956
  C   0.84123783247041     -0.15675741500403     -0.49790029286955
  H   1.36428942040197     -0.22712322704951     -1.45016899757765
  C   -1.42053195169155      0.26997724812104      0.62416207526418
  H   -0.89894702822649      0.20689908468872      1.57750772514101
  H   -1.92796068048082      1.23643304941974      0.57349572028665
  H   -2.19130955116971     -0.50480898302359      0.59672000563915
  C   -1.08692710461242      0.27825641633336     -1.83648791080668
  N   -1.61310235790465      0.42114869235245     -2.87905627364476
  C   1.67517832725782     -0.36726355963548      0.72562996956655
  H   1.08773942362034     -0.42327450356759      1.64060898232578
  H   2.24832235196709     -1.29403602555085      0.63408480390784
  H   2.40191755281138      0.44394278550030      0.83522023480704
