13

C	-0.436513	0.049078	-1.45013
C	0.0	0.0	0.0
Br	-2.376816	0.311915	-1.622161
H	1.095481	0.0	0.0
H	-0.331814	0.914148	0.495909
N	0.198572	1.285435	-2.113288
O	0.203057	2.30097	-1.437354
O	0.592762	1.155049	-3.262163
C	-0.081096	-1.141463	-2.204734
N	0.202068	-2.11683	-2.796411
C	-0.539463	-1.169345	0.67148
N	-0.992276	-2.104002	1.219196
Cl	3.194936	0.0	0.0
