13

C	-0.535256	-0.003763	-1.424356
C	0.0	0.0	0.0
Br	0.286222	1.439332	-2.42864
H	1.091148	0.0	0.0
H	-0.306806	0.947514	0.455362
N	-0.189541	-1.315547	-2.157323
O	0.606309	-2.060118	-1.61072
O	-0.748044	-1.480262	-3.234691
C	-1.984947	0.145506	-1.492437
N	-3.151913	0.290578	-1.491543
C	-0.567725	-1.097689	0.773038
N	-1.063993	-1.957002	1.401062
Cl	3.254353	0.0	0.0
