13

C	-0.433485	-0.079824	-1.451527
C	0.0	0.0	0.0
Br	-2.372737	0.157538	-1.657911
H	1.095417	0.0	0.0
H	-0.334801	0.954045	0.411358
N	0.202671	1.095544	-2.215535
O	0.175894	2.172909	-1.642304
O	0.634538	0.858888	-3.335249
C	-0.07149	-1.330892	-2.098214
N	0.177094	-2.37034	-2.588473
C	-0.53916	-1.10633	0.771947
N	-0.984431	-1.990838	1.403011
Cl	3.200194	0.0	0.0
