13

C	-0.495377	0.021949	-1.444933
C	0.0	0.0	0.0
Br	0.142691	-1.498783	-2.433522
H	1.092764	0.0	0.0
H	-0.335803	0.921889	0.484888
N	-2.049337	0.04078	-1.408747
O	-2.513802	1.085492	-0.966929
O	-2.670794	-0.953113	-1.74209
C	-0.086487	1.244822	-2.123995
N	0.218087	2.229347	-2.687575
C	-0.530084	-1.150628	0.717878
N	-0.962847	-2.069433	1.307286
Cl	3.224937	0.0	0.0
