13

C	-0.552107	-0.000176	-1.418232
C	0.0	0.0	0.0
Br	0.29365	1.409106	-2.448645
H	1.091154	0.0	0.0
H	-0.305162	0.945181	0.461556
N	-0.247409	-1.326044	-2.141655
O	-0.895367	-1.534929	-3.160455
O	0.619038	-2.031208	-1.652302
C	-1.998061	0.189826	-1.463866
N	-3.158744	0.377401	-1.438091
C	-0.564857	-1.10256	0.768855
N	-1.060234	-1.971954	1.383502
Cl	3.256413	0.0	0.0
