15

C	0.0	0.0	0.0
C	-0.763331	0.228391	-1.285356
Cl	1.755737	0.0	0.0
H	-0.428542	1.174109	-1.718552
H	-1.810925	0.348891	-0.962345
N	-0.377069	1.057848	1.044643
O	-0.057368	0.822793	2.201248
O	-0.90987	2.075422	0.621161
N	-0.447216	-1.344342	0.604508
O	0.247821	-2.323228	0.378545
O	-1.506027	-1.301966	1.21258
N	-0.632588	-0.918649	-2.162544
H	-0.135245	-0.685792	-3.008407
H	-1.556796	-1.253092	-2.40278
Br	-4.231599	0.0	0.0
