14
Coordinates from ORCA-job run
  C   -0.71330205938303      0.31012536936231      0.57662645785420
  C   0.54138664822200     -0.55132497781426      0.63530169038204
  Cl  -1.70658952237255      0.08127848020624      2.02351786438009
  H   1.11429708842566     -0.22232457179891      1.50637029870189
  H   0.21180370682401     -1.57671985975515      0.81862386155084
  C   -0.40782709955201      1.72655895157227      0.41605242246403
  N   -0.10556584560895      2.86037502585168      0.35093985985734
  N   -1.52739613134167     -0.16055490284534     -0.64268912965152
  O   -1.64500839043196      0.62954056625568     -1.57051915362652
  O   -1.92444851028683     -1.31402473326134     -0.59627543485405
  C   1.37392803428546     -0.45666484807113     -0.63861472501278
  H   2.28840536997938     -1.03991302934953     -0.51778094583131
  H   1.65955822467435      0.57372441925983     -0.86009245656963
  H   0.83875848656612     -0.86007588961233     -1.50046060964462
