14
Coordinates from ORCA-job run
  C   -0.65031874966266      0.25140522323857      0.31205748761197
  C   0.34706305147131     -0.67355421812387     -0.36581834929496
  Cl  -0.80745380656339     -0.11889565526541      2.04435534240247
  H   0.01920669066092     -1.69627111097303     -0.17400612079759
  H   0.26075609762049     -0.49823812670101     -1.44370229532851
  C   -0.29776807696561      1.65649711076762      0.14667197689768
  N   0.07120772599807      2.76238311934858     -0.00164718117757
  N   -2.05480029049621      0.04067135166574     -0.28778070590046
  O   -2.32610666722347     -1.10201468031715     -0.62669880079057
  O   -2.78636451800704      1.02035182704008     -0.33316950604044
  C   1.78044067932662     -0.44697277763438      0.09934701504677
  H   2.12052598245047      0.56531884771987     -0.12704064979721
  H   2.44197026911709     -1.14639436161727     -0.41461771269728
  H   1.88264161227340     -0.61528654914833      1.17204949986569
