14
Coordinates from ORCA-job run
  C   -0.72676365026310      0.31143199436157      0.56080365809223
  C   0.53332047538127     -0.53926152571749      0.65164574303518
  Cl  -1.74363021438516      0.09148964614493      1.99293851849219
  H   1.08786455373357     -0.19607213547665      1.52907860057133
  H   0.20816559782549     -1.56503264812787      0.84060974701535
  C   -0.42835667795828      1.72793302908504      0.38899977156695
  N   -0.11737179059066      2.85803103298020      0.30361453572568
  N   -1.51684912153380     -0.17952118952972     -0.66633468406451
  O   -1.63161370326879      0.60137926721363     -1.60222208073547
  O   -1.90002428840470     -1.33748402663213     -0.61564022924730
  C   1.38810323248000     -0.45242579968667     -0.60798827006241
  H   1.67354715139820      0.57714235027018     -0.83329232602484
  H   0.87014550557602     -0.86566477954007     -1.47568238639935
  H   2.30246293000994     -1.03094521534494     -0.46553059796503
