14
Coordinates from ORCA-job run
  C   -0.65233391523277      0.32752105150777      0.51972992895863
  C   0.84445452529132      0.25227240466809      0.21170820459510
  Cl  -1.11331660565954     -0.76015137402316      1.82594182491310
  H   1.06330902957781      1.06180076591470     -0.49004953188933
  H   1.36694382630868      0.47049294455862      1.14670183110988
  C   -1.06317164179414      1.68716135063626      0.85118238614566
  N   -1.34891771666964      2.78846188451924      1.14511098574308
  N   -1.38503658768892     -0.06675445914465     -0.78370833657827
  O   -1.89856172811693     -1.16857640960242     -0.85880641185178
  O   -1.29689845087907      0.77884990939086     -1.66505285207796
  C   1.27830061313750     -1.08985351556081     -0.36383310140989
  H   0.98494382223060     -1.92024222451705      0.27926590634958
  H   0.85524453099635     -1.25464973783124     -1.35654294505159
  H   2.36504029849875     -1.10433259051622     -0.46264788895638
