14
Coordinates from ORCA-job run
  C   -0.63884226651992      0.33760736118847      0.53052486623254
  C   0.84956788819591      0.25367355712559      0.18646657284968
  Cl  -1.06958809243438     -0.72622633728009      1.86611662947434
  H   1.05199372662935      1.05073755803466     -0.53415997737872
  H   1.39623021286899      0.48637209290978      1.10397718195496
  C   -1.03835052725560      1.70394913260994      0.84852085044198
  N   -1.31481681110571      2.81057888839156      1.13109759595265
  N   -1.40401073985218     -0.07686731182646     -0.74764756749317
  O   -1.33449374366634      0.75301186447655     -1.64540856110698
  O   -1.92225155215502     -1.17819826705478     -0.79133096280981
  C   1.26638539353229     -1.09889615616596     -0.37698635179536
  H   2.35021945923988     -1.11734351301488     -0.50338848798727
  H   0.98841337819891     -1.91757063199387      0.28763109434788
  H   0.81754367432382     -1.27982823740053     -1.35541288268273
