14
Coordinates from ORCA-job run
  C   -0.65492205127725      0.25986863217715      0.36284713173815
  C   0.33180183105089     -0.65538788937537     -0.35564558281391
  Cl  -0.73888974312426     -0.10465574785897      2.09321237209269
  H   0.20282341046117     -0.47273147096921     -1.42867682169537
  H   0.01603544091046     -1.68065142877487     -0.14731997695146
  C   -0.33503519314955      1.67001417290569      0.18032208408730
  N   0.00844470775048      2.78532766094165      0.04133140540938
  N   -2.04123068820873     -0.01561174063230     -0.25326691878497
  O   -2.50059870079698      0.85609932737855     -0.97989769023803
  O   -2.51877913975011     -1.11345294002007     -0.01734675252357
  C   1.77925022165821     -0.42071121295170      0.05384670503880
  H   1.92404083756207     -0.59565322912916      1.12042925169451
  H   2.42716035900713     -1.10933657183083     -0.49133943517304
  H   2.09889870790648      0.59688243813947     -0.17849577188049
