14
Coordinates from ORCA-job run
  C   -0.69715826391405      0.27707301064297      0.49046196748835
  C   0.81491592872356      0.06617987609252      0.39224319184653
  Cl  -1.48934949148727     -1.02465469780552      1.37367555618669
  H   1.23626653315291      0.98628634881632     -0.02205920870418
  H   1.18264382007819     -0.03794360856221      1.41645446791702
  C   -1.02056955511322      1.55529612355031      1.11409447982725
  N   -1.24219308574680      2.57718564035315      1.65036269888388
  N   -1.22418897905439      0.33073869887890     -0.96238639736814
  O   -1.82630068201100     -0.63081304960899     -1.40527494579239
  O   -0.89469281143316      1.34716042101132     -1.56066907330678
  C   1.20547746706244     -1.13504577822685     -0.45923653983089
  H   0.71935399092777     -2.04922899229249     -0.11700166685115
  H   2.28521690289291     -1.28196994163123     -0.40014326050781
  H   0.95157822592210     -0.98026405121821     -1.50952126978838
