14
Coordinates from ORCA-job run
  C   -0.71112378288717      0.31966111088696      0.44426547924869
  C   0.78641488450000      0.00530299544126      0.44671143735113
  Cl  -1.65028996623275     -0.93379326117669      1.24997009440143
  H   1.07446119482937     -0.13273021918554      1.49207703240381
  H   1.29659032488921      0.89818902278355      0.07495740528923
  C   -0.98516482336564      1.60987627866060      1.06716125223373
  N   -1.16580775357424      2.63804787330519      1.60671458144489
  N   -1.13013708947638      0.42640730560358     -1.03938386043370
  O   -0.70689753766909      1.43281143503817     -1.59377413473162
  O   -1.74486803497040     -0.49693838816962     -1.54314945546160
  C   1.15360826810793     -1.21185969398101     -0.39242554666576
  H   2.21426725653615     -1.43227693221584     -0.26041396262133
  H   0.98475577854328     -1.03100320447979     -1.45554274118644
  H   0.58419128076974     -2.09369432251081     -0.09716758127247
