14
Coordinates from ORCA-job run
  C   -0.65536908881342      0.26064544840418      0.36264515740119
  C   0.33460175233103     -0.65756440478955     -0.34804790978971
  Cl  -0.72739558669748     -0.07951139498575      2.09829650090699
  H   0.02704937620185     -1.68206712707068     -0.12391647769075
  H   0.19919173450665     -0.49068181281254     -1.42283261073304
  C   -0.34647171561793      1.67024165522262      0.15841431255321
  N   -0.01167431587126      2.78635814190272      0.00528017340185
  N   -2.04192785750169     -0.03401158910947     -0.24351779254686
  O   -2.51655077469328     -1.12678054993367      0.01978819189530
  O   -2.50332439273298      0.81838646094564     -0.99149649250806
  C   1.78231057464571     -0.40739586090165      0.05102994266062
  H   2.09374272243278      0.60913192414495     -0.19665695146619
  H   1.93355040929420     -0.56689732486218      1.11912381329016
  H   2.43226716251580     -1.09885356615462     -0.48810985737471
