14
Coordinates from ORCA-job run
  C   -0.65812953169376      0.29116015511021      0.33262615229837
  C   0.33394074311851     -0.68292345340915     -0.29556628526424
  Cl  -0.76012099431250      0.07484361711272      2.08659314966233
  H   0.01355349454117     -1.68631162059958     -0.00409791529438
  H   0.21663912023774     -0.59141189568216     -1.38150649221014
  C   -0.33389234539645      1.68037432746641      0.03431315003335
  N   0.01378242503459      2.77974429807993     -0.19379462059017
  N   -2.03883374151745     -0.03485022969267     -0.27287358758983
  O   -2.52518329835377     -1.10417425058081      0.05702990789444
  O   -2.48258621207122      0.76717096665963     -1.08439238557838
  C   1.77758955086582     -0.41689497376288      0.10833648115441
  H   2.43021664244892     -1.14486521330495     -0.37655043055587
  H   1.91205836949484     -0.50957741840356      1.18628606143358
  H   2.09996577760354      0.57971569100687     -0.19840318539346
