14
Coordinates from ORCA-job run
  C   -0.59066549622081      0.35779375906761      0.56990853183427
  C   0.86152164503357      0.26971675344858      0.09654166350924
  Cl  -0.88498652580071     -0.64537707495635      1.98731994003773
  H   0.98934021185326      1.03479483176321     -0.67412054916541
  H   1.48585229525226      0.54758097452939      0.94969151215975
  C   -0.97887700614367      1.73354050294147      0.85981861806742
  N   -1.25841061557545      2.84321656233422      1.12722718715591
  N   -1.46274886199707     -0.12382497038385     -0.61276562286580
  O   -1.96717186265626     -1.23102697211495     -0.55841884780439
  O   -1.48507422135356      0.66339689700125     -1.55055348647152
  C   1.24129409488168     -1.10386437734009     -0.44188873588021
  H   2.31070284678300     -1.12264692101306     -0.65861434849909
  H   0.71302821336785     -1.32889116373870     -1.37027743459898
  H   1.02719528257591     -1.89440880153874      0.27813157252107
