14
Coordinates from ORCA-job run
  C   -0.67038573112343      0.33401071745357      0.49334995504733
  C   0.82470684087914      0.03073426573426      0.37623115233554
  Cl  -1.52030498187172     -0.88730603516629      1.43540382652965
  H   1.20579234245908     -0.06136588334766      1.39659039992377
  H   1.29067494608169      0.91027235210999     -0.07640638955168
  C   -0.90573305493398      1.64997054361259      1.07651613060882
  N   -1.05271836559636      2.70159104754950      1.57978318578605
  N   -1.22070933926193      0.36897842413384     -0.95144655512982
  O   -1.88642325537933     -0.56992056658729     -1.34948552455804
  O   -0.84456641822676      1.34362441999108     -1.59024596687881
  C   1.12724598435652     -1.21837988032352     -0.44169672260290
  H   2.19688799814223     -1.42949448764545     -0.39395103163875
  H   0.86542638071299     -1.08079164594278     -1.49249948714449
  H   0.59210665376186     -2.08992327157183     -0.06314297272668
