14
Coordinates from ORCA-job run
  C   -0.65198074947711      0.23901819968800      0.38808556159194
  C   0.33547323554731     -0.63513557414711     -0.38297263456080
  Cl  -0.69682633387989     -0.18319307953287      2.10058566732300
  H   0.03224622023242     -1.67325498667174     -0.21815751009044
  H   0.19561001604704     -0.40204069190957     -1.44381804548970
  C   -0.36100793786976      1.66049922639951      0.24583935974865
  N   -0.07677098429759      2.79838316022004      0.17015764285126
  N   -2.03784412169656     -0.03009816765534     -0.24110839819925
  O   -2.32017702680503      0.69101834557210     -1.18950252579714
  O   -2.67122891630463     -0.97946811714803      0.18669654888628
  C   1.78476929143023     -0.40925518922130      0.02522880861251
  H   1.94360046928888     -0.64273022307022      1.07833141583471
  H   2.43413643544494     -1.05760789426726     -0.56580399214138
  H   2.09000040233976      0.62386499174378     -0.15256189856963
