14
Coordinates from ORCA-job run
  C   -0.73129339592619      0.18632455353950      0.60811208624730
  C   0.60380661737429     -0.54598155528894      0.58102795687450
  Cl  -1.67115435910720     -0.26392871503187      2.03904556482139
  H   1.15566402194417     -0.23643032415389      1.47256121789290
  H   0.38133697233334     -1.61129095194922      0.67763804103821
  C   -0.57019386042860      1.63460562297799      0.56771299970905
  N   -0.36782781107429      2.79216449187051      0.58346382224549
  N   -1.51739033338690     -0.25783470921312     -0.63933963522560
  O   -1.73862577727496      0.59506289799162     -1.48925435773188
  O   -1.79012456998915     -1.44653862583039     -0.69323740438446
  C   1.40106511095173     -0.25980496226334     -0.68680417866473
  H   0.89499125882240     -0.64245872885985     -1.57528305342345
  H   1.57681766319326      0.80933789615080     -0.82203752460168
  H   2.37192846256808     -0.75422688993979     -0.62360553479705
