18

C	-0.236121	-0.029684	-1.467709
C	-0.026708	0.064993	0.049243
F	-1.61774	-0.257726	-1.709377
H	1.059173	0.20848	0.160056
C	0.101395	1.274921	-2.167576
H	-0.519884	2.100779	-1.81227
H	-0.062215	1.152469	-3.242785
H	1.158315	1.489609	-1.988674
N	0.506784	-1.156736	-1.924211
H	1.469956	-1.048305	-1.511622
H	0.609012	-1.092679	-2.932891
C	-0.414134	-1.226582	0.772556
H	0.241962	-2.025398	0.431268
H	-0.297161	-1.104581	1.852736
H	-1.44882	-1.494643	0.550703
C	-0.750676	1.201755	0.609998
N	-1.33451	2.102148	1.090233
H	2.792478	-0.447069	-0.656642
