18

C	-0.276267	-0.246661	-1.460443
C	0.002113	-0.026062	0.052796
F	-0.077456	-1.626725	-1.660491
H	1.097306	-0.043037	0.120899
C	-1.70874	0.033079	-1.877805
H	-1.964285	1.084028	-1.728442
H	-2.40529	-0.583916	-1.305985
H	-1.802133	-0.213655	-2.936973
N	0.654738	0.43937	-2.293221
H	1.589847	0.40801	-1.82816
H	0.383042	1.412903	-2.371494
C	-0.619379	-1.065477	0.985947
H	-1.71099	-1.085019	0.916834
H	-0.346949	-0.850438	2.022667
H	-0.232972	-2.049714	0.723326
C	-0.428769	1.318595	0.41695
N	-0.802182	2.39363	0.713395
H	2.869542	0.260466	-0.60694
