18

C	-0.404332	0.022668	-1.524809
C	-0.03788	0.050856	-0.028731
F	-0.044171	1.283895	-2.015137
H	1.042508	0.228329	0.028623
C	0.407151	-1.019116	-2.260249
H	0.339901	-0.808473	-3.329673
H	1.441835	-0.981345	-1.898437
H	0.015459	-2.022829	-2.072694
N	-1.813343	-0.108313	-1.833345
H	-2.11629	-1.049965	-1.62095
H	-2.345377	0.534508	-1.254278
C	-0.239597	-1.298368	0.65942
H	-0.177526	-1.178604	1.743276
H	-1.204092	-1.75727	0.417176
H	0.597485	-1.933848	0.35827
C	-0.800267	1.106078	0.627245
N	-1.451399	1.934319	1.150873
H	2.727227	-0.709579	-0.075284
