13

C	-0.453536	0.068644	-1.453864
C	0.0	0.0	0.0
Cl	-0.176825	-1.536719	-2.236921
H	1.09143	0.0	0.0
H	-0.347098	0.896807	0.522377
H	-0.395441	-0.88421	0.499996
C	-1.891853	0.336242	-1.560993
N	-3.037742	0.588528	-1.624889
C	0.352721	1.113907	-2.215244
H	0.077641	1.132001	-3.271008
H	1.412655	0.877474	-2.099548
H	0.167856	2.098152	-1.77637
Br	3.676689	0.0	0.0
