16

C	0.0	0.0	0.0
C	-0.383522	0.034018	-1.483051
Br	2.043606	0.0	0.0
H	-0.229324	1.073864	-1.830535
H	0.318293	-0.591587	-2.040757
N	-0.530287	1.110421	0.664498
H	-0.410119	1.093514	1.666764
H	-0.256116	1.998611	0.270333
C	-0.410692	-1.283111	0.696457
H	-0.030386	-2.150031	0.157229
H	-1.500572	-1.326056	0.718657
H	-0.015287	-1.299689	1.716153
N	-1.718108	-0.506622	-1.650584
H	-2.419343	-0.064698	-1.053363
H	-2.031097	-0.387164	-2.605945
Br	-4.731326	0.0	0.0
