16

C	0.0	0.0	0.0
C	-0.437772	0.112347	-1.450025
Br	2.065211	0.0	0.0
H	-0.15173	1.108962	-1.823043
H	-1.532556	0.074884	-1.386204
N	-0.463659	1.10284	0.713597
H	-0.18207	1.997384	0.341203
H	-0.331824	1.046564	1.711395
C	-0.437949	-1.295736	0.638409
H	-0.064027	-2.14038	0.06317
H	-1.533806	-1.289504	0.634423
H	-0.073261	-1.363502	1.667013
N	0.04902	-0.989603	-2.268768
H	0.999364	-0.803282	-2.564558
H	-0.535705	-1.071298	-3.091469
Br	-4.109673	0.0	0.0
