16

C	0.0	0.0	0.0
C	-0.429877	0.392075	-1.4025
Br	2.093314	0.0	0.0
H	-1.522005	0.287479	-1.381308
H	-0.008136	-0.321679	-2.1209
N	-0.461623	0.936824	0.897943
H	-0.233815	0.782215	1.865978
H	-0.34339	1.885381	0.57302
C	-0.409873	-1.407392	0.36132
H	-1.505466	-1.423243	0.343594
H	-0.002137	-2.127918	-0.349831
H	-0.057141	-1.671147	1.361225
N	-0.09245	1.78654	-1.675716
H	0.835644	1.847765	-2.073524
H	-0.758621	2.175684	-2.328612
Br	-4.081557	0.0	0.0
