16

C	0.0	0.0	0.0
C	-0.291835	0.838217	-1.281627
Br	1.985453	0.0	0.0
H	0.082788	0.260999	-2.13343
H	0.322357	1.736345	-1.200906
N	-0.48306	0.712745	1.154738
H	-0.325666	0.154924	1.988391
H	-1.495643	0.776963	1.039396
C	-0.487599	-1.432862	-0.10871
H	-0.201119	-2.009073	0.775456
H	-1.582136	-1.40791	-0.163894
H	-0.085529	-1.930501	-0.995584
N	-1.647396	1.25482	-1.543939
H	-2.333446	0.510616	-1.46229
H	-1.942522	1.952106	-0.879083
Br	-4.298417	0.0	0.0
