16

C	0.0	0.0	0.0
C	-0.28969	0.410851	-1.475155
Br	1.968862	0.0	0.0
H	0.230293	1.361863	-1.646248
H	0.189998	-0.326072	-2.128721
N	-0.486726	0.921496	0.988972
H	-0.328778	1.87681	0.685371
H	-1.493076	0.779563	1.078565
C	-0.508089	-1.38969	0.324352
H	-0.130873	-2.117927	-0.395974
H	-0.19506	-1.680349	1.328183
H	-1.603026	-1.375989	0.288821
N	-1.664818	0.571	-1.879775
H	-2.134835	1.278793	-1.328942
H	-2.218252	-0.261044	-1.712338
Br	-4.328649	0.0	0.0
