16

C	0.0	0.0	0.0
C	-0.431452	-0.382554	-1.413862
Br	1.992223	0.0	0.0
H	-1.526545	-0.387552	-1.366162
H	-0.124544	0.431591	-2.091489
N	-0.463861	1.301222	0.393084
H	-0.345894	1.952086	-0.377868
H	-1.469328	1.207283	0.556955
C	-0.442616	-1.028273	1.020174
H	-0.101199	-0.732183	2.013724
H	-1.536425	-1.054056	1.001554
H	-0.05409	-2.010926	0.760159
N	0.036158	-1.701291	-1.826002
H	-0.558374	-2.047234	-2.56789
H	0.982907	-1.635399	-2.178105
Br	-3.921441	0.0	0.0
