16

C	0.0	0.0	0.0
C	-0.479901	0.12552	-1.439463
Br	1.974602	0.0	0.0
H	-1.572787	0.091875	-1.367041
H	-0.18894	1.122844	-1.794792
N	-0.454117	1.171159	0.712771
H	-1.472814	1.183859	0.608667
H	-0.263853	1.046218	1.702458
C	-0.421478	-1.323338	0.620385
H	-1.515959	-1.332638	0.644688
H	-0.035414	-1.402836	1.640925
H	-0.060859	-2.163759	0.027164
N	-0.026853	-0.975635	-2.283564
H	-0.682708	-1.096412	-3.044687
H	0.878588	-0.755942	-2.67813
Br	-3.939109	0.0	0.0
