16

C	0.0	0.0	0.0
C	-0.447058	0.198712	-1.456766
Br	1.976659	0.0	0.0
H	-0.025937	-0.60954	-2.061722
H	-1.537588	0.087646	-1.449143
N	-0.477922	1.111764	0.785331
H	-1.500133	1.088325	0.687398
H	-0.275668	0.938913	1.765268
C	-0.427778	-1.36636	0.5153
H	-0.069048	-1.521784	1.536907
H	-0.03959	-2.17154	-0.114409
H	-1.521591	-1.386396	0.510347
N	-0.114108	1.476898	-2.066894
H	-0.553711	2.200515	-1.509377
H	0.886272	1.6208	-1.975189
Br	-3.89436	0.0	0.0
