14

C	0.0	0.0	0.0
C	-0.583008	-0.16821	-1.402878
Cl	1.782839	0.0	0.0
H	-1.701351	-0.226994	-1.060303
H	-0.337203	-0.832991	0.613958
C	-0.45027	1.245135	0.625917
N	-0.63531	2.279903	1.149782
C	-0.124837	-1.407598	-1.995645
N	0.211912	-2.413112	-2.507132
C	-0.349034	1.032997	-2.309043
H	0.712566	1.276796	-2.420086
H	-0.872109	1.895703	-1.890482
H	-0.762239	0.838112	-3.301768
F	-2.66369	0.0	0.0
