14

C	0.0	0.0	0.0
C	-0.573651	-0.194416	-1.405236
Cl	1.782902	0.0	0.0
H	-1.688836	-0.256085	-1.075674
H	-0.338702	-0.822109	0.627826
C	-0.450604	1.25807	0.601149
N	-0.627277	2.303265	1.107618
C	-0.095741	-1.437404	-1.976632
N	0.261352	-2.445837	-2.467825
C	-0.337744	0.994629	-2.327727
H	0.723821	1.244279	-2.427398
H	-0.874449	1.858584	-1.930644
H	-0.733661	0.7784	-3.322562
F	-2.652634	0.0	0.0
