14

C	0.0	0.0	0.0
C	-0.271173	0.065639	-1.543996
Cl	1.785583	0.0	0.0
H	0.50626	0.695093	-1.985035
H	-0.393595	-0.90898	0.448808
C	-0.506062	1.180166	0.685919
N	-0.636341	2.203149	1.251744
C	-1.522621	0.686514	-1.985943
N	-2.412197	1.250843	-2.511715
C	-0.144926	-1.338969	-2.135307
H	-0.893124	-1.938274	-1.640087
H	0.842569	-1.761685	-1.970514
H	-0.330613	-1.352482	-3.210373
F	-2.277277	0.0	0.0
