14

C	0.0	0.0	0.0
C	-0.252158	0.155498	-1.550898
Cl	1.7821	0.0	0.0
H	0.489308	-0.523324	-1.988189
H	-0.376113	-0.957101	0.341141
C	-0.518356	1.080819	0.826595
N	-0.645808	2.020626	1.52318
C	0.179102	1.497214	-1.965767
N	0.485101	2.570447	-2.331334
C	-1.573218	-0.183412	-2.239625
H	-2.32987	0.55805	-2.022895
H	-1.950641	-1.124685	-1.856497
H	-1.341503	-0.265015	-3.312699
F	-2.400447	0.0	0.0
