14

C	0.0	0.0	0.0
C	-0.360547	0.043888	-1.508017
Cl	1.785498	0.0	0.0
H	0.482701	0.527809	-2.016583
H	-0.364185	-0.904719	0.467126
C	-0.436133	1.178077	0.74842
N	-0.553284	2.164207	1.379382
C	-1.536468	0.836452	-1.892754
N	-2.217183	1.545915	-2.543083
C	-0.460963	-1.386267	-2.032646
H	-1.309618	-1.863725	-1.546416
H	-0.612013	-1.388886	-3.11515
H	0.466079	-1.925793	-1.811153
F	-2.331888	0.0	0.0
