17

C	-0.494378	-0.015305	-1.45115
C	0.0	0.0	0.0
Cl	0.265974	1.323182	-2.352918
H	1.09209	0.0	0.0
N	0.02574	-1.307984	-2.097627
O	1.205187	-1.574331	-1.950675
O	-0.78377	-1.971005	-2.748946
C	-1.993564	0.052505	-1.620626
H	-2.267886	0.034789	-2.674516
H	-2.446247	-0.810174	-1.129518
H	-2.356229	0.975754	-1.165764
N	-0.447945	-1.231822	0.647681
H	-1.265961	-1.088103	1.226417
H	0.317667	-1.560304	1.22362
C	-0.489767	1.202604	0.658371
N	-0.925366	2.134737	1.230528
F	2.531512	0.0	0.0
