17

C	-0.600855	-0.009154	-1.403587
C	0.0	0.0	0.0
Cl	0.130571	1.289897	-2.383481
H	1.091935	0.0	0.0
N	-0.18068	-1.32877	-2.055251
O	1.002657	-1.621712	-2.008174
O	-1.064563	-1.996053	-2.593828
C	-2.105255	0.114104	-1.447445
H	-2.543618	-0.703692	-0.873503
H	-2.389381	1.071198	-1.007961
H	-2.4724	0.060591	-2.471134
N	-0.380905	-1.25548	0.664519
H	-1.054467	-1.111016	1.404849
H	0.475253	-1.622256	1.06507
C	-0.465333	1.175463	0.71829
N	-0.864034	2.097842	1.331633
F	2.523123	0.0	0.0
