17

C	-0.368034	-0.069345	-1.476232
C	0.0	0.0	0.0
Cl	-2.082868	-0.519961	-1.715317
H	1.092089	0.0	0.0
N	-0.148966	1.288639	-2.138146
O	0.755557	1.964655	-1.661395
O	-0.806	1.573909	-3.135704
C	0.566746	-1.0405	-2.165096
H	0.324185	-2.041279	-1.810448
H	0.454453	-0.985094	-3.249851
H	1.575356	-0.780662	-1.821421
N	-0.31466	-1.284349	0.629024
H	-1.165899	-1.245129	1.174005
H	0.467312	-1.50696	1.23229
C	-0.591879	1.140179	0.683527
N	-1.085408	2.012824	1.299354
F	2.575983	0.0	0.0
