17

C	-0.373529	-0.01047	-1.46744
C	0.0	0.0	0.0
Cl	0.379285	-1.413694	-2.249683
H	1.095446	0.0	0.0
N	-1.888894	-0.153562	-1.690394
O	-2.620452	-0.032461	-0.708995
O	-2.28283	-0.318894	-2.841078
C	0.067424	1.258699	-2.165527
H	-0.49386	2.109818	-1.769962
H	-0.0994	1.1793	-3.239651
H	1.128303	1.378025	-1.935867
N	-0.442816	-1.195783	0.6981
H	0.256874	-1.423356	1.392712
H	-1.339769	-1.053019	1.143379
C	-0.428629	1.244252	0.63687
N	-0.742774	2.230792	1.196578
F	2.542828	0.0	0.0
