17

C	-0.276675	0.227319	-1.491633
C	0.0	0.0	0.0
Cl	0.051258	-1.256862	-2.406629
H	1.101364	0.0	0.0
N	-1.757558	0.533891	-1.70461
O	-2.062792	1.630266	-2.170597
O	-2.561816	-0.31654	-1.332096
C	0.611445	1.337045	-2.001465
H	0.341516	2.280878	-1.525596
H	0.529536	1.446934	-3.082533
H	1.622379	1.052956	-1.688215
N	-0.476988	-1.253001	0.538716
H	-1.424882	-1.189905	0.88385
H	0.147701	-1.529832	1.283991
C	-0.462438	1.178006	0.735376
N	-0.832173	2.114505	1.34524
F	2.574207	0.0	0.0
