17

C	-0.320654	-0.104965	-1.489717
C	0.0	0.0	0.0
Cl	-2.050436	-0.49143	-1.797517
H	1.092553	0.0	0.0
N	-0.064978	1.258798	-2.131038
O	0.972175	1.386721	-2.775657
O	-0.888315	2.146756	-1.926315
C	0.581607	-1.14288	-2.111551
H	1.595641	-0.91362	-1.768733
H	0.281485	-2.113514	-1.719817
H	0.50622	-1.133708	-3.199323
N	-0.343718	-1.263965	0.65037
H	0.401444	-1.467224	1.305676
H	-1.222936	-1.201187	1.147512
C	-0.574661	1.153223	0.675835
N	-1.045186	2.015958	1.323531
F	2.56655	0.0	0.0
