17

C	-0.211123	-0.082889	-1.527213
C	0.0	0.0	0.0
Cl	0.120739	-1.751433	-2.075223
H	1.096958	0.0	0.0
N	-1.666107	0.156912	-1.920511
O	-1.897042	0.818646	-2.928621
O	-2.52647	-0.348153	-1.20007
C	0.725703	0.870047	-2.224033
H	0.436354	1.897569	-1.993754
H	0.712485	0.728511	-3.303725
H	1.708332	0.666239	-1.78043
N	-0.48256	-1.060091	0.852618
H	0.202028	-1.803049	0.836365
H	-1.377932	-1.40744	0.534442
C	-0.49584	1.300256	0.442287
N	-0.884509	2.354735	0.789178
F	2.595078	0.0	0.0
