17

C	-0.619126	-0.054841	-1.391359
C	0.0	0.0	0.0
Cl	0.069447	1.240385	-2.410581
H	1.093581	0.0	0.0
N	-0.189659	-1.369759	-2.047772
O	-0.958204	-1.8436	-2.886499
O	0.892062	-1.839145	-1.732977
C	-2.127235	0.029336	-1.409899
H	-2.430122	0.977466	-0.963514
H	-2.524454	-0.799225	-0.819724
H	-2.511015	-0.036142	-2.425753
N	-0.410237	-1.216442	0.725854
H	-0.990242	-0.995821	1.524891
H	0.454528	-1.629452	1.058873
C	-0.448075	1.20922	0.672233
N	-0.82759	2.158824	1.255321
F	2.526568	0.0	0.0
