17

C	-0.343067	0.015493	-1.483715
C	0.0	0.0	0.0
Cl	-2.100357	-0.233929	-1.790348
H	1.105925	0.0	0.0
N	-0.003818	1.400198	-2.034834
O	-0.750105	2.327803	-1.737702
O	1.018459	1.498231	-2.707508
C	0.47482	-1.033968	-2.193778
H	1.50811	-0.891252	-1.866564
H	0.119082	-2.006889	-1.860024
H	0.378748	-0.944792	-3.276284
N	-0.346771	-1.306517	0.560087
H	-1.206077	-1.267126	1.093918
H	0.417272	-1.573397	1.169455
C	-0.556972	1.100507	0.771261
N	-1.002403	1.910076	1.499852
F	2.554585	0.0	0.0
