16

C	-0.409922	-0.065448	-1.463421
C	0.0	0.0	0.0
Br	0.590638	-1.500269	-2.410813
H	1.092197	0.0	0.0
C	-1.82856	-0.348094	-1.654913
N	-2.980695	-0.485277	-1.848824
C	-0.014026	1.246037	-2.143471
H	-0.600621	2.072483	-1.736069
H	1.048566	1.418379	-1.948795
H	-0.186299	1.175047	-3.218475
N	-0.420928	-1.126075	0.821005
O	-0.817944	-2.15667	0.259173
O	-0.223028	-1.009562	2.037475
C	-0.401448	1.234265	0.63218
N	-0.66676	2.283147	1.098142
H	2.366166	0.0	0.0
