16

C	-0.46756	-0.002015	-1.455065
C	0.0	0.0	0.0
Br	0.224192	1.672815	-2.265146
H	1.093394	0.0	0.0
C	0.126607	-1.081262	-2.247706
N	0.508598	-1.898766	-3.001891
C	-1.984336	0.002338	-1.609731
H	-2.259774	0.054955	-2.665238
H	-2.379523	-0.91833	-1.176479
H	-2.398662	0.866862	-1.08796
N	-0.354818	-1.198531	0.715635
O	-0.194483	-1.180449	1.947657
O	-0.616533	-2.221993	0.0514
C	-0.447157	1.162453	0.730143
N	-0.775599	2.119264	1.332219
H	2.327023	0.0	0.0
