16

C	-0.350427	-0.094156	-1.480104
C	0.0	0.0	0.0
Br	-2.3055	-0.445624	-1.753246
H	1.094268	0.0	0.0
C	-0.119345	1.223345	-2.074513
N	0.076128	2.251165	-2.609399
C	0.466888	-1.122174	-2.254166
H	1.513393	-0.965436	-1.965818
H	0.168633	-2.128677	-1.980687
H	0.33587	-0.965263	-3.327089
N	-0.342818	-1.166247	0.801784
O	-0.505748	-0.99031	2.01628
O	-0.29829	-2.274091	0.252665
C	-0.493668	1.203831	0.627699
N	-0.837966	2.215743	1.118848
H	2.391429	0.0	0.0
