16

C	-0.35461	-0.084678	-1.479959
C	0.0	0.0	0.0
Br	-2.30802	-0.452389	-1.751564
H	1.094385	0.0	0.0
C	-0.131839	1.237158	-2.066621
N	0.068544	2.265791	-2.598448
C	0.471778	-1.099773	-2.26262
H	1.517912	-0.932038	-1.975943
H	0.335156	-0.938742	-3.333344
H	0.186047	-2.111798	-1.992995
N	-0.341377	-1.172216	0.795265
O	-0.489713	-1.006279	2.010048
O	-0.312882	-2.274942	0.237849
C	-0.494127	1.198798	0.63776
N	-0.839352	2.205871	1.138841
H	2.39348	0.0	0.0
