16

C	-0.417245	-0.100264	-1.469743
C	0.0	0.0	0.0
Br	0.16709	1.585553	-2.336214
H	1.091492	0.0	0.0
C	0.295187	-1.161041	-2.188373
N	0.774966	-1.997692	-2.861252
C	-1.92172	-0.231109	-1.676669
H	-2.427978	0.610052	-1.1999
H	-2.159528	-0.236498	-2.742542
H	-2.25185	-1.169242	-1.227329
N	-0.347263	-1.168962	0.765229
O	-0.504695	-2.240603	0.146736
O	-0.284828	-1.074144	2.002323
C	-0.489975	1.187769	0.654303
N	-0.855178	2.182278	1.167715
H	2.322467	0.0	0.0
