18

C	0.0	0.0	0.0
C	-0.396931	-0.198317	-1.482974
Br	1.946526	0.0	0.0
H	0.134578	0.551313	-2.065111
N	-0.374473	1.460811	0.337199
O	-0.192072	2.302968	-0.535466
O	-0.781525	1.682419	1.469124
C	-0.617052	-0.920651	1.014241
H	-1.703924	-0.785532	0.986823
H	-0.261642	-0.671039	2.012345
H	-0.368896	-1.949737	0.770375
N	-1.762729	-0.205974	-1.783186
H	-2.049945	0.604372	-2.308488
H	-2.456918	-0.37559	-1.046731
N	0.229717	-1.511377	-1.988465
O	0.963674	-1.424546	-2.972245
O	-0.098772	-2.560663	-1.444353
Cl	-4.26499	0.0	0.0
