18

C	0.0	0.0	0.0
C	-0.660065	0.245757	-1.380242
Br	1.930238	0.0	0.0
H	-1.713844	0.468182	-1.15899
N	-0.354128	1.176647	0.918949
O	-0.278874	2.292287	0.41696
O	-0.648431	0.928668	2.080466
C	-0.53607	-1.276136	0.59966
H	-0.172513	-1.390649	1.618605
H	-1.629054	-1.207224	0.600932
H	-0.206761	-2.127539	0.004079
N	-0.595579	-0.861144	-2.286019
H	0.300121	-1.330975	-2.255732
H	-1.354669	-1.498782	-2.089185
N	-0.127279	1.433831	-2.142487
O	1.016799	1.341	-2.584025
O	-0.894618	2.366735	-2.348468
Cl	-3.743085	0.0	0.0
