15

C	0.0	0.0	0.0
C	-0.351718	0.069003	-1.48062
F	1.433813	0.0	0.0
H	-1.436811	-0.026445	-1.562483
H	0.124794	-0.802621	-1.960595
N	-0.466097	1.123221	0.718092
H	-1.066946	1.687957	0.135267
H	-0.988952	0.819094	1.526959
N	-0.388923	-1.22057	0.653542
H	-0.000576	-2.005145	0.143674
H	-1.408583	-1.266256	0.600117
N	0.064684	1.352418	-2.04245
H	-0.187285	1.395451	-3.020911
H	1.071333	1.421964	-1.968687
Cl	-3.692643	0.0	0.0
