15

C	0.0	0.0	0.0
C	-0.438156	0.148388	-1.443783
F	1.425147	0.0	0.0
H	-1.531075	0.11821	-1.422566
H	-0.112012	1.141177	-1.794159
N	-0.431592	1.044129	0.878768
H	-1.441148	0.926533	0.971674
H	-0.260087	1.945666	0.448658
N	-0.452438	-1.233945	0.514445
H	-0.254561	-1.96703	-0.151826
H	-0.023588	-1.407859	1.412496
N	0.080772	-0.957426	-2.252367
H	-0.429488	-1.00621	-3.124172
H	1.057151	-0.787412	-2.459451
Cl	-3.931431	0.0	0.0
