15

C	0.0	0.0	0.0
C	-0.4215	0.357729	-1.424879
F	1.379539	0.0	0.0
H	0.054115	-0.384298	-2.079658
H	-1.506011	0.228906	-1.482328
N	-0.456391	1.009831	0.912316
H	-0.264411	0.666279	1.847779
H	-1.472139	1.053583	0.812822
N	-0.420934	-1.315594	0.41624
H	-1.438062	-1.284407	0.481565
H	-0.188917	-1.983351	-0.312146
N	0.022662	1.709867	-1.803776
H	0.095271	2.240045	-0.939472
H	-0.72518	2.141209	-2.33562
Cl	-3.655305	0.0	0.0
