15

C	0.0	0.0	0.0
C	-0.392011	-0.302082	-1.451671
F	1.379539	0.0	0.0
H	0.189743	0.397914	-2.064513
H	-1.449783	-0.073001	-1.578492
N	-0.41666	1.309547	0.447697
H	-0.127874	2.004645	-0.235347
H	-1.43698	1.284576	0.448601
N	-0.458565	-1.028151	0.882624
H	-1.468528	-1.084195	0.749214
H	-0.312021	-0.688528	1.829078
N	-0.140455	-1.672929	-1.895764
H	0.663366	-2.01702	-1.380145
H	-0.924758	-2.233634	-1.585885
Cl	-3.60683	0.0	0.0
