15

C	0.0	0.0	0.0
C	-0.355125	0.095276	-1.49014
F	1.410384	0.0	0.0
H	0.305941	0.865562	-1.897416
H	-0.052481	-0.858292	-1.944395
N	-0.449725	1.159566	0.709606
H	-0.188394	1.077302	1.686792
H	-1.467895	1.146232	0.667157
N	-0.478646	-1.220677	0.555334
H	-0.050012	-2.019767	0.103224
H	-0.324419	-1.26549	1.555255
N	-1.718337	0.39535	-1.857614
H	-2.398602	-0.156645	-1.3375
H	-1.935504	1.35821	-1.635446
Cl	-4.425677	0.0	0.0
