15

C	0.0	0.0	0.0
C	-0.467076	0.396696	-1.382831
F	1.452045	0.0	0.0
H	-1.559718	0.413725	-1.336412
H	-0.14568	-0.392507	-2.073022
N	-0.395403	0.987537	0.945382
H	-0.198769	1.898262	0.546853
H	0.127034	0.86541	1.804082
N	-0.430517	-1.328235	0.301439
H	-1.452792	-1.281791	0.278703
H	-0.175123	-1.536093	1.262186
N	0.034292	1.731151	-1.720737
H	-0.552026	2.136778	-2.438183
H	0.976609	1.656437	-2.08252
Cl	-3.870165	0.0	0.0
