14

C	-0.584337	-0.03257	-1.386611
C	0.0	0.0	0.0
Cl	0.085599	-1.346719	-2.373261
H	1.092451	0.0	0.0
H	-1.670036	-0.131768	-1.416892
H	-0.339838	-0.921367	0.490028
N	-0.343015	1.286465	-2.086213
O	-1.306848	2.058375	-2.080096
O	0.764273	1.53289	-2.538717
C	-0.465992	1.222233	0.785193
H	-0.005287	2.126187	0.380059
H	-0.106214	1.124309	1.812143
H	-1.553225	1.367855	0.804565
F	2.650003	0.0	0.0
