14

C	-0.356268	-0.000533	-1.448131
C	0.0	0.0	0.0
Cl	-2.124371	0.208478	-1.816356
H	1.093693	0.0	0.0
H	0.162176	0.794773	-1.976734
H	-0.31497	0.982227	0.374215
N	0.068209	-1.255445	-2.167519
O	0.903644	-1.117842	-3.058349
O	-0.440349	-2.319676	-1.826658
C	-0.569594	-1.113456	0.86217
H	-0.333004	-0.89528	1.907372
H	-1.65491	-1.228419	0.768909
H	-0.102081	-2.067272	0.617285
F	2.629384	0.0	0.0
