14

C	-0.55609	-0.061926	-1.399657
C	0.0	0.0	0.0
Cl	0.10803	-1.396392	-2.356078
H	1.092228	0.0	0.0
H	-1.643753	-0.154755	-1.438393
H	-0.369109	0.937927	0.432309
N	-0.295783	1.257369	-2.101889
O	0.649494	1.383606	-2.864186
O	-1.093247	2.145152	-1.791356
C	-0.478097	-1.182937	0.831575
H	-0.054005	-2.111473	0.443416
H	-1.571943	-1.28585	0.869584
H	-0.107242	-1.068474	1.852969
F	2.652561	0.0	0.0
