14

C	-0.377602	0.010614	-1.448245
C	0.0	0.0	0.0
Cl	-0.0756	1.577764	-2.225454
H	1.09331	0.0	0.0
H	0.166224	-0.745346	-2.010941
H	-0.408363	0.888384	0.489919
N	-1.838752	-0.329789	-1.6434
O	-2.683237	0.462232	-1.238559
O	-2.081138	-1.441861	-2.116919
C	-0.454702	-1.282987	0.686078
H	-0.031171	-1.303801	1.69286
H	-1.543496	-1.389416	0.765736
H	-0.06033	-2.156084	0.158041
F	2.643801	0.0	0.0
