15

C	0.0	0.0	0.0
C	-0.386339	0.449142	-1.461863
Cl	1.846636	0.0	0.0
H	-0.728547	1.481571	-1.373932
H	0.522737	0.455399	-2.062302
N	-0.473487	0.987601	0.934824
H	-0.287702	0.648662	1.875821
H	-1.496807	0.906873	0.778824
N	-0.442293	-1.35976	0.21089
H	-0.159261	-1.637562	1.147602
H	-1.467399	-1.221179	0.222821
N	-1.397229	-0.315909	-2.163781
H	-1.088955	-1.28149	-2.17491
H	-2.222103	-0.269291	-1.551863
F	-2.866447	0.0	0.0
