15

C	0.0	0.0	0.0
C	-0.407979	-0.175427	-1.458799
Cl	1.884884	0.0	0.0
H	-1.501852	-0.156579	-1.400602
H	-0.049497	0.721019	-1.982818
N	-0.447611	1.316497	0.397418
H	-0.207444	1.439683	1.377636
H	-1.475311	1.161123	0.347977
N	-0.455844	-1.102318	0.794247
H	-0.287217	-0.86369	1.768399
H	-1.480292	-1.015875	0.636569
N	0.036571	-1.432958	-2.051919
H	1.020684	-1.366643	-2.280843
H	-0.475325	-1.572195	-2.9133
F	-2.831956	0.0	0.0
