15

C	0.0	0.0	0.0
C	-0.254754	0.169616	-1.534448
Cl	1.847991	0.0	0.0
H	-0.194301	1.257766	-1.718734
H	0.572051	-0.29252	-2.08291
N	-0.438456	1.158986	0.709093
H	0.224287	1.914155	0.622623
H	-0.581439	0.917367	1.67989
N	-0.620411	-1.126694	0.600753
H	-0.536229	-1.909403	-0.039371
H	-1.632136	-0.837631	0.550692
N	-1.492026	-0.464222	-1.961855
H	-2.252003	-0.213322	-1.282382
H	-1.725691	-0.08723	-2.870601
F	-3.083383	0.0	0.0
