15

C	0.0	0.0	0.0
C	-0.233986	-0.425744	-1.498189
Cl	1.846333	0.0	0.0
H	0.015806	-1.492193	-1.52664
H	0.524845	0.106029	-2.076225
N	-0.471412	1.35239	0.189162
H	-1.495303	1.20422	0.188359
H	-0.204811	1.655174	1.12277
N	-0.50446	-1.003302	0.898371
H	-1.525231	-0.914034	0.733131
H	-0.338316	-0.684992	1.850684
N	-1.511258	-0.187401	-2.139929
H	-2.252957	-0.344322	-1.443725
H	-1.559633	0.809141	-2.326764
F	-2.950961	0.0	0.0
