15

C	0.0	0.0	0.0
C	-0.331261	0.59864	-1.42391
Cl	1.846493	0.0	0.0
H	0.567206	0.49186	-2.034314
H	-0.489496	1.670324	-1.262657
N	-0.485443	0.886749	1.023843
H	-0.312994	0.449975	1.926592
H	-1.506605	0.825098	0.851491
N	-0.456872	-1.372031	0.053316
H	-1.481116	-1.220413	0.052949
H	-0.214726	-1.74271	0.968801
N	-1.441767	0.052369	-2.177676
H	-2.244602	0.066274	-1.532545
H	-1.23252	-0.92647	-2.347689
F	-2.8917	0.0	0.0
