15

C	0.0	0.0	0.0
C	-0.386777	-0.036711	-1.472228
Cl	1.909348	0.0	0.0
H	-1.477543	0.06989	-1.42668
H	0.073462	0.833333	-1.957566
N	-0.482128	1.22847	0.547547
H	-1.514184	1.039319	0.461259
H	-0.241753	1.257541	1.534176
N	-0.390297	-1.198192	0.682726
H	-1.030892	-1.674724	0.059283
H	-0.964057	-0.905397	1.462323
N	-0.057823	-1.323235	-2.083278
H	-0.447036	-1.346792	-3.017067
H	0.949394	-1.405159	-2.160142
F	-2.82188	0.0	0.0
