14

C	-0.49707	-0.004901	-1.424798
C	0.0	0.0	0.0
Cl	-2.476436	-0.281876	-1.312206
H	1.092952	0.0	0.0
H	-0.35834	-0.900333	0.507744
N	-0.203503	1.174181	-2.072376
H	-0.629354	1.291103	-2.978087
H	-0.336781	1.948621	-1.431542
C	-0.106062	-1.186226	-2.188962
N	0.197784	-2.131739	-2.815867
N	-0.397828	1.255265	0.628887
H	-1.233525	1.141461	1.186714
H	0.3703	1.550111	1.222299
H	2.831651	0.0	0.0
