14
Coordinates from ORCA-job run
  C   -0.55579285004202     -0.19507122142427     -0.00333070861126
  C   0.90062705667125     -0.34175876560937      0.37213159334226
  Cl  -1.61459689579850     -0.29717411643985      1.36286984568627
  H   1.52769858178490     -0.22363444072971     -0.51148358005782
  H   1.07932100736261     -1.30381778926368      0.84357109549459
  N   -0.93439853824706     -1.30146525031677     -1.00004464927139
  O   -2.01429883362347     -1.15974276354485     -1.55071236078255
  O   -0.13420994949087     -2.21655167276338     -1.14024193993306
  N   -0.78758340898855      1.08798335727933     -0.82593528342862
  O   -0.03298450263233      1.16407960370800     -1.78661812755214
  O   -1.67156500338680      1.85066251492770     -0.49578616021366
  N   1.30239872754341      0.71659859732046      1.34720852299104
  O   2.06457657797072      0.37215293777879      2.24252934650006
  O   0.86980803087670      1.84773900907760      1.14684240583630
