14
Coordinates from ORCA-job run
  C   -0.55781186212326     -0.18003949853179      0.03939241872577
  C   0.61658814089186      0.62580346853580      0.54461089915693
  Cl  -1.20019625810230     -1.25110243901867      1.23876621615919
  H   0.32341353957224      1.23922262368798      1.39163751077120
  H   1.01848721354976      1.24253534405061     -0.25913973695099
  N   -0.20021860312941     -0.91620413679791     -1.26761465347436
  O   -0.41984998804758     -2.10622503373559     -1.35532555625011
  O   0.25363549806772     -0.15891643975883     -2.11515951023726
  N   -1.67166207882892      0.77638836546013     -0.41235281713892
  O   -1.55074042374753      1.95305116010283     -0.09913171007171
  O   -2.58167515002923      0.25724020539051     -1.03832733800031
  N   1.71253978794979     -0.27919470437623      1.00423336144506
  O   2.28879729700250      0.03977192268416      2.03748844807787
  O   1.96869288697436     -1.24333083769300      0.28892246778766
