14
Coordinates from ORCA-job run
  C   -0.58695931364786     -0.11201714073212      0.09391137175987
  C   0.67350184597782      0.65907522470482      0.40474072796011
  Cl  -1.32733603912613     -0.79159410515101      1.49178693044756
  H   1.12339511042628      1.03462153526246     -0.51162429300832
  H   0.45768325937495      1.48041973686058      1.08630111621828
  N   -0.33086492245337     -1.18230002498605     -0.99832949995092
  O   -0.96152590002953     -2.22033333298802     -0.92699218909371
  O   0.44944082574889     -0.82798438539241     -1.87006433250633
  N   -1.57153623206035      0.84908264893745     -0.62561456107303
  O   -1.03704102468505      1.67249723729873     -1.35882093526777
  O   -2.76381684745682      0.67497351974239     -0.44264119859112
  N   1.69518693788765     -0.20778368020161      1.06930708592814
  O   2.50153663373512      0.37519376494915      1.78334630522322
  O   1.67933566630839     -1.40585099830434      0.80569347195401
