16

C	0.0	0.0	0.0
C	-0.488978	0.047773	-1.438228
Br	1.963863	0.0	0.0
H	-1.581109	0.165348	-1.31813
H	-0.074173	0.936406	-1.929768
C	-0.432303	1.263637	0.731235
H	-0.075234	1.245475	1.765395
H	-0.045102	2.163205	0.243987
H	-1.530209	1.25751	0.716658
N	-0.523821	-1.20659	0.595481
H	-0.300244	-1.209376	1.58889
H	-1.554393	-1.072026	0.512939
N	-0.11414	-1.158858	-2.185596
H	-0.833951	-1.317865	-2.885505
H	-0.194291	-1.924623	-1.519527
H	-3.208782	0.0	0.0
