16

C	0.0	0.0	0.0
C	-0.407969	0.029923	-1.497635
Br	1.984325	0.0	0.0
H	0.358351	-0.482543	-2.087584
H	-0.398551	1.09007	-1.805334
C	-0.471031	1.237581	0.741559
H	-0.056847	2.147882	0.303397
H	-1.566681	1.24413	0.675194
H	-0.169637	1.1867	1.792162
N	-0.452567	-1.20066	0.625828
H	-1.044711	-1.686694	-0.044574
H	-1.031377	-0.975707	1.423154
N	-1.6698	-0.673489	-1.676039
H	-2.43712	-0.312076	-1.055388
H	-1.981047	-0.571211	-2.636034
H	-3.663131	0.0	0.0
