16

C	0.0	0.0	0.0
C	-0.45761	0.035407	-1.46144
Br	1.980879	0.0	0.0
H	-1.554758	-0.021307	-1.387322
H	-0.090153	-0.873354	-1.945805
C	-0.431758	1.244982	0.757424
H	-0.11568	1.182203	1.803182
H	-1.530657	1.240942	0.703914
H	-0.021219	2.162371	0.328377
N	-0.514282	-1.216554	0.565511
H	-1.544125	-1.106796	0.44628
H	-0.345979	-1.205691	1.568513
N	-0.098909	1.201229	-2.256349
H	-0.631116	1.996686	-1.926666
H	0.885227	1.41041	-2.125314
H	-3.178961	0.0	0.0
