16

C	0.0	0.0	0.0
C	-0.317526	0.029897	-1.527017
Br	1.968237	0.0	0.0
H	-0.032683	1.027366	-1.887322
H	0.361015	-0.683685	-2.003193
C	-0.481993	1.247457	0.720882
H	-0.192295	1.218657	1.775897
H	-1.578582	1.237577	0.655033
H	-0.080582	2.159098	0.270012
N	-0.512611	-1.227526	0.560617
H	-0.321951	-1.232648	1.560173
H	-1.534996	-1.135476	0.465264
N	-1.666034	-0.284603	-1.941376
H	-2.381148	0.10448	-1.301732
H	-1.804441	-1.28542	-1.839064
H	-3.488439	0.0	0.0
