19

C	-0.002611	-0.030362	0.020184
C	-0.559452	0.019779	-1.395721
F	1.339672	0.337181	-0.002773
H	0.16188	-0.551667	-1.992785
C	-0.731608	0.793515	1.039802
H	-0.434459	0.505829	2.048762
H	-1.816705	0.715486	0.910665
H	-0.460765	1.836856	0.868158
N	0.034209	-1.505722	0.415025
O	-0.636536	-1.881517	1.369451
O	0.766802	-2.222253	-0.262203
C	-0.629865	1.462958	-1.90023
H	-1.459151	1.972842	-1.405231
H	-0.844311	1.45154	-2.973649
H	0.311356	2.000868	-1.743672
N	-1.82907	-0.68933	-1.376359
H	-2.570758	-0.046933	-1.014592
H	-2.088324	-0.917122	-2.329897
H	-3.62906	1.187068	-0.369964
