19

C	-0.060365	0.053585	-0.061993
C	-0.377889	0.193885	-1.545942
F	1.334498	-0.083053	0.044197
H	-1.454372	0.36748	-1.608515
C	-0.536077	1.186471	0.794481
H	-1.624798	1.047736	0.9222
H	-0.320808	2.146617	0.328542
H	-0.068448	1.09593	1.775009
N	-0.652589	-1.202959	0.479731
O	-1.855279	-1.410829	0.031812
O	-0.305399	-1.49667	1.651807
C	-0.020126	-1.072314	-2.322386
H	-0.185537	-0.909553	-3.394305
H	1.034258	-1.320404	-2.170056
H	-0.635665	-1.906595	-1.990045
N	0.319044	1.393862	-2.038748
H	0.147637	1.471678	-3.035747
H	1.314573	1.234494	-1.921742
H	-2.965292	-0.378341	0.812567
