12

C	-0.426472	-0.011515	-1.460868
C	0.0	0.0	0.0
Br	-2.311495	-0.549914	-1.679563
H	1.101555	0.0	0.0
H	0.15308	-0.753932	-2.012583
H	-0.33161	-0.939759	0.448438
C	-0.267986	1.292124	-2.093863
N	-0.142464	2.344342	-2.600535
N	-0.595139	1.130801	0.708315
H	-0.657564	0.902299	1.691895
H	0.048107	1.912275	0.640393
Br	3.592168	0.0	0.0
