12

C	-0.582572	0.012221	-1.409529
C	0.0	0.0	0.0
Br	-0.029058	1.601821	-2.399222
H	1.098193	0.0	0.0
H	-1.670259	0.06718	-1.340216
H	-0.349986	0.908466	0.498867
C	-0.243728	-1.186045	-2.173455
N	-0.028449	-2.158503	-2.800125
N	-0.568071	-1.177798	0.676992
H	0.067423	-1.951435	0.510469
H	-0.53941	-1.01069	1.675026
Br	3.640162	0.0	0.0
