12

C	-0.432571	-0.05242	-1.455154
C	0.0	0.0	0.0
Br	-2.397959	-0.212344	-1.600215
H	1.094652	0.0	0.0
H	-0.037518	-0.95491	-1.918887
H	-0.355056	0.935005	0.451835
C	-0.052944	1.127612	-2.220046
N	0.240755	2.080527	-2.841323
N	-0.432297	-1.213787	0.681508
H	-1.306281	-1.066102	1.168445
H	0.278276	-1.469447	1.354731
Br	3.567339	0.0	0.0
