12

C	-0.523272	-0.026137	-1.445731
C	0.0	0.0	0.0
Br	0.094889	1.522393	-2.473238
H	1.09339	0.0	0.0
H	-1.614292	0.063924	-1.451284
H	-0.345195	-0.932175	0.464193
C	-0.17649	-1.248941	-2.159771
N	0.035221	-2.260865	-2.717987
N	-0.452665	1.137991	0.776597
H	-1.406132	1.396167	0.55144
H	0.149037	1.928503	0.587929
Br	3.613637	0.0	0.0
