12

C	-0.487907	0.079225	-1.4473
C	0.0	0.0	0.0
Br	-0.057251	-1.551641	-2.435532
H	1.09192	0.0	0.0
H	0.033966	0.892884	-1.951068
H	-0.364645	-0.927383	0.456579
C	-1.928584	0.296661	-1.521632
N	-3.08881	0.478533	-1.551997
N	-0.447151	1.220381	0.667702
H	0.3036	1.569287	1.24878
H	-1.259757	1.052964	1.245248
Br	3.592923	0.0	0.0
