18

C	-0.476518	-0.060205	-1.462591
C	0.0	0.0	0.0
Br	0.109995	1.621502	-2.333813
H	1.095127	0.0	0.0
C	0.210414	-1.203614	-2.185983
H	0.015257	-1.133503	-3.256848
H	-0.186055	-2.159168	-1.825745
H	1.283482	-1.161847	-1.978816
N	-1.913896	-0.122139	-1.677479
H	-2.24784	-0.999914	-1.289778
H	-2.358688	0.632812	-1.162868
C	-0.359687	-1.268331	0.787091
H	-0.043625	-1.131853	1.823774
H	0.206368	-2.114446	0.393532
H	-1.430397	-1.499597	0.782393
C	-0.555195	1.156604	0.68162
N	-1.056083	2.061108	1.244163
H	2.76027	0.0	0.0
