18

C	-0.465761	-0.081393	-1.453411
C	0.0	0.0	0.0
Br	0.227952	1.614573	-2.377836
H	1.094268	0.0	0.0
C	0.208526	-1.22735	-2.182493
H	0.021461	-1.163454	-3.257896
H	1.283403	-1.184461	-1.986888
H	-0.19991	-2.171511	-1.813341
N	-1.884765	-0.142287	-1.565914
H	-2.305932	0.657173	-1.102231
H	-2.161968	-0.126691	-2.541773
C	-0.378783	-1.260345	0.791706
H	-1.442761	-1.496924	0.723059
H	0.215097	-2.101083	0.428083
H	-0.105159	-1.108942	1.838552
C	-0.548773	1.174171	0.657217
N	-1.039982	2.097073	1.198353
H	2.756989	0.0	0.0
