18

C	-0.285909	0.253677	-1.495967
C	0.0	0.0	0.0
Br	-0.241264	-1.66125	-2.475683
H	1.09486	0.0	0.0
C	-1.671857	0.738101	-1.867459
H	-1.826757	1.722492	-1.417371
H	-2.437018	0.052018	-1.506237
H	-1.764766	0.821784	-2.952573
N	0.727851	1.067742	-1.957702
H	1.653418	0.801812	-1.588214
H	0.715977	1.241807	-2.95402
C	-0.54287	-1.258027	0.663416
H	-0.028353	-2.130356	0.265408
H	-1.619503	-1.38231	0.515849
H	-0.341109	-1.20226	1.736554
C	-0.437014	1.187968	0.723016
N	-0.792556	2.145206	1.307548
H	2.777086	0.0	0.0
