18

C	-0.368796	0.026935	-1.501733
C	0.0	0.0	0.0
Br	0.08528	-1.748623	-2.279495
H	1.096794	0.0	0.0
C	-1.842027	0.252099	-1.789919
H	-2.148755	1.221334	-1.38155
H	-2.453458	-0.529396	-1.333469
H	-2.004756	0.250597	-2.869183
N	0.444026	0.991694	-2.210019
H	1.405859	0.868602	-1.878212
H	0.146116	1.915795	-1.908673
C	-0.504216	-1.150373	0.863631
H	-1.596418	-1.21632	0.895631
H	-0.133749	-1.011543	1.883077
H	-0.097375	-2.088897	0.488994
C	-0.42423	1.277757	0.556518
N	-0.774441	2.310728	0.99966
H	2.767496	0.0	0.0
