18

C	-0.200621	-0.060084	-1.504101
C	0.0	0.0	0.0
Br	-2.161755	-0.437888	-1.988351
H	1.100802	0.0	0.0
C	0.138908	1.264812	-2.163381
H	1.176814	1.488957	-1.88419
H	-0.513397	2.074092	-1.831099
H	0.065978	1.174635	-3.250942
N	0.585114	-1.16542	-1.971487
H	1.512578	-1.060491	-1.528953
H	0.698081	-1.104251	-2.977276
C	-0.453158	-1.235183	0.770281
H	-0.11621	-2.124185	0.23702
H	0.005694	-1.226956	1.762766
H	-1.540355	-1.269832	0.872899
C	-0.505505	1.22006	0.597923
N	-0.906312	2.197164	1.116401
H	2.705098	0.0	0.0
