18

C	-0.460121	-0.082728	-1.455569
C	0.0	0.0	0.0
Br	0.206376	1.624696	-2.374616
H	1.094278	0.0	0.0
C	0.23536	-1.213581	-2.185837
H	-0.155099	-2.165681	-1.818478
H	0.048413	-1.150074	-3.260925
H	1.308432	-1.150998	-1.988677
N	-1.877158	-0.167268	-1.569818
H	-2.311097	0.62303	-1.104289
H	-2.152961	-0.150804	-2.545653
C	-0.373894	-1.263834	0.789603
H	-0.110612	-1.109525	1.838771
H	0.231603	-2.098343	0.431435
H	-1.43474	-1.511672	0.712089
C	-0.556778	1.169871	0.657416
N	-1.054886	2.090929	1.194935
H	2.757391	0.0	0.0
