18

C	-0.275639	-0.004815	-1.452144
C	0.0	0.0	0.0
Br	-2.617	0.278672	-1.732493
H	1.098351	0.0	0.0
C	0.276075	1.188392	-2.165189
H	1.358006	1.167291	-1.948907
H	0.097354	1.136091	-3.241249
H	-0.153539	2.11033	-1.778648
N	0.007799	-1.193901	-2.065664
H	-0.156127	-1.189005	-3.061646
H	-0.393073	-2.00611	-1.622204
C	-0.431199	-1.238447	0.771328
H	-1.492361	-1.456078	0.616096
H	-0.250479	-1.087473	1.836932
H	0.187149	-2.087599	0.464746
C	-0.425724	1.224216	0.646856
N	-0.718974	2.199876	1.234216
H	2.536176	0.0	0.0
