18

C	-0.322986	0.03274	-1.51683
C	0.0	0.0	0.0
Br	0.01185	-1.793497	-2.252681
H	1.096895	0.0	0.0
C	-1.764891	0.360832	-1.856238
H	-2.00471	1.359769	-1.485263
H	-1.898029	0.33937	-2.938413
H	-2.445835	-0.35532	-1.399
N	0.579871	0.918541	-2.209357
H	1.517574	0.763899	-1.82336
H	0.314918	1.873677	-1.97785
C	-0.538128	-1.140834	0.853527
H	-0.077435	-2.078207	0.538388
H	-0.258915	-0.963498	1.897189
H	-1.628979	-1.236473	0.795688
C	-0.416963	1.288239	0.540029
N	-0.753577	2.329675	0.972999
H	2.775792	0.0	0.0
