18

C	-0.466651	-0.066762	-1.466081
C	0.0	0.0	0.0
Br	0.08381	1.63343	-2.327246
H	1.095143	0.0	0.0
C	0.256699	-1.187889	-2.189576
H	1.326741	-1.116968	-1.973765
H	-0.114102	-2.156234	-1.835702
H	0.066657	-1.118948	-3.261451
N	-1.899829	-0.165537	-1.690785
H	-2.370634	0.56429	-1.163305
H	-2.209561	-1.061771	-1.32639
C	-0.362156	-1.267461	0.787251
H	-1.43508	-1.487185	0.793877
H	0.19051	-2.118549	0.38586
H	-0.033003	-1.136233	1.820697
C	-0.559695	1.155038	0.680344
N	-1.060674	2.049762	1.25815
H	2.763082	0.0	0.0
