12
Coordinates from ORCA-job run
  C   -0.43302697812973      0.21314751037740     -0.58416124948840
  C   0.42997181696552     -0.20135750935671      0.59042456777038
  H   -0.47589293321028      1.29296483430328     -0.71325668576818
  H   0.46755196591179     -1.28570548815697      0.68728436990024
  H   -0.09095238136523     -0.25328103158598     -1.50721766432661
  H   0.10061518289605      0.23921659234282      1.52953557356300
  N   -1.83738823983092     -0.24763021108076     -0.35947206209251
  O   -1.98485514777045     -1.35720081986355      0.14840074372729
  O   -2.73557878301698      0.49906481065111     -0.73303837751570
  N   1.83334021091634      0.26349677654268      0.36793319571813
  O   2.27330679502107      0.17831485692127     -0.77662016906181
  O   2.45190849161282      0.65896967890540      1.35018775757419
