12
Coordinates from ORCA-job run
  C   -0.59700664379984     -0.71158517798040     -0.22242407658168
  C   0.84609876770559     -0.30645949428059     -0.32007944584023
  H   -0.87190836257283     -1.36624540906742     -1.05225555379995
  H   1.05965175565408      0.28699687773593     -1.20520354673268
  H   -0.83585818725491     -1.20148334639268      0.71789218101470
  H   1.49588311517597     -1.18417290608241     -0.30671871293250
  N   -1.51139849801699      0.47447450541993     -0.31284939580225
  O   -2.67529884339219      0.27757944369000      0.01327851106914
  O   -1.04317264254131      1.52948507632817     -0.73074176855690
  N   1.26465300971075      0.53396490692145      0.85018494430489
  O   0.53555876627161      0.54636712169316      1.83769747119730
  O   2.33279776306006      1.12107840201486      0.73121939266016
