12
Coordinates from ORCA-job run
  C   0.83481721762863     -0.06600507933822     -0.46021448847329
  C   -0.56211328532234     -0.61818536178324     -0.46434504503809
  H   1.54449952659605     -0.80497577106111     -0.83832213389510
  H   -0.68297249670088     -1.46822169226770      0.20196191753749
  H   0.92805509825279      0.85125564804031     -1.03570781161932
  H   -0.86109625898176     -0.90381777355822     -1.47523662343728
  N   1.29144758844328      0.27146081910695      0.92854046039278
  O   0.64835182577301     -0.18283068091360      1.87036745462629
  O   2.30306605725693      0.95732049595657      1.00607175127988
  N   -1.56171667910909      0.40510967183022     -0.01230154255067
  O   -2.67038385321558     -0.02414872982425      0.28150459759577
  O   -1.21295474062104      1.58203845381228     -0.00331853641846
