15

C	-0.380115	-0.024837	-1.463584
C	0.0	0.0	0.0
Br	0.212718	1.547293	-2.430474
H	1.096094	0.0	0.0
H	0.070121	-0.884576	-1.959473
N	-1.865752	-0.171843	-1.661168
O	-2.592654	0.777573	-1.379835
O	-2.251016	-1.280123	-2.039568
C	-0.436603	-1.251104	0.599035
N	-0.789809	-2.253786	1.104229
C	-0.461224	1.198803	0.819607
H	-0.080929	2.115371	0.365924
H	-1.547043	1.265821	0.911701
H	-0.014703	1.112912	1.81334
H	2.622187	0.0	0.0
