15

C	-0.378723	-0.025256	-1.464236
C	0.0	0.0	0.0
Br	0.211031	1.549589	-2.427095
H	1.096106	0.0	0.0
H	0.076174	-0.881996	-1.959799
N	-1.862595	-0.178453	-1.663759
O	-2.594857	0.767561	-1.384489
O	-2.241298	-1.289623	-2.040516
C	-0.434582	-1.251763	0.599259
N	-0.78552	-2.253853	1.107071
C	-0.465445	1.197482	0.818943
H	-1.551607	1.259081	0.910648
H	-0.019424	1.114698	1.813073
H	-0.090154	2.115552	0.364888
H	2.623406	0.0	0.0
