15

C	-0.568387	-0.027286	-1.408407
C	0.0	0.0	0.0
Br	0.250833	-1.383855	-2.525111
H	1.094852	0.0	0.0
H	-1.640653	-0.21347	-1.438846
N	-0.413937	1.329653	-2.051604
O	-1.437503	2.016623	-2.044175
O	0.678644	1.67623	-2.472302
C	-0.484797	-1.181585	0.691847
N	-0.881316	-2.130719	1.263373
C	-0.380366	1.27365	0.760878
H	0.129601	2.124976	0.304963
H	-1.456873	1.462748	0.79088
H	0.003114	1.181564	1.779173
H	2.65504	0.0	0.0
