14

C	-0.540662	0.047594	-1.422999
C	0.0	0.0	0.0
Br	-0.203249	-1.697794	-2.246952
H	1.088644	0.0	0.0
H	-1.62868	0.135669	-1.408496
H	-0.408301	-0.845578	0.552093
C	0.116194	1.144336	-2.237607
H	-0.138929	2.118412	-1.809698
H	1.201548	1.029847	-2.199136
H	-0.224285	1.121606	-3.274415
N	-0.512321	1.221628	0.689199
O	0.252717	2.162039	0.881178
O	-1.711574	1.217391	0.988293
Br	3.581773	0.0	0.0
