14

C	-0.405645	-0.000329	-1.459015
C	0.0	0.0	0.0
Br	-2.372757	-0.00646	-1.642868
H	1.092592	0.0	0.0
H	-0.113744	0.979014	-1.844405
H	-0.39401	0.866112	0.526075
C	0.208572	-1.089068	-2.31426
H	-0.166156	-2.072415	-2.038674
H	1.288837	-1.069019	-2.150106
H	-0.008489	-0.899787	-3.366748
N	-0.48249	-1.18468	0.746383
O	-0.125085	-2.295601	0.355478
O	-1.21268	-0.984746	1.719735
Br	3.508387	0.0	0.0
