14

C	-0.418741	0.00055	-1.446378
C	0.0	0.0	0.0
Br	-2.38479	-0.11949	-1.602326
H	1.094022	0.0	0.0
H	-0.170748	0.963421	-1.890057
H	-0.380004	-0.856946	0.553555
C	0.240179	-1.143538	-2.189893
H	-0.022749	-1.12396	-3.248682
H	-0.066213	-2.105765	-1.773162
H	1.323843	-1.042853	-2.07542
N	-0.464883	1.210742	0.719235
O	-0.86833	1.064591	1.872112
O	-0.394601	2.287696	0.130567
Br	3.48955	0.0	0.0
