15

C	0.0	0.0	0.0
C	-0.466036	-0.1347	-1.464516
F	1.386698	0.0	0.0
H	0.438039	0.112109	-2.036371
H	-0.353873	-0.823416	0.622419
C	-0.382969	1.27677	0.633761
N	-0.496625	2.291079	1.213655
N	-1.490877	0.847898	-1.776703
H	-1.789517	0.693674	-2.736325
H	-2.306374	0.617981	-1.156008
C	-0.862568	-1.587285	-1.746763
H	-0.078387	-2.293874	-1.44782
H	-1.786864	-1.794686	-1.204223
H	-1.048307	-1.720275	-2.817843
H	-3.263348	0.0	0.0
