15

C	0.0	0.0	0.0
C	-0.561476	0.169303	-1.418254
F	1.37957	0.0	0.0
H	-1.456275	0.790576	-1.302324
H	-0.353884	-0.933532	0.433292
C	-0.378893	1.127617	0.880762
N	-0.431424	2.064677	1.586851
N	-0.95023	-1.168659	-1.87763
H	-1.82138	-1.320616	-1.34888
H	-1.234451	-1.085389	-2.850509
C	0.442103	0.823119	-2.350717
H	0.748744	1.800413	-1.968304
H	-0.020735	0.976686	-3.331408
H	1.331519	0.203474	-2.477756
H	-2.909329	0.0	0.0
