15

C	0.0	0.0	0.0
C	-0.468601	0.095221	-1.46684
F	1.386676	0.0	0.0
H	0.436084	0.422383	-1.996278
H	-0.353013	-0.91095	0.486049
C	-0.382501	1.161986	0.82586
N	-0.506068	2.083789	1.542034
N	-1.487512	1.120303	-1.62207
H	-1.78846	1.115035	-2.593257
H	-2.303252	0.800253	-1.043452
C	-0.872149	-1.294712	-1.967866
H	-0.085604	-2.038388	-1.791133
H	-1.069599	-1.258646	-3.044697
H	-1.790672	-1.584467	-1.454703
H	-3.260575	0.0	0.0
