17

C	0.0	0.0	0.0
C	-0.490574	-0.036101	-1.448285
Br	1.969002	0.0	0.0
H	-1.580464	-0.046253	-1.277232
H	-0.226907	-0.970306	0.457359
N	-0.580869	1.111535	0.683315
H	-1.607585	0.882027	0.520586
H	-0.404103	1.003001	1.677698
C	-0.09285	-1.311777	-2.177038
H	-0.59807	-1.359989	-3.147588
H	-0.392814	-2.196104	-1.605244
H	0.986199	-1.366331	-2.354203
C	-0.102183	1.211242	-2.23071
H	-0.321494	2.103227	-1.642139
H	0.96367	1.215602	-2.483997
H	-0.673464	1.259483	-3.164295
F	-2.873357	0.0	0.0
