17

C	0.0	0.0	0.0
C	-0.40761	0.006675	-1.513325
Br	1.963469	0.0	0.0
H	0.510414	-0.007825	-2.106273
H	-0.198818	-0.998876	0.403927
N	-0.606102	1.047806	0.752319
H	-0.425791	0.872166	1.737531
H	-1.626621	0.820742	0.581002
C	-1.198705	1.250398	-1.915336
H	-2.167333	1.203585	-1.415008
H	-0.670317	2.163612	-1.634797
H	-1.341835	1.245844	-3.002694
C	-1.19512	-1.264631	-1.827468
H	-2.097398	-1.23458	-1.208403
H	-0.597668	-2.160257	-1.614226
H	-1.469094	-1.288012	-2.889441
F	-2.95549	0.0	0.0
