17

C	0.0	0.0	0.0
C	-0.368641	-0.122383	-1.531216
Br	1.978716	0.0	0.0
H	0.552408	-0.134911	-2.119847
H	-0.243241	-0.942851	0.490181
N	-0.592081	1.03613	0.771987
H	-1.60896	0.759422	0.690713
H	-0.486532	1.914178	0.273694
C	-1.235087	1.033552	-2.024789
H	-0.716809	1.997609	-1.955537
H	-2.151882	1.029847	-1.429441
H	-1.480508	0.872556	-3.081247
C	-1.091759	-1.453283	-1.737985
H	-1.32615	-1.605164	-2.798777
H	-2.012471	-1.40265	-1.150376
H	-0.461099	-2.289776	-1.413139
F	-2.927889	0.0	0.0
