16

C	-0.313388	-0.002069	-1.470594
C	0.0	0.0	0.0
Br	0.254492	1.65203	-2.312346
H	1.08836	0.0	0.0
H	-0.334392	-0.936705	0.448363
C	0.497504	-1.139439	-2.075117
H	0.120134	-2.09009	-1.686639
H	0.437112	-1.132312	-3.16535
H	1.523418	-0.982697	-1.721347
N	-1.792792	-0.246362	-1.768612
O	-2.306633	-1.122929	-1.074745
O	-2.35293	0.342535	-2.682377
N	-0.641423	1.069741	0.775777
O	-0.287349	1.188862	1.9471
O	-1.523203	1.747944	0.241685
F	2.576867	0.0	0.0
