16

C	-0.307201	-0.092228	-1.479089
C	0.0	0.0	0.0
Br	-0.113863	1.732845	-2.184401
H	1.088573	0.0	0.0
H	-0.423894	0.873843	0.483934
C	0.650256	-0.996955	-2.218075
H	0.423929	-2.030962	-1.956278
H	1.640635	-0.736152	-1.827693
H	0.579834	-0.86784	-3.296174
N	-1.767487	-0.433055	-1.752733
O	-2.024416	-1.052024	-2.781157
O	-2.594606	-0.03676	-0.938102
N	-0.476617	-1.172412	0.74665
O	-0.752099	-2.207252	0.130954
O	-0.539608	-1.061219	1.969329
F	2.5686	0.0	0.0
