16

C	-0.529202	-0.02341	-1.424381
C	0.0	0.0	0.0
Br	0.297961	-1.411532	-2.49028
H	1.089105	0.0	0.0
H	-0.39761	0.896846	0.470616
C	-2.041686	-0.136549	-1.541029
H	-2.354066	-0.035498	-2.582759
H	-2.505407	0.644467	-0.935063
H	-2.362696	-1.111135	-1.173068
N	-0.170774	1.34896	-2.027496
O	0.383662	1.419517	-3.114166
O	-0.563699	2.311017	-1.369226
N	-0.574679	-1.118448	0.76395
O	-1.458751	-0.849217	1.593356
O	-0.158221	-2.258967	0.554025
F	2.532955	0.0	0.0
