16

C	-0.326533	-0.03357	-1.467783
C	0.0	0.0	0.0
Br	0.205184	1.620638	-2.333183
H	1.088342	0.0	0.0
H	-0.337868	-0.925536	0.470471
C	0.503988	-1.16424	-2.062785
H	1.529575	-0.983716	-1.718937
H	0.435263	-1.174459	-3.151958
H	0.147019	-2.116228	-1.659347
N	-1.804388	-0.312413	-1.748422
O	-2.288388	-1.201567	-1.049451
O	-2.390353	0.263998	-2.653313
N	-0.639309	1.090306	0.753718
O	-1.5789	1.69857	0.233063
O	-0.225279	1.294116	1.891865
F	2.582487	0.0	0.0
