16

C	-0.296136	-0.08439	-1.483803
C	0.0	0.0	0.0
Br	-0.151102	1.752788	-2.168052
H	1.088546	0.0	0.0
H	-0.432326	0.866517	0.488774
C	0.692725	-0.95285	-2.225348
H	0.631955	-0.808489	-3.301346
H	0.49034	-1.99688	-1.981863
H	1.67186	-0.674237	-1.817196
N	-1.744127	-0.464143	-1.769509
O	-1.976871	-1.087764	-2.800424
O	-2.587995	-0.091564	-0.959496
N	-0.471569	-1.183214	0.731494
O	-0.699821	-2.223867	0.10804
O	-0.576191	-1.074264	1.952168
F	2.572048	0.0	0.0
