16

C	-0.296493	-0.068383	-1.485861
C	0.0	0.0	0.0
Br	-0.200917	1.782753	-2.142905
H	1.08856	0.0	0.0
H	-0.43659	0.857864	0.500088
C	0.709971	-0.902243	-2.243193
H	1.685443	-0.610413	-1.836219
H	0.532779	-1.951172	-2.009188
H	0.638378	-0.748907	-3.319504
N	-1.736095	-0.480677	-1.773996
O	-1.95542	-1.095441	-2.81377
O	-2.587166	-0.141695	-0.957185
N	-0.466634	-1.195011	0.716287
O	-0.603758	-1.093657	1.9335
O	-0.660828	-2.23658	0.082346
F	2.574318	0.0	0.0
