16

C	-0.383699	0.125679	-1.451499
C	0.0	0.0	0.0
Br	-2.265753	0.660223	-1.68169
H	1.091395	0.0	0.0
H	-0.312195	0.90236	0.525462
C	0.549939	1.157527	-2.068626
H	0.445416	1.17798	-3.153684
H	0.311222	2.146252	-1.667545
H	1.560073	0.875008	-1.746717
N	-0.148012	-1.183526	-2.218675
O	-1.056857	-1.694481	-2.858316
O	1.008122	-1.581297	-2.164662
N	-0.591896	-1.123992	0.722566
O	-0.841404	-2.161774	0.104904
O	-0.765853	-0.979211	1.934558
F	2.552594	0.0	0.0
