16

C	0.0	0.0	0.0
C	-0.416127	-0.424431	-1.426935
F	1.396511	0.0	0.0
H	0.419799	-0.112755	-2.065536
H	-0.283489	-0.760167	0.734078
N	-0.487852	1.27947	0.379179
H	-1.020886	1.663279	-0.395003
H	-1.111538	1.204513	1.169528
N	-1.587932	0.319797	-1.868082
H	-1.804421	0.069924	-2.825538
H	-2.414339	0.102851	-1.300744
C	-0.553446	-1.944751	-1.499656
H	-1.398452	-2.268533	-0.884967
H	-0.743334	-2.263687	-2.530273
H	0.35833	-2.44197	-1.15059
Cl	-4.271856	0.0	0.0
