16

C	0.0	0.0	0.0
C	-0.450234	0.028606	-1.457626
F	1.402936	0.0	0.0
H	-1.542239	0.036325	-1.443845
H	-0.275842	-0.968303	0.441739
N	-0.47872	1.134096	0.72763
H	-0.335641	0.974223	1.718568
H	-1.491174	1.146861	0.581492
N	-0.018328	-1.172784	-2.183598
H	-0.569732	-1.957864	-1.853816
H	0.947556	-1.358881	-1.932193
C	0.070668	1.26746	-2.170171
H	1.164222	1.260021	-2.20141
H	-0.249011	2.1738	-1.65456
H	-0.30625	1.274488	-3.19484
Cl	-3.658568	0.0	0.0
