16

C	0.0	0.0	0.0
C	-0.34497	0.092289	-1.486213
F	1.413708	0.0	0.0
H	0.173008	-0.748736	-1.97649
H	-0.313062	-0.961593	0.415086
N	-0.491974	1.060494	0.804645
H	-0.571126	1.887483	0.224015
H	-1.411071	0.823196	1.158701
N	0.153512	1.391942	-1.954133
H	-0.193127	1.56564	-2.889267
H	1.165435	1.37138	-1.987341
C	-1.832069	-0.008848	-1.743316
H	-2.029342	0.002384	-2.820697
H	-2.266881	-0.919006	-1.330586
H	-2.382932	0.808753	-1.283502
Cl	-4.744846	0.0	0.0
