16

C	0.0	0.0	0.0
C	-0.550244	0.047261	-1.413393
F	1.404513	0.0	0.0
H	-1.630754	0.182233	-1.271941
H	-0.320424	-0.925208	0.486804
N	-0.465403	1.108978	0.764866
H	0.065425	1.93738	0.533323
H	-0.392086	0.931718	1.755527
N	-0.225036	-1.217153	-2.098373
H	-0.585913	-1.148483	-3.045274
H	-0.782416	-1.9451	-1.658346
C	0.023043	1.208358	-2.208043
H	-0.213672	2.16272	-1.733335
H	-0.419223	1.232289	-3.208636
H	1.105072	1.101425	-2.306977
Cl	-4.138247	0.0	0.0
