16

C	0.0	0.0	0.0
C	-0.435031	0.037806	-1.459445
F	1.421354	0.0	0.0
H	0.170101	-0.725023	-1.965441
H	-0.292528	-0.943776	0.466573
N	-0.519184	1.071085	0.753718
H	-0.322316	0.982818	1.738576
H	-0.183859	1.958584	0.412076
N	-0.143679	1.314595	-2.113951
H	-0.824366	2.005642	-1.820189
H	0.784573	1.633631	-1.860442
C	-1.90788	-0.302021	-1.60522
H	-2.185292	-0.260046	-2.660852
H	-2.121589	-1.306651	-1.234515
H	-2.560175	0.36559	-1.039091
Cl	-5.245429	0.0	0.0
