16

C	0.0	0.0	0.0
C	-0.307509	-0.199309	-1.507211
F	1.404364	0.0	0.0
H	0.40329	0.478683	-2.002732
H	-0.333018	-0.854058	0.596869
N	-0.489601	1.191585	0.610684
H	-0.452404	1.958051	-0.053894
H	-1.470952	1.044022	0.837234
N	-1.631481	0.13702	-1.990536
H	-1.814897	1.122773	-1.850353
H	-2.363133	-0.322495	-1.450243
C	0.022832	-1.630728	-1.914144
H	-0.042545	-1.73023	-2.999341
H	-0.708976	-2.314158	-1.471351
H	1.021578	-1.920446	-1.580182
Cl	-4.153413	0.0	0.0
