14

C	-0.178777	-0.049165	-1.385825
C	0.01916	-0.221602	0.12252
F	-1.388266	0.592884	-1.653217
H	1.047908	-0.609915	0.224356
H	0.655687	0.599658	-1.709303
C	-0.184666	-1.33993	-2.085343
N	-0.163282	-2.393707	-2.605052
N	-1.010155	-1.093763	0.685015
H	-0.917274	-1.019216	1.691544
H	-0.831019	-2.056713	0.420749
N	-0.010538	1.04695	0.81007
H	-0.864706	1.518411	0.52612
H	0.779918	1.577337	0.397856
H	2.080439	1.818251	-0.9232
