14

C	-0.724148	-0.133837	-1.5566
C	0.144016	-0.064628	-0.309018
F	-2.071372	0.003458	-1.24925
H	1.19186	-0.065365	-0.654241
H	-0.453604	0.69877	-2.211803
C	-0.552982	-1.404429	-2.285332
N	-0.388979	-2.401514	-2.882654
N	-0.145047	-1.162414	0.604384
H	0.497694	-0.952705	1.387859
H	0.187297	-2.03489	0.197194
N	-0.071046	1.218978	0.32151
H	-0.956647	1.13627	0.814599
H	0.657758	1.228189	1.055945
H	1.885444	0.184656	2.067009
