14

C	-0.823964	-0.045384	-1.427758
C	0.158603	-0.043909	-0.265307
F	-0.744242	-1.206137	-2.183691
H	1.167725	-0.149615	-0.674123
H	-1.849248	0.015641	-1.040228
C	-0.603989	1.094335	-2.337055
N	-0.471529	1.940401	-3.139436
N	-0.068877	-1.200015	0.587062
H	0.683091	-1.102853	1.287646
H	-0.932147	-1.031547	1.101307
N	0.095851	1.26971	0.360394
H	-0.760683	1.302365	0.911079
H	0.858458	1.21516	1.062901
H	1.994875	0.145893	2.095362
