14

C	-0.720208	0.064244	-1.577517
C	0.130963	-0.028531	-0.319346
F	-2.068864	0.192684	-1.273394
H	1.176621	-0.012247	-0.646215
H	-0.424062	0.961418	-2.128107
C	-0.56114	-1.11825	-2.444134
N	-0.398351	-2.05629	-3.130793
N	-0.19387	-1.217274	0.458728
H	0.440451	-1.112225	1.269489
H	0.127654	-2.044455	-0.041022
N	-0.069771	1.179042	0.451326
H	-0.96369	1.058168	0.921018
H	0.648317	1.089869	1.191057
H	1.843271	-0.083261	2.092416
