14

C	-0.738479	0.138494	-1.612995
C	0.097054	0.074274	-0.350484
F	-0.633876	1.396153	-2.217263
H	1.143939	0.239081	-0.648954
H	-0.369366	-0.606804	-2.321408
C	-2.165455	-0.118319	-1.350972
N	-3.306067	-0.343433	-1.192422
N	0.028827	-1.271344	0.173897
H	0.798331	-1.269715	0.866823
H	-0.825853	-1.31479	0.725349
N	-0.364755	1.055223	0.619695
H	0.318074	0.934291	1.382596
H	-0.215686	1.986435	0.237989
H	1.952215	-0.143532	1.877191
