17

C	0.0	0.0	0.0
C	-0.407975	0.245278	-1.497515
Br	1.977709	0.0	0.0
H	0.2017	-0.465619	-2.077136
C	-0.58429	0.99829	0.977117
H	-0.309025	2.005709	0.670532
H	-0.236834	0.796412	1.991901
H	-1.675201	0.892926	0.946597
C	-0.346766	-1.376081	0.353568
N	-0.598464	-2.496083	0.608465
N	-0.126976	1.637381	-1.82115
H	-0.626393	1.828802	-2.681208
H	0.86445	1.77167	-1.975954
N	-1.777495	-0.013893	-1.815647
H	-1.99583	-0.999821	-1.74919
H	-2.459034	0.447762	-1.211557
Cl	-4.393199	0.0	0.0
