17

C	0.0	0.0	0.0
C	-0.406418	0.095238	-1.508571
Br	1.974714	0.0	0.0
H	0.102131	1.006514	-1.868017
C	-0.544294	1.154947	0.818709
H	-0.269108	2.103088	0.348693
H	-1.634281	1.060805	0.85464
H	-0.149929	1.133455	1.835602
C	-0.385005	-1.287239	0.574504
N	-0.659955	-2.302657	1.097989
N	-1.805219	0.249188	-1.761686
H	-2.398083	-0.419044	-1.271181
H	-2.156873	1.154488	-1.483001
N	0.019862	-1.119379	-2.185184
H	-0.480633	-1.144513	-3.064407
H	1.015047	-1.114013	-2.363444
Cl	-4.424669	0.0	0.0
