17

C	0.0	0.0	0.0
C	-0.418409	-0.162026	-1.517073
Br	1.962143	0.0	0.0
H	0.332604	0.420291	-2.062737
C	-0.528597	1.288825	0.606416
H	-1.620804	1.227767	0.633479
H	-0.145628	1.424942	1.61892
H	-0.218243	2.139689	-0.005868
C	-0.401542	-1.149409	0.804595
N	-0.705671	-2.08398	1.450011
N	-1.704975	0.348363	-1.899718
H	-1.732825	1.358924	-1.8362
H	-2.48233	0.00465	-1.324748
N	-0.238778	-1.559781	-1.876713
H	-0.466968	-1.622387	-2.863529
H	-0.955988	-2.099538	-1.397131
Cl	-4.232615	0.0	0.0
