17

C	0.0	0.0	0.0
C	-0.512308	0.008606	-1.487746
Br	1.96374	0.0	0.0
H	0.366959	-0.080458	-2.130025
C	-0.509395	1.148898	0.859662
H	-1.600501	1.070102	0.907134
H	-0.098607	1.067847	1.867435
H	-0.22798	2.098167	0.406891
C	-0.318484	-1.268012	0.673258
N	-0.474584	-2.238451	1.317642
N	-1.112716	1.312512	-1.769842
H	-1.256313	1.373872	-2.771221
H	-2.040227	1.309332	-1.344353
N	-1.321087	-1.178851	-1.713979
H	-2.19038	-1.078604	-1.181035
H	-1.594187	-1.188457	-2.691896
Cl	-3.882114	0.0	0.0
