15

C	0.0	0.0	0.0
C	-0.288763	-0.274143	-1.506992
F	1.372718	0.0	0.0
H	0.399487	-1.096612	-1.7441
C	-0.468592	1.308948	0.468123
N	-0.565867	2.420522	0.839837
C	-0.449833	-1.092847	0.86992
N	-0.520809	-2.022905	1.58675
C	0.120271	0.940925	-2.344113
H	1.14032	1.24494	-2.102046
H	-0.557593	1.774681	-2.15433
H	0.06736	0.685017	-3.404693
C	-1.627952	-0.713218	-1.913384
N	-2.439544	-1.131449	-2.660602
F	-2.282134	0.0	0.0
