15

C	0.0	0.0	0.0
C	-0.437612	-0.056637	-1.48579
F	1.375878	0.0	0.0
H	-1.512105	0.190887	-1.410501
C	-0.442648	1.250937	0.639871
N	-0.546018	2.302473	1.155194
C	-0.467996	-1.168721	0.75768
N	-0.569038	-2.165272	1.374116
C	-0.257312	-1.459268	-2.063891
H	-0.441672	-1.447844	-3.140295
H	-0.984578	-2.1225	-1.593424
H	0.751465	-1.842177	-1.887595
C	0.318643	0.931811	-2.248032
N	0.900581	1.706241	-2.913733
F	-2.425481	0.0	0.0
