12
Coordinates from ORCA-job run
  C   -0.31327914366355     -0.02622862454368      0.69335078526916
  C   0.31478332721932      0.07223705680142     -0.67372734205758
  F   0.20274504977339      0.91003331748346      1.51814729413986
  H   -0.14987300542578     -0.63282805507077     -1.36243059725243
  H   -0.20798540012629     -1.01517131437698      1.13639976025057
  H   0.26630541999368      1.09095416410600     -1.05575677631931
  N   -1.79909996700031      0.21688839185342      0.52939969487242
  O   -2.38110352732638     -0.65265137950132     -0.11114284596193
  O   -2.27837283018141      1.22398570313281      1.02609880117662
  N   1.76212946034118     -0.29638103906595     -0.58114450292954
  O   2.55488451793496      0.40413486352728     -1.19924835918567
  O   2.03186609846119     -1.29497308434568      0.08005408799782
