12
Coordinates from ORCA-job run
  C   -0.79574823804006     -0.49256607782360      0.04299844551254
  C   0.70085246245514     -0.65076909530345     -0.00011669499456
  F   -1.30771267881453     -1.49739524579891      0.81309743620005
  H   1.12904845101203     -0.57681805347463      0.99660610567503
  H   -1.28294678379715     -0.48946467920913     -0.92841044233244
  H   0.96318021433903     -1.61108986252294     -0.44628936169807
  N   -1.18609326363294      0.80161450672612      0.71319184028975
  O   -2.29279916867128      1.23866190042939      0.41897612608708
  O   -0.39933204525154      1.27305194890962      1.52936295504728
  N   1.33274769141310      0.41098744538165     -0.83506222663762
  O   2.55502905557780      0.45861462158350     -0.81629720826679
  O   0.58377430341039      1.13517259110240     -1.48905697488227
