12
Coordinates from ORCA-job run
  C   -0.73087587704404     -0.52181816427791      0.27137647233551
  C   0.77283111856826     -0.53030117631447      0.19364422535753
  F   -1.10188944113284     -1.21091179368641      1.39025948279544
  H   1.13725598844145     -1.55527546969351      0.11116007252602
  H   -1.23576389030003     -0.93280766384773     -0.59875724553913
  H   1.20933551160120     -0.05173061041555      1.06703192563238
  N   -1.25696129165702      0.88231584156609      0.43911701313474
  O   -0.52318476297430      1.69347489300425      0.99682184987534
  O   -2.40398202797795      1.07107913738086      0.05052280942832
  N   1.25670478541780      0.20916111514374     -1.00720197633010
  O   0.41399793324489      0.55115519028869     -1.83568183928493
  O   2.46353195381257      0.39565870085195     -1.07929278993113
