12
Coordinates from ORCA-job run
  C   -0.57413051251660     -0.43387812676611      0.60518305817663
  C   0.41721911494966     -0.70381937511972     -0.49785907090872
  F   0.04742317808460     -0.32543127861783      1.79903529518330
  H   -0.07234203619710     -0.64881651614121     -1.46964249455172
  H   -1.32203769037578     -1.22913530425561      0.65122100318099
  H   0.88819167218045     -1.67527441724318     -0.35913149664331
  N   -1.37192823425768      0.82833037965006      0.33640076287065
  O   -1.44618793083528      1.66186242203338      1.22078407029550
  O   -1.91933500883953      0.84385307812987     -0.75993778918664
  N   1.51652567754938      0.30966671677232     -0.49679591297827
  O   1.19033814532212      1.47428710225715     -0.29069387060682
  O   2.64526362493579     -0.10164468069913     -0.73856355483161
