12
Coordinates from ORCA-job run
  C   -0.72615621958450     -0.54721673719510      0.29478554384227
  C   0.77725790745866     -0.54795035115134      0.12833632909584
  F   -1.04454792751683     -1.33586802200179      1.34980201420806
  H   1.25842722831381     -0.10561540919971      0.99849702069182
  H   -1.26417732333114     -0.86114829338096     -0.59729606528547
  H   1.12021557843532     -1.56818421040401     -0.04287579630911
  N   -1.16892083289577      0.86338499795260      0.59864231481307
  O   -1.61840171051811      1.49555728332851     -0.35326293401778
  O   -1.00582473990451      1.25554201876841      1.74637872612522
  N   1.13831990542144      0.25560802559686     -1.07485150654538
  O   0.73024180081140     -0.17573619219483     -2.15000077407119
  O   1.80356633331024      1.27162688988138     -0.89815487254738
