12
Coordinates from ORCA-job run
  C   -0.58626032119034     -0.44638260205033      0.58585719986033
  C   0.43091827781173     -0.69465930655209     -0.49883032252795
  F   0.00833748025990     -0.35267704369468      1.79460086955585
  H   -0.03732096263092     -0.62539301255174     -1.48017545139699
  H   -1.33058509318993     -1.24605936518959      0.60254777305961
  H   0.90235535517015     -1.66653497888177     -0.36472096987694
  N   -1.38454201614447      0.81559905680228      0.31834476684830
  O   -1.90760265159130      0.84363559240419     -0.78968582297978
  O   -1.46934408145271      1.64406211855844      1.20641171701911
  N   1.52511527165300      0.32293899024863     -0.45522364286808
  O   2.66368988255184     -0.08112943969918     -0.66044717943610
  O   1.18523885875306      1.48559999060585     -0.25967893725738
