12
Coordinates from ORCA-job run
  C   -0.78132551427984     -0.50499371940013      0.22236841230609
  C   0.66497526890169     -0.67783914356305     -0.18546864514863
  F   -1.13249525073596     -1.54117897750911      1.02217201744568
  H   0.77536139199769     -1.60989897410230     -0.73866659507959
  H   -1.46538085174718     -0.42058492096869     -0.61993907321317
  H   1.31209513056687     -0.64779790250855      0.68891457755605
  N   -0.90239790638407      0.77435297829628      1.01362300367993
  O   -1.35056399929254      1.73954148677877      0.40111641883685
  O   -0.50498282514137      0.74185372329414      2.17073106172242
  N   1.04380785768212      0.43767712365562     -1.09908052470809
  O   1.83710359194929      1.27203281017393     -0.67341294690911
  O   0.50180310648328      0.43583551585307     -2.20135770648840
