17

C	-0.505421	-0.001808	-1.442673
C	0.0	0.0	0.0
Cl	0.221284	1.362853	-2.363747
H	1.100397	0.0	0.0
H	-0.115769	-0.900453	-1.929673
C	-2.01524	0.057619	-1.581175
H	-2.454439	-0.727092	-0.962703
H	-2.311879	-0.085095	-2.622939
H	-2.394511	1.028295	-1.254972
N	-0.493383	-1.25812	0.609185
H	0.154656	-1.99012	0.329405
H	-0.368419	-1.171337	1.613319
C	-0.498549	1.178832	0.815754
H	0.021077	1.195426	1.777955
H	-1.574847	1.107223	1.002325
H	-0.280542	2.121846	0.312375
Br	3.700777	0.0	0.0
