17

C	-0.484302	0.05103	-1.441382
C	0.0	0.0	0.0
Cl	-0.063633	-1.489513	-2.300245
H	1.103111	0.0	0.0
H	-1.578821	0.076991	-1.45105
C	0.126	1.198784	-2.224414
H	-0.133307	1.126979	-3.282741
H	1.212973	1.173673	-2.116199
H	-0.247965	2.154273	-1.847322
N	-0.577342	-1.16809	0.68191
H	-0.205233	-1.998302	0.231778
H	-0.186478	-1.178011	1.619481
C	-0.46112	1.250121	0.742097
H	-0.198783	1.155889	1.799783
H	-1.547552	1.371272	0.670364
H	0.038884	2.145466	0.37134
Br	3.710628	0.0	0.0
