17

C	-0.46325	0.00436	-1.466001
C	0.0	0.0	0.0
Cl	0.2799	1.372989	-2.371633
H	1.095622	0.0	0.0
H	-0.054779	-0.892843	-1.939671
C	-1.967706	0.074625	-1.678941
H	-2.360223	1.030884	-1.328187
H	-2.47777	-0.733191	-1.14546
H	-2.207277	-0.018649	-2.740352
N	-0.402284	-1.226146	0.692405
H	0.113683	-2.013879	0.318896
H	-1.393268	-1.404945	0.584335
C	-0.494098	1.199471	0.791916
H	-1.578236	1.161468	0.952487
H	-0.0057	1.186479	1.766902
H	-0.243792	2.136185	0.290833
Br	3.666449	0.0	0.0
