20

C	-0.310526	0.006622	-1.497641
C	0.0	0.0	0.0
Br	-2.303724	-0.066373	-1.771312
H	1.100276	0.0	0.0
C	0.191316	1.275045	-2.169586
H	0.0622	1.20997	-3.253177
H	-0.331042	2.164913	-1.816217
H	1.259705	1.367464	-1.939001
C	0.279017	-1.225456	-2.161818
H	-0.111732	-2.129865	-1.699338
H	0.065401	-1.228068	-3.234439
H	1.363101	-1.192179	-2.00133
N	-0.439901	-1.254068	0.610721
H	-1.380725	-1.14319	0.972088
H	0.175656	-1.458832	1.388064
C	-0.467436	1.237222	0.760611
H	-0.173573	1.131399	1.80852
H	-1.556768	1.343834	0.71231
H	-0.00401	2.152235	0.386738
Cl	3.492883	0.0	0.0
