20

C	-0.477742	-0.033658	-1.466114
C	0.0	0.0	0.0
Br	-0.036196	1.693828	-2.343554
H	1.096384	0.0	0.0
C	0.291158	-1.108225	-2.219052
H	0.042362	-2.075638	-1.776888
H	0.021678	-1.112932	-3.278653
H	1.364921	-0.940736	-2.112199
C	-1.981577	-0.216693	-1.596501
H	-2.531781	0.60696	-1.136991
H	-2.257337	-1.153747	-1.106011
H	-2.26953	-0.267985	-2.649641
N	-0.405322	-1.292027	0.598961
H	0.40156	-1.674801	1.082255
H	-1.136623	-1.139144	1.287598
C	-0.496616	1.172995	0.833267
H	-1.589816	1.166371	0.927982
H	-0.188538	2.131291	0.416496
H	-0.065805	1.088057	1.834596
Cl	3.529368	0.0	0.0
