20

C	-0.461729	0.028691	-1.463187
C	0.0	0.0	0.0
Br	0.14693	-1.670208	-2.323157
H	1.102712	0.0	0.0
C	-1.972754	0.061138	-1.624941
H	-2.429679	-0.742283	-1.047071
H	-2.250676	-0.040928	-2.676771
H	-2.357803	1.019102	-1.259904
C	0.237447	1.144208	-2.227147
H	0.052906	1.052204	-3.300218
H	1.313606	1.11081	-2.037569
H	-0.153278	2.113403	-1.899449
N	-0.563036	-1.165398	0.702093
H	-0.234454	-1.108623	1.661596
H	-0.116049	-1.991767	0.316124
C	-0.445473	1.249403	0.757667
H	-0.006869	1.21504	1.759501
H	-0.081194	2.164793	0.28994
H	-1.533128	1.290876	0.863258
Cl	3.571017	0.0	0.0
