20

C	-0.461788	0.053478	-1.463799
C	0.0	0.0	0.0
Br	-0.019794	-1.69835	-2.315783
H	1.102813	0.0	0.0
C	-1.963398	0.228731	-1.614365
H	-2.247886	1.229204	-1.272311
H	-2.487913	-0.512917	-1.01074
H	-2.264308	0.127516	-2.659749
C	0.338172	1.090891	-2.238481
H	0.071637	2.094759	-1.89249
H	0.116155	1.03137	-3.307064
H	1.407703	0.937791	-2.074433
N	-0.572693	-1.162904	0.696041
H	-0.090042	-1.987849	0.354696
H	-0.303035	-1.077332	1.6716
C	-0.443152	1.24615	0.766915
H	-1.521803	1.235529	0.946769
H	0.067828	1.252434	1.734077
H	-0.164031	2.169897	0.259111
Cl	3.569713	0.0	0.0
