20

C	-0.251591	0.020138	-1.519272
C	0.0	0.0	0.0
Br	-2.22816	-0.032183	-1.895692
H	1.100608	0.0	0.0
C	0.303084	1.28142	-2.160328
H	0.230571	1.225886	-3.24907
H	-0.223085	2.175404	-1.826537
H	1.357486	1.356117	-1.87337
C	0.35549	-1.210213	-2.17438
H	1.423327	-1.218313	-1.928695
H	0.231451	-1.175669	-3.258974
H	-0.100348	-2.129032	-1.805422
N	-0.449821	-1.205867	0.68767
H	-1.37624	-1.464713	0.363572
H	0.1864	-1.967838	0.48937
C	-0.507791	1.223622	0.745405
H	-0.223625	1.11269	1.792285
H	-0.066109	2.147682	0.369064
H	-1.598687	1.299887	0.687334
Cl	3.483859	0.0	0.0
