20

C	-0.419341	0.036632	-1.493018
C	0.0	0.0	0.0
Br	0.115585	-1.696429	-2.319034
H	1.096724	0.0	0.0
C	-1.918119	0.159842	-1.718372
H	-2.274185	1.120985	-1.338541
H	-2.467155	-0.638952	-1.215883
H	-2.151487	0.103092	-2.784275
C	0.356979	1.111897	-2.239104
H	0.009473	2.100007	-1.923199
H	0.202478	1.029154	-3.318053
H	1.421855	1.024136	-2.012974
N	-0.452193	-1.14969	0.773023
H	-1.441847	-1.314572	0.618566
H	0.05237	-1.971717	0.465366
C	-0.464582	1.258888	0.733075
H	-0.148649	2.178312	0.238079
H	-1.553021	1.276861	0.856029
H	-0.01461	1.237538	1.725443
Cl	3.561089	0.0	0.0
