15

C	0.0	0.0	0.0
C	-0.183216	-0.210789	-1.573894
Br	1.957981	0.0	0.0
H	0.225983	-1.212256	-1.719263
H	0.52043	0.494922	-2.017221
N	-0.444307	1.35516	0.488104
O	-0.534323	1.568802	1.686223
O	-0.559828	2.191877	-0.39956
N	-0.445514	-1.171676	0.847918
O	-0.461295	-1.042445	2.060917
O	-0.636258	-2.214906	0.23654
N	-1.437235	-0.102887	-2.263017
H	-1.625262	0.886875	-2.375246
H	-2.129394	-0.380692	-1.553906
F	-2.35946	0.0	0.0
