15

C	0.0	0.0	0.0
C	-0.234525	-0.270785	-1.564966
Br	1.943404	0.0	0.0
H	0.584647	0.252886	-2.05465
H	-0.034915	-1.342224	-1.645315
N	-0.443059	1.386791	0.412906
O	-0.720664	1.644497	1.568483
O	-0.386191	2.19927	-0.506455
N	-0.446349	-1.112405	0.922986
O	-0.659237	-2.193989	0.392925
O	-0.430744	-0.899911	2.126225
N	-1.44273	0.063549	-2.260928
H	-2.182453	-0.164574	-1.579821
H	-1.472679	1.075477	-2.311905
F	-2.377686	0.0	0.0
