15

C	0.0	0.0	0.0
C	-0.240138	0.230572	-1.572692
Br	1.941216	0.0	0.0
H	0.588025	-0.287381	-2.054287
H	-0.06771	1.302856	-1.67007
N	-0.452597	1.140514	0.889427
O	-0.481028	0.960784	2.096515
O	-0.625944	2.213707	0.327439
N	-0.430324	-1.374915	0.46076
O	-0.600051	-1.611197	1.643679
O	-0.45598	-2.206377	-0.442558
N	-1.443734	-0.133909	-2.262564
H	-1.46451	-1.14633	-2.284653
H	-2.183771	0.108821	-1.587499
F	-2.36174	0.0	0.0
