15

C	-0.465855	-0.054361	-1.46088
C	0.0	0.0	0.0
F	0.133149	-1.087758	-2.079428
H	1.095635	0.0	0.0
C	-1.925034	-0.193412	-1.573505
N	-3.090245	-0.328737	-1.636113
N	-0.069308	1.226363	-2.204105
O	-0.769859	2.204195	-1.957576
O	0.89753	1.16335	-2.945205
N	-0.425227	-1.244078	0.629268
H	0.369893	-1.640007	1.11549
H	-1.182721	-1.095515	1.282157
C	-0.501322	1.186708	0.692005
N	-0.960817	2.069943	1.316911
Br	3.354495	0.0	0.0
