15

C	-0.463244	-0.050396	-1.462698
C	0.0	0.0	0.0
F	0.069051	-1.134382	-2.057688
H	1.09998	0.0	0.0
C	-1.927908	-0.092286	-1.583724
N	-3.099605	-0.13753	-1.656506
N	0.018833	1.184418	-2.232927
O	0.899416	1.023733	-3.058715
O	-0.542722	2.229654	-1.926598
N	-0.438615	-1.241943	0.626835
H	0.369856	-1.682743	1.050303
H	-1.137813	-1.075263	1.337019
C	-0.496316	1.183543	0.698584
N	-0.942656	2.064357	1.336317
Br	3.351662	0.0	0.0
