15

C	-0.428874	0.075914	-1.465379
C	0.0	0.0	0.0
F	0.032197	1.210322	-2.033023
H	1.09652	0.0	0.0
C	-0.011	-1.09825	-2.233992
N	0.299163	-2.003551	-2.914702
N	-1.966223	0.143449	-1.536332
O	-2.562329	-0.919355	-1.392756
O	-2.460843	1.255502	-1.665178
N	-0.400354	-1.263269	0.579334
H	0.316075	-1.565994	1.2269
H	-1.297731	-1.221312	1.041353
C	-0.482465	1.188279	0.714595
N	-0.920951	2.077316	1.346986
Br	3.333986	0.0	0.0
