15

C	-0.505593	-0.038219	-1.449854
C	0.0	0.0	0.0
F	-1.869883	-0.15848	-1.453652
H	1.094129	0.0	0.0
C	-0.128921	1.123161	-2.254451
N	0.141989	2.067165	-2.899014
N	0.037062	-1.295163	-2.130019
O	1.097857	-1.181139	-2.724519
O	-0.6333	-2.310323	-1.981412
N	-0.415066	-1.146172	0.77866
H	0.298414	-1.861474	0.720817
H	-1.306236	-1.515664	0.475098
C	-0.507954	1.243431	0.592881
N	-0.943232	2.22801	1.06285
Br	3.349541	0.0	0.0
