15

C	-0.419128	-0.008274	-1.469598
C	0.0	0.0	0.0
F	0.188141	0.9883	-2.141705
H	1.095835	0.0	0.0
C	-0.176135	-1.300039	-2.117898
N	0.04016	-2.301684	-2.691385
N	-1.9362	0.256628	-1.576972
O	-2.652145	-0.568841	-1.02067
O	-2.294562	1.26228	-2.169085
N	-0.407285	-1.212999	0.671042
H	0.264842	-1.422549	1.39999
H	-1.34217	-1.152768	1.052883
C	-0.47313	1.247743	0.6179
N	-0.881879	2.206294	1.162298
Br	3.362877	0.0	0.0
