15

C	-0.476234	0.041312	-1.449456
C	0.0	0.0	0.0
F	0.097322	-0.963308	-2.149078
H	1.093071	0.0	0.0
C	-1.940156	-0.067304	-1.552112
N	-3.111986	-0.136099	-1.587515
N	-0.075352	1.332223	-2.176236
O	0.508775	2.195094	-1.536253
O	-0.371201	1.359773	-3.366289
N	-0.425417	-1.287611	0.543858
H	-1.188694	-1.183246	1.198636
H	0.367486	-1.705685	1.015331
C	-0.53457	1.130113	0.759681
N	-1.064076	1.952646	1.411828
Br	3.363963	0.0	0.0
