15

C	-0.48453	-0.067123	-1.454477
C	0.0	0.0	0.0
F	0.155952	-1.06471	-2.090725
H	1.093153	0.0	0.0
C	-1.936449	-0.284991	-1.538561
N	-3.091281	-0.49693	-1.573579
N	-0.177486	1.235213	-2.20213
O	0.780181	1.232041	-2.953952
O	-0.93616	2.166722	-1.954047
N	-0.405744	-1.248858	0.633582
H	-1.181494	-1.116446	1.268389
H	0.389283	-1.621987	1.137896
C	-0.504026	1.183323	0.697054
N	-0.970071	2.074427	1.30637
Br	3.352503	0.0	0.0
