15

C	-0.432412	0.009818	-1.466321
C	0.0	0.0	0.0
F	0.162929	1.019227	-2.129732
H	1.097445	0.0	0.0
C	-0.189001	-1.272041	-2.132296
N	0.019006	-2.283369	-2.691721
N	-1.952021	0.269578	-1.548599
O	-2.318619	1.316491	-2.05854
O	-2.659848	-0.597839	-1.049674
N	-0.403516	-1.220117	0.661101
H	-1.313971	-1.151762	1.092621
H	0.299713	-1.466081	1.345773
C	-0.46804	1.238631	0.637738
N	-0.890528	2.1875	1.188548
Br	3.346401	0.0	0.0
