15

C	-0.494613	-0.045954	-1.442327
C	0.0	0.0	0.0
F	0.088852	-1.075079	-2.097155
H	1.093137	0.0	0.0
C	-1.957941	-0.191091	-1.511849
N	-3.127876	-0.297392	-1.513962
N	-0.131613	1.209582	-2.244086
O	-0.491839	1.187641	-3.416752
O	0.498327	2.091768	-1.676786
N	-0.415819	-1.256306	0.621991
H	-1.176212	-1.117969	1.274055
H	0.382633	-1.64167	1.111907
C	-0.531186	1.171514	0.696416
N	-1.043069	2.036381	1.306095
Br	3.362928	0.0	0.0
