15

C	-0.460111	-0.145518	-1.461098
C	0.0	0.0	0.0
F	-0.479117	1.144287	-2.003914
H	1.091382	0.0	0.0
H	-1.491735	-0.512726	-1.498799
C	0.464128	-0.990105	-2.307123
H	0.365466	-2.040752	-2.03189
H	0.19213	-0.860648	-3.358658
H	1.498894	-0.680566	-2.140293
N	-0.369281	-1.144567	0.814051
O	-0.554028	-2.228356	0.229864
O	-0.328133	-1.014758	2.04498
C	-0.475105	1.222006	0.614572
N	-0.826033	2.244585	1.077289
H	2.467328	0.0	0.0
