15

C	-0.444532	0.016279	-1.459709
C	0.0	0.0	0.0
F	0.238135	-0.935723	-2.20012
H	1.091833	0.0	0.0
H	-0.125815	0.991978	-1.845366
C	-1.93054	-0.184038	-1.676514
H	-2.158693	-0.115681	-2.743654
H	-2.502007	0.580159	-1.144565
H	-2.220355	-1.172175	-1.319756
N	-0.405236	-1.165186	0.761065
O	-0.44932	-1.054233	1.996175
O	-0.524868	-2.240274	0.152048
C	-0.442922	1.210165	0.658406
N	-0.716805	2.255383	1.123742
H	2.420828	0.0	0.0
