17

C	-0.43252	-0.004534	-1.462453
C	0.0	0.0	0.0
Br	0.277642	1.499993	-2.402604
H	1.094647	0.0	0.0
N	0.013838	-1.253154	-2.225446
O	-0.46632	-1.375587	-3.345621
O	0.812532	-1.997334	-1.677031
N	-1.962064	-0.045813	-1.552304
O	-2.44305	-1.157466	-1.348023
O	-2.575033	0.995667	-1.728317
C	-0.486245	-1.175185	0.85845
H	0.020727	-1.091022	1.821614
H	-1.56492	-1.153184	1.020457
H	-0.19925	-2.122838	0.410269
C	-0.457246	1.249965	0.604924
N	-0.843618	2.212293	1.157918
Br	3.386485	0.0	0.0
