17

C	-0.473052	-0.026943	-1.446778
C	0.0	0.0	0.0
Br	-2.369728	-0.323382	-1.636688
H	1.094635	0.0	0.0
N	-0.069826	1.295727	-2.124016
O	-0.92351	2.153781	-2.284459
O	1.123176	1.361241	-2.383355
N	0.220303	-1.098515	-2.29246
O	0.060573	-0.990067	-3.500918
O	0.843652	-1.967271	-1.703387
C	-0.460372	-1.180813	0.862336
H	-0.164963	-2.119993	0.401185
H	-1.538725	-1.16399	1.027872
H	0.051667	-1.100243	1.822913
C	-0.462049	1.247083	0.606059
N	-0.844947	2.22078	1.141284
Br	3.39781	0.0	0.0
