17

C	-0.429857	-0.002933	-1.463316
C	0.0	0.0	0.0
Br	0.279468	1.503134	-2.401252
H	1.094603	0.0	0.0
N	0.016533	-1.251112	-2.226602
O	0.805244	-2.002349	-1.674339
O	-0.456652	-1.367713	-3.350314
N	-1.959391	-0.044207	-1.555114
O	-2.571983	0.997983	-1.726931
O	-2.440704	-1.156722	-1.35695
C	-0.48916	-1.174038	0.858503
H	0.014928	-1.088913	1.823062
H	-1.568351	-1.150964	1.017378
H	-0.201606	-2.122346	0.412248
C	-0.456295	1.250607	0.604809
N	-0.843479	2.212037	1.158756
Br	3.38247	0.0	0.0
