13

C	0.0	0.0	0.0
C	-0.579953	0.133284	-1.380382
F	1.35032	0.0	0.0
H	-1.653009	-0.107896	-1.338559
H	-0.391028	0.78098	0.651653
H	-0.481215	1.162004	-1.727744
N	-0.385985	-1.305003	0.672369
O	-0.042477	-1.379778	1.850302
O	-0.956003	-2.170528	0.023396
N	0.075033	-0.707417	-2.421517
O	-0.212454	-0.418815	-3.581221
O	0.828804	-1.616849	-2.089121
Br	-3.673111	0.0	0.0
