13

C	0.0	0.0	0.0
C	-0.581249	0.138097	-1.380086
F	1.350333	0.0	0.0
H	-1.641834	-0.152289	-1.345833
H	-0.390548	0.774424	0.659395
H	-0.532391	1.176828	-1.705556
N	-0.3762	-1.315034	0.662387
O	-0.045512	-1.390687	1.844333
O	-0.897213	-2.19501	-0.005289
N	0.114577	-0.647163	-2.437961
O	-0.131614	-0.298872	-3.591878
O	0.852825	-1.576085	-2.125665
Br	-3.647104	0.0	0.0
