13

C	0.0	0.0	0.0
C	-0.578229	0.027043	-1.387025
F	1.350281	0.0	0.0
H	-1.654504	-0.192156	-1.325227
H	-0.38818	0.82957	0.590441
H	-0.460359	1.02356	-1.813851
N	-0.386053	-1.250536	0.769297
O	-0.091746	-1.218148	1.962226
O	-0.886585	-2.19013	0.168302
N	0.061549	-0.900021	-2.363728
O	-0.277328	-0.733892	-3.533937
O	0.858272	-1.748465	-1.975806
Br	-3.659413	0.0	0.0
