14
Coordinates from ORCA-job run
  C   0.63064324093952      0.16703468617890     -0.60938875449590
  C   -0.83858953529011      0.28506084318864     -0.19217859777398
  Br  0.93014020884041     -1.31092300666162     -1.81727397447533
  H   -1.42301885290652      0.36643317010485     -1.11215861613796
  H   -0.93058825194478      1.23396051359649      0.34490297410697
  C   1.10661873822074      1.38814945686315     -1.24387483333851
  N   1.44478566419769      2.38118764095372     -1.77448373074261
  N   1.43877900582486     -0.02645958213521      0.69224105222171
  O   1.86261563331230     -1.13459890854423      0.96849843502221
  O   1.49567801699819      0.98621685495302      1.37960492643929
  C   -1.32667073712716     -0.86879486019898      0.67389502572536
  H   -1.16220412845699     -1.83328268146730      0.19219944930375
  H   -0.83048417774703     -0.87786950534045      1.64624845298474
  H   -2.39770482486113     -0.75611462149098      0.85176819116025
