14
Coordinates from ORCA-job run
  C   0.67989966336328      0.12847787662427     -0.33721491787553
  C   -0.46998177279054     -0.59798297224840      0.34812605500944
  Br  0.65491811705844     -0.13708105290699     -2.26566129798497
  H   -0.39878493163998     -1.65101474995584      0.07089323734839
  H   -0.27831676824883     -0.52763910720937      1.42573511866456
  C   0.67221180229098      1.55698172129859     -0.06088000349933
  N   0.57517588712305      2.70350557785080      0.18116439772870
  N   2.01337567496210     -0.46238134599756      0.15520927013820
  O   2.06276493819842     -1.68197783373322      0.21127496263859
  O   2.90278339184732      0.32876949295069      0.43839966040972
  C   -1.83902884713297     -0.01879100628539      0.01577473485534
  H   -1.91526796330537      1.02825113236989      0.31515947981724
  H   -2.60751951119215     -0.57836984571662      0.55215350010552
  H   -2.05322968053374     -0.09174788704085     -1.05113419735586
