14
Coordinates from ORCA-job run
  C   0.69001065442146      0.22320394120802     -0.25957288848589
  C   -0.45101633864807     -0.67420175471505      0.20164814098312
  Br  0.79694275768863      0.31389407890160     -2.20154690930596
  H   -0.29644842182678     -1.65385178485701     -0.25354452782637
  H   -0.32945156597860     -0.79234078461728      1.28531672068857
  C   0.57572773640643      1.57478093356577      0.26666333411255
  N   0.39313311219379      2.65211751591594      0.70093526386919
  N   2.02521635683219     -0.37987243289252      0.21142896562992
  O   2.14975574188378     -1.58369488827895      0.04326522369671
  O   2.84196916592915      0.38766579297486      0.70262240293727
  C   -1.83159430473017     -0.11567293300846     -0.11773012325505
  H   -2.59348733012682     -0.80048012708991      0.25912275400474
  H   -1.99075669743514      0.85609544732880      0.35357400499857
  H   -1.97800086660988     -0.00864300443583     -1.19318236204735
