14
Coordinates from ORCA-job run
  C   0.65254972675080      0.25317419841053     -0.55637078106356
  C   -0.84867793193813      0.17386152537221     -0.26050799150289
  Br  1.24143734721962     -1.16394692804487     -1.72980655592213
  H   -1.10752626490009      1.09837003702875      0.26471953346791
  H   -1.36211646818728      0.18565089808347     -1.22528689628042
  C   1.01118179714245      1.53124860795478     -1.15483049819439
  N   1.25148830609455      2.56473743113399     -1.66081883667318
  N   1.36955185105926      0.15782115720561      0.80776508473849
  O   1.89625610906544     -0.89319390720446      1.12748718213433
  O   1.24803199158366      1.16842868986412      1.48946543639810
  C   -1.25098116843489     -1.04057242910993      0.56599682483827
  H   -0.92451241096873     -1.97179366745726      0.10179465589239
  H   -2.33839752859249     -1.06842654907520      0.65589024838776
  H   -0.83828535589414     -0.99335906416171      1.57550259377924
