14
Coordinates from ORCA-job run
  C   0.67001470091552      0.14925218767019     -0.57157725646272
  C   -0.83008534871575      0.23999017949211     -0.27388113189772
  Br  1.10811857301968     -1.39415237676500     -1.64789712673433
  H   -1.34498854292802      0.23657926181538     -1.23791043781643
  H   -0.99398963745454      1.21872621093902      0.18711516464595
  C   1.15344046926734      1.34212037831569     -1.25227744462967
  N   1.49881287055114      2.30928214332483     -1.82453085863960
  N   1.38137310618524      0.07334044495251      0.79714531742194
  O   1.82232712415392     -0.99585971910106      1.17893885298532
  O   1.34795800087355      1.13006238667810      1.41636129851819
  C   -1.34497019720512     -0.87018911374483      0.63312542231438
  H   -2.42933537313426     -0.78511291476209      0.72418087431751
  H   -0.92349456749744     -0.79460841272514      1.63734201943191
  H   -1.11418117803123     -1.85843065608972      0.23386530654528
