14
Coordinates from ORCA-job run
  C   0.70147879519890     -0.02666033555405     -0.55135343651888
  C   -0.78746918825802      0.27558640600717     -0.35497121367088
  Br  0.99644457629051     -1.77426630955034     -1.32027802659575
  H   -1.26496753321186      0.16112737226962     -1.33142008337984
  H   -0.85232121903924      1.33121533168961     -0.07443917531442
  C   1.34229129489272      0.96782443992119     -1.40004393381424
  N   1.81917171609652      1.78273583448940     -2.10047049087588
  N   1.35250461638450      0.06642548653616      0.84654615879076
  O   1.66322756723486     -0.95865346507863      1.42654923707975
  O   1.41185109127163      1.21276421833373      1.27489781052216
  C   -1.45857585694841     -0.59870229097363      0.69625153290050
  H   -1.33354051499937     -1.66010986474611      0.47934711230878
  H   -2.52767141370980     -0.37959974038145      0.71609727064232
  H   -1.06342393120294     -0.39968708296269      1.69428723792564
