19

C	-0.384857	0.023142	-1.489288
C	0.0	0.0	0.0
Br	0.004897	-1.906784	-2.190208
H	1.091126	0.0	0.0
C	-1.852063	0.216283	-1.812675
H	-2.462202	-0.548538	-1.336784
H	-2.171727	1.199839	-1.466741
H	-2.001854	0.149627	-2.892823
N	0.425069	0.967881	-2.118823
H	1.400894	0.89267	-1.836935
H	0.32893	0.968164	-3.125113
C	-0.555797	-1.106089	0.869144
H	-0.066055	-2.039935	0.612656
H	-1.634277	-1.213121	0.769832
H	-0.327405	-0.881686	1.910876
N	-0.439504	1.325567	0.562761
O	0.363262	2.252728	0.568006
O	-1.601458	1.400571	0.98035
Br	3.508991	0.0	0.0
