19

C	-0.24925	-0.03969	-1.524544
C	0.0	0.0	0.0
Br	-2.176276	-0.340854	-1.917318
H	1.094195	0.0	0.0
C	0.181049	1.243442	-2.210202
H	1.223738	1.438401	-1.938726
H	-0.424309	2.097342	-1.909779
H	0.099351	1.096479	-3.287892
N	0.480081	-1.134004	-2.133119
H	0.215403	-2.013096	-1.703526
H	1.468728	-0.979852	-1.922128
C	-0.512846	-1.171814	0.805906
H	-0.086582	-2.098398	0.416812
H	-0.169716	-1.068154	1.83827
H	-1.600382	-1.229516	0.794866
N	-0.487018	1.275462	0.598391
O	-1.59377	1.268323	1.146585
O	0.23014	2.269898	0.494265
Br	3.482197	0.0	0.0
