19

C	-0.484033	-0.050359	-1.467217
C	0.0	0.0	0.0
Br	-0.095377	1.725356	-2.265205
H	1.090721	0.0	0.0
C	0.364609	-1.061044	-2.222799
H	0.146408	-2.071856	-1.859731
H	0.11767	-1.014894	-3.28425
H	1.426217	-0.858633	-2.066838
N	-1.885104	-0.307677	-1.693616
H	-2.435841	0.245877	-1.046547
H	-2.067827	-1.290119	-1.519785
C	-0.463996	-1.203719	0.811078
H	-0.077135	-1.110182	1.828613
H	-1.551879	-1.277671	0.849645
H	-0.039972	-2.116469	0.390691
N	-0.513419	1.213688	0.696035
O	-1.745072	1.336664	0.752982
O	0.284697	1.999794	1.189786
Br	3.558984	0.0	0.0
