12

C	-0.423645	0.023093	-1.449182
C	0.0	0.0	0.0
Br	-2.356076	-0.035831	-1.69581
H	1.095534	0.0	0.0
H	-0.059574	0.896506	-1.985745
H	-0.346185	-0.917642	0.478605
N	0.140277	-1.172192	-2.173879
O	0.554561	-0.967578	-3.310325
O	0.10914	-2.249377	-1.590624
C	-0.503662	1.167641	0.707011
N	-0.915212	2.109189	1.274856
Br	3.419758	0.0	0.0
