12

C	-0.45398	-0.081855	-1.446013
C	0.0	0.0	0.0
Br	-0.00031	1.475903	-2.465447
H	1.092487	0.0	0.0
H	0.011985	-0.94228	-1.923351
H	-0.313948	-0.922172	0.50045
N	-1.946511	-0.356294	-1.489283
O	-2.239482	-1.51915	-1.210479
O	-2.737679	0.546501	-1.723929
C	-0.557959	1.145011	0.705446
N	-1.031686	2.047895	1.287458
Br	3.441585	0.0	0.0
