12

C	-0.407701	0.081961	-1.452061
C	0.0	0.0	0.0
Br	-2.335095	0.141329	-1.727939
H	1.096585	0.0	0.0
H	0.016219	0.944007	-1.961392
H	-0.355658	-0.932788	0.440087
N	0.096318	-1.126682	-2.198533
O	-0.005631	-2.213534	-1.642964
O	0.537194	-0.920827	-3.324198
C	-0.497547	1.143351	0.749606
N	-0.908442	2.063163	1.352376
Br	3.415401	0.0	0.0
