12

C	-0.411268	0.011802	-1.450931
C	0.0	0.0	0.0
Br	-2.337642	0.132806	-1.716725
H	1.093607	0.0	0.0
H	0.032771	0.861091	-1.96514
H	-0.299757	0.96276	0.42615
N	0.060839	-1.199379	-2.212988
O	0.370346	-1.002713	-3.384466
O	0.06997	-2.273257	-1.625919
C	-0.576135	-1.058434	0.81584
N	-1.059265	-1.855103	1.529458
Br	3.417472	0.0	0.0
