18

C	-0.170099	0.017692	-1.531867
C	0.0	0.0	0.0
F	-0.006639	-1.338853	-1.960842
H	1.097666	0.0	0.0
C	-1.53039	0.41932	-2.064704
H	-1.536886	0.325637	-3.155042
H	-1.752507	1.454084	-1.801453
H	-2.302439	-0.238098	-1.657989
N	0.880017	0.833825	-2.028363
H	0.992569	0.691798	-3.024396
H	1.746911	0.589285	-1.513319
C	-0.610918	-1.161588	0.608883
N	-1.149874	-2.061986	1.140311
C	-0.456475	1.294593	0.668859
H	-1.543357	1.429645	0.647759
H	0.023968	2.129979	0.157449
H	-0.127722	1.301861	1.711013
F	2.657782	0.0	0.0
