18

C	-0.055337	0.002121	-1.538882
C	0.0	0.0	0.0
F	-1.368037	-0.173608	-2.008985
H	1.097041	0.0	0.0
C	0.496296	1.307611	-2.069965
H	0.590819	1.227366	-3.153725
H	1.481014	1.43603	-1.613288
H	-0.155119	2.147748	-1.820831
N	0.759217	-1.074941	-2.067902
H	1.663336	-0.944577	-1.593208
H	0.378186	-1.95005	-1.71683
C	-0.524143	-1.250578	0.515147
N	-0.963952	-2.255058	0.941574
C	-0.604894	1.203572	0.711645
H	-0.577972	1.055406	1.794601
H	-1.645275	1.374337	0.413274
H	-0.01804	2.096176	0.490942
F	2.653154	0.0	0.0
