16

C	-0.413921	0.01278	-1.450213
C	0.0	0.0	0.0
Cl	0.277917	-1.335697	-2.345717
H	1.091123	0.0	0.0
H	-0.052538	0.939213	-1.894111
N	-1.922149	0.054721	-1.671945
O	-2.422738	1.162663	-1.474984
O	-2.533664	-0.956055	-1.98695
N	-0.491991	-1.265713	0.63525
O	0.331197	-2.087624	1.027917
O	-1.718032	-1.400288	0.750167
C	-0.518845	1.166278	0.816949
H	-1.604845	1.165746	0.925895
H	-0.049141	1.11188	1.802161
H	-0.204751	2.103468	0.352944
F	2.546162	0.0	0.0
