16

C	-0.368535	0.072763	-1.447709
C	0.0	0.0	0.0
Cl	-2.08203	0.509679	-1.776217
H	1.093273	0.0	0.0
H	-0.180657	-0.873444	-1.940485
N	0.499494	1.069018	-2.175885
O	1.207149	0.605923	-3.065393
O	0.424397	2.251453	-1.859089
N	-0.407174	-1.321145	0.518654
O	-0.683115	-1.404143	1.718432
O	-0.386887	-2.294848	-0.24199
C	-0.473538	1.117007	0.897539
H	-1.548285	1.077495	1.092792
H	-0.227072	2.065241	0.423095
H	0.062894	1.053317	1.842744
F	2.481347	0.0	0.0
