16

C	-0.394618	-0.023884	-1.440731
C	0.0	0.0	0.0
Cl	-2.077616	0.511948	-1.779837
H	1.105712	0.0	0.0
H	-0.289307	-1.017209	-1.85872
N	0.532649	0.844397	-2.256719
O	1.222687	0.254427	-3.082343
O	0.527087	2.05292	-2.056953
N	-0.4273	-1.254907	0.639391
O	-0.545339	-2.276562	-0.047384
O	-0.586442	-1.241504	1.862668
C	-0.414662	1.204611	0.812732
H	0.169836	1.217955	1.731176
H	-1.479165	1.205619	1.062175
H	-0.175647	2.09998	0.240467
F	2.474364	0.0	0.0
