16

C	-0.383244	0.003876	-1.449313
C	0.0	0.0	0.0
Cl	-2.145955	0.136592	-1.764648
H	1.096674	0.0	0.0
H	-0.038114	-0.900142	-1.935691
N	0.302603	1.131597	-2.177121
O	-0.066544	2.280966	-1.954685
O	1.190595	0.799677	-2.956467
N	-0.397957	-1.309461	0.557685
O	-0.34002	-2.303496	-0.173536
O	-0.711319	-1.36173	1.749522
C	-0.494335	1.140587	0.853125
H	-1.58454	1.168552	0.939668
H	-0.061003	1.041873	1.847158
H	-0.144594	2.076714	0.419728
F	2.485032	0.0	0.0
