16

C	-0.618137	0.025226	-1.372586
C	0.0	0.0	0.0
Cl	-0.073518	1.45226	-2.282706
H	1.08914	0.0	0.0
H	-1.708065	0.038033	-1.372184
N	-0.268146	-1.174562	-2.228206
O	-1.104131	-1.464029	-3.084405
O	0.801181	-1.733213	-2.041126
N	-0.518753	-1.182423	0.711537
O	-1.211036	-1.996972	0.079384
O	-0.239206	-1.3147	1.90297
C	-0.334222	1.245369	0.80985
H	0.041243	1.088282	1.819782
H	0.206858	2.09075	0.387334
H	-1.409093	1.470813	0.848795
F	2.499562	0.0	0.0
