16

C	-0.648096	0.037425	-1.370239
C	0.0	0.0	0.0
Cl	-0.376472	1.562587	-2.202144
H	1.098848	0.0	0.0
H	-1.724528	-0.128854	-1.311588
N	-0.137773	-1.118618	-2.218642
O	-0.601907	-2.204784	-1.875324
O	0.651425	-0.92562	-3.128624
N	-0.556303	-1.206188	0.695943
O	-1.769434	-1.210653	0.937851
O	0.21463	-2.105293	1.015798
C	-0.383745	1.212424	0.836603
H	-1.446525	1.466389	0.799133
H	-0.099741	1.006664	1.871711
H	0.220842	2.054871	0.502558
F	2.544288	0.0	0.0
