17

C	-0.39193	0.097406	-1.471798
C	0.0	0.0	0.0
F	-1.733937	0.312396	-1.613617
H	1.089555	0.0	0.0
N	0.330891	1.01148	-2.281203
H	1.320124	0.83326	-2.101826
H	0.114469	1.92571	-1.898782
N	-0.140258	-1.298781	-2.077373
O	0.97741	-1.518099	-2.523642
O	-1.077152	-2.093452	-2.057846
N	-0.450371	-1.139637	0.714611
H	-1.222173	-1.618371	0.276059
H	0.325846	-1.766732	0.883767
N	-0.380053	1.256025	0.720635
O	-0.33157	1.227177	1.947799
O	-0.604859	2.286244	0.066111
H	2.602229	0.0	0.0
