17

C	-0.561293	-0.047366	-1.404311
C	0.0	0.0	0.0
F	-0.002759	-1.121176	-2.055142
H	1.088199	0.0	0.0
N	-1.964429	-0.193563	-1.475562
H	-2.375554	0.597312	-0.993798
H	-2.242188	-0.172312	-2.450665
N	-0.064828	1.137844	-2.273604
O	-0.63705	1.256454	-3.359578
O	0.869498	1.815966	-1.876078
N	-0.311483	-1.18985	0.738937
H	-1.037487	-1.727512	0.284421
H	0.545784	-1.731565	0.812815
N	-0.477293	1.188247	0.714558
O	-0.100628	1.328327	1.876931
O	-1.167474	2.032869	0.100679
H	2.518532	0.0	0.0
