17

C	-0.228404	-0.021843	-1.505234
C	0.0	0.0	0.0
F	0.020768	1.246611	-1.989472
H	1.092369	0.0	0.0
N	0.619718	-0.996694	-2.04884
H	0.705327	-0.863889	-3.050838
H	1.542889	-0.878464	-1.600246
N	-1.661904	-0.320268	-1.978776
O	-2.23582	-1.256291	-1.428299
O	-2.118464	0.340256	-2.904481
N	-0.397919	-1.120459	0.789289
H	0.413966	-1.712351	0.922454
H	-1.153285	-1.636029	0.364245
N	-0.606668	1.233794	0.574706
O	-0.000913	1.811271	1.469283
O	-1.720708	1.55647	0.149661
H	2.70554	0.0	0.0
