14

C	0.0	0.0	0.0
C	-0.488808	-0.013645	-1.456216
Cl	1.797405	0.0	0.0
H	-1.556206	-0.239551	-1.397822
H	0.038312	-0.835185	-1.951384
C	-0.421446	1.195389	0.736271
N	-0.590866	2.20625	1.310651
C	-0.395005	-1.226898	0.703207
N	-0.561267	-2.260913	1.235076
C	-0.272212	1.312956	-2.166899
H	0.767869	1.646317	-2.125864
H	-0.556097	1.210106	-3.21699
H	-0.910946	2.07934	-1.724568
Cl	-3.386321	0.0	0.0
