14

C	0.0	0.0	0.0
C	-0.527196	-0.164225	-1.431686
Cl	1.795808	0.0	0.0
H	-0.118297	0.669136	-2.012581
H	-0.088038	-1.087738	-1.822755
C	-0.434553	1.272489	0.582954
N	-0.724537	2.323436	1.021073
C	-0.418408	-1.120355	0.850076
N	-0.698692	-2.05679	1.501981
C	-2.049361	-0.195214	-1.477828
H	-2.477923	-1.021819	-0.911644
H	-2.513222	0.703257	-1.071232
H	-2.381728	-0.297566	-2.513037
Cl	-5.114215	0.0	0.0
