14

C	0.0	0.0	0.0
C	-0.525381	0.506713	-1.349141
Cl	1.795565	0.0	0.0
H	-0.096367	1.503353	-1.496365
H	-0.103971	-0.151451	-2.116179
C	-0.422996	0.878527	1.095954
N	-0.694558	1.634973	1.952888
C	-0.428344	-1.379002	0.254845
N	-0.726284	-2.502521	0.42474
C	-2.047712	0.532597	-1.398602
H	-2.492234	1.171429	-0.635395
H	-2.373557	0.908177	-2.371141
H	-2.501221	-0.44765	-1.254632
Cl	-5.10248	0.0	0.0
