14

C	0.0	0.0	0.0
C	-0.53042	-0.621349	-1.2987
Cl	1.795567	0.0	0.0
H	-0.123981	-1.636964	-1.34942
H	-0.092596	-0.047429	-2.121935
C	-0.423425	1.398387	0.127019
N	-0.718442	2.53371	0.190471
C	-0.427282	-0.771557	1.171831
N	-0.697776	-1.443358	2.096487
C	-2.052585	-0.616739	-1.350605
H	-2.388121	-1.095804	-2.272666
H	-2.479278	0.385838	-1.324376
H	-2.516252	-1.148295	-0.519701
Cl	-5.118029	0.0	0.0
