15

C	-0.467316	0.079984	-1.444034
C	0.0	0.0	0.0
Cl	0.205438	-1.265185	-2.376049
H	1.090064	0.0	0.0
H	-0.337051	0.9035	0.515594
C	-1.972069	0.12074	-1.648675
H	-2.40414	-0.81007	-1.279909
H	-2.213301	0.229286	-2.709198
H	-2.388814	0.96005	-1.089238
N	0.067821	1.405054	-2.008959
O	-0.270955	2.396281	-1.36525
O	0.705176	1.420628	-3.050873
C	-0.565284	-1.160994	0.65129
N	-1.027878	-2.102619	1.183806
F	2.524673	0.0	0.0
