15

C	-0.44982	-0.033279	-1.450995
C	0.0	0.0	0.0
Cl	0.198235	-1.468854	-2.257415
H	1.093454	0.0	0.0
H	-0.332266	0.946369	0.436753
C	-1.950059	0.028341	-1.680796
H	-2.17646	0.051758	-2.749696
H	-2.351687	0.922093	-1.20061
H	-2.410096	-0.856908	-1.239477
N	0.137462	1.22258	-2.1179
O	0.819481	1.126859	-3.12541
O	-0.204918	2.277289	-1.588968
C	-0.57866	-1.098577	0.739842
N	-1.05419	-1.988441	1.345486
F	2.521417	0.0	0.0
