15

C	-0.331826	-0.039793	-1.475445
C	0.0	0.0	0.0
Cl	0.128798	1.484739	-2.247682
H	1.092591	0.0	0.0
H	-0.327531	-0.939953	0.450793
C	0.434051	-1.185512	-2.10674
H	1.466783	-1.048911	-1.776953
H	0.347845	-1.168714	-3.193469
H	0.046827	-2.1298	-1.716978
N	-1.836107	-0.265164	-1.713024
O	-2.333072	-1.15186	-1.023249
O	-2.435497	0.378681	-2.565572
C	-0.599405	1.109764	0.711084
N	-1.078269	1.995032	1.318269
F	2.575185	0.0	0.0
