15

C	-0.251732	-0.004012	-1.496696
C	0.0	0.0	0.0
Cl	0.091085	1.636469	-2.128501
H	1.093121	0.0	0.0
H	-0.424582	0.879378	0.482417
C	0.640558	-1.005596	-2.182355
H	0.336935	-2.015613	-1.894558
H	0.601712	-0.910856	-3.265638
H	1.63842	-0.80163	-1.778457
N	-1.72738	-0.228458	-1.830442
O	-2.551906	0.291778	-1.086031
O	-1.996053	-0.890205	-2.829803
C	-0.507654	-1.21422	0.609207
N	-0.915765	-2.202648	1.098276
F	2.587202	0.0	0.0
