15

C	-0.443551	-0.006657	-1.454272
C	0.0	0.0	0.0
Cl	0.226609	-1.41585	-2.288008
H	1.093427	0.0	0.0
H	-0.339143	0.934992	0.453761
C	-1.942555	0.039068	-1.689905
H	-2.391191	-0.862309	-1.271724
H	-2.358842	0.915528	-1.192047
H	-2.1644	0.08293	-2.759071
N	0.127487	1.272481	-2.08561
O	-0.24576	2.307535	-1.537741
O	0.835163	1.212378	-3.078046
C	-0.574932	-1.117253	0.714814
N	-1.051413	-2.017987	1.302644
F	2.522986	0.0	0.0
