15

C	-0.242856	0.047247	-1.485817
C	0.0	0.0	0.0
Cl	-1.994812	0.108625	-1.949497
H	1.093954	0.0	0.0
H	-0.399895	-0.910054	0.442681
C	0.522821	1.178625	-2.119054
H	1.555727	1.046989	-1.778876
H	0.441553	1.159563	-3.201958
H	0.130354	2.123156	-1.736789
N	0.239264	-1.288712	-2.065411
O	0.709184	-1.271986	-3.197775
O	0.060875	-2.295137	-1.388401
C	-0.525336	1.173747	0.660248
N	-0.941099	2.122198	1.217515
F	2.563623	0.0	0.0
