19

C	0.0	0.0	0.0
C	-0.553959	0.21713	-1.412125
Br	1.965572	0.0	0.0
H	-1.644802	0.11949	-1.304266
C	-0.469081	1.161296	0.866927
H	-0.096547	1.029911	1.885035
H	-0.125696	2.113311	0.467441
H	-1.564026	1.142811	0.87563
C	-0.459175	-1.318639	0.607886
H	-0.139281	-1.356546	1.651939
H	-1.55295	-1.344676	0.56514
H	-0.053726	-2.183246	0.084992
N	-0.142716	-0.938929	-2.330542
O	-0.744246	-2.001918	-2.212236
O	0.760313	-0.728883	-3.143326
N	-0.203335	1.477555	-1.968617
H	0.75321	1.450773	-2.302862
H	-0.814928	1.688307	-2.746364
Br	-3.976442	0.0	0.0
