14

C	-0.578825	0.035858	-1.395017
C	0.0	0.0	0.0
Cl	-0.064359	1.435224	-2.342976
H	1.092214	0.0	0.0
H	-1.670736	0.037864	-1.389354
H	-0.337805	-0.943031	0.443124
N	-0.240143	-1.252946	-2.127858
O	0.581364	-1.264649	-3.029748
O	-0.866785	-2.227149	-1.709543
C	-0.4875	1.174526	0.838424
H	-0.101582	2.115593	0.442605
H	-1.581408	1.238366	0.892023
H	-0.096375	1.069382	1.852961
H	2.972565	0.0	0.0
