19

C	-0.460316	-0.003253	-1.470688
C	0.0	0.0	0.0
Cl	0.468621	1.19124	-2.417119
H	1.093167	0.0	0.0
N	-0.102939	-1.375778	-2.030808
O	-1.036407	-2.174338	-2.158602
O	1.072273	-1.633616	-2.236173
C	-1.934423	0.256398	-1.712392
H	-2.155351	1.285848	-1.432317
H	-2.185374	0.115228	-2.764908
H	-2.551473	-0.417722	-1.11716
N	-0.415141	-1.201361	0.717353
H	-1.314864	-1.561293	0.420529
H	0.287969	-1.91398	0.565807
C	-0.498723	1.239929	0.722298
H	-1.579851	1.216646	0.9121
H	-0.249388	2.152194	0.174118
H	0.015654	1.27377	1.683969
F	2.630932	0.0	0.0
