19

C	-0.64027	-0.087695	-1.381982
C	0.0	0.0	0.0
Cl	-0.115099	1.277167	-2.4232
H	1.096072	0.0	0.0
N	-0.108983	-1.35442	-2.05838
O	1.081387	-1.390446	-2.334322
O	-0.914849	-2.265622	-2.251507
C	-2.151476	-0.134793	-1.375462
H	-2.532569	0.811045	-0.987467
H	-2.474096	-0.959467	-0.739709
H	-2.544962	-0.290013	-2.381826
N	-0.340318	-1.261756	0.68571
H	0.535772	-1.608416	1.063221
H	-0.981581	-1.106858	1.456274
C	-0.458766	1.222252	0.780414
H	0.180484	1.297795	1.663867
H	-0.337517	2.144549	0.209206
H	-1.50413	1.15037	1.111878
F	2.623389	0.0	0.0
