19

C	-0.303901	-0.113055	-1.496023
C	0.0	0.0	0.0
Cl	-2.017704	-0.571799	-1.830922
H	1.102635	0.0	0.0
N	-0.099653	1.260814	-2.127077
O	1.018969	1.49097	-2.58007
O	-1.019805	2.075	-2.088237
C	0.648676	-1.105835	-2.12387
H	0.370849	-2.093034	-1.75631
H	0.599928	-1.080874	-3.214165
H	1.645584	-0.85077	-1.746649
N	-0.369696	-1.278274	0.612097
H	-1.242619	-1.198458	1.120871
H	0.370163	-1.514263	1.261115
C	-0.58705	1.211144	0.698462
H	-0.177686	2.145918	0.312155
H	-0.319214	1.150727	1.757261
H	-1.679827	1.251118	0.611052
F	2.675829	0.0	0.0
