19

C	-0.230382	0.133216	-1.512858
C	0.0	0.0	0.0
Cl	0.073222	-1.436141	-2.319782
H	1.101487	0.0	0.0
N	-1.676033	0.510418	-1.80564
O	-2.525895	-0.368839	-1.89596
O	-1.917645	1.720293	-1.829347
C	0.754078	1.132124	-2.086265
H	1.730513	0.832915	-1.678013
H	0.514837	2.137491	-1.744002
H	0.738366	1.11517	-3.177908
N	-0.638722	-1.19823	0.555599
H	-0.093941	-1.998772	0.25157
H	-0.504058	-1.147999	1.560391
C	-0.508086	1.211953	0.763008
H	-0.150472	2.148427	0.336892
H	-0.119314	1.153752	1.784757
H	-1.602566	1.232892	0.806011
F	2.718031	0.0	0.0
