19

C	-0.202575	-0.068998	-1.538012
C	0.0	0.0	0.0
Cl	-0.018837	-1.750172	-2.127774
H	1.103556	0.0	0.0
N	-1.628799	0.329368	-1.873254
O	-1.812955	1.417127	-2.418399
O	-2.53253	-0.405444	-1.470994
C	0.828353	0.785492	-2.239887
H	0.653234	1.839091	-2.023707
H	0.80482	0.636417	-3.320794
H	1.787457	0.492822	-1.786981
N	-0.521091	-1.101443	0.783614
H	0.098842	-1.891204	0.667772
H	-1.442133	-1.369015	0.454129
C	-0.53809	1.313639	0.546788
H	-0.179462	2.180754	-0.011239
H	-0.189039	1.401681	1.576381
H	-1.636226	1.331503	0.557369
F	2.704421	0.0	0.0
