19

C	-0.508698	0.00957	-1.44926
C	0.0	0.0	0.0
Cl	0.320463	1.280308	-2.392291
H	1.095892	0.0	0.0
N	-0.122686	-1.329987	-2.069414
O	-1.001978	-2.197765	-2.055084
O	1.018473	-1.497987	-2.465571
C	-2.003841	0.205704	-1.619647
H	-2.561793	-0.499408	-1.002015
H	-2.299026	0.064683	-2.66121
H	-2.256672	1.221216	-1.316603
N	-0.361159	-1.228357	0.71233
H	-1.199013	-1.673973	0.358106
H	0.415463	-1.870702	0.605677
C	-0.513526	1.209681	0.764887
H	-1.581738	1.132148	1.004082
H	-0.329286	2.143811	0.227537
H	0.042963	1.244433	1.702811
F	2.628173	0.0	0.0
