19

C	-0.299996	-0.16453	-1.491354
C	0.0	0.0	0.0
Cl	-2.018935	-0.62327	-1.815308
H	1.103841	0.0	0.0
N	-0.093416	1.180784	-2.18392
O	0.987482	1.356762	-2.741142
O	-0.983066	2.024638	-2.099317
C	0.6429	-1.18643	-2.07975
H	1.644531	-0.912053	-1.729589
H	0.374087	-2.152346	-1.65474
H	0.578051	-1.21848	-3.168796
N	-0.374018	-1.259643	0.646637
H	0.338137	-1.463132	1.336607
H	-1.273082	-1.176591	1.10566
C	-0.584006	1.230696	0.667112
H	-0.31788	1.191049	1.728049
H	-0.172608	2.156288	0.261014
H	-1.677384	1.27161	0.578619
F	2.674789	0.0	0.0
