19

C	-0.230262	-0.113724	-1.519174
C	0.0	0.0	0.0
Cl	-1.920515	-0.604435	-1.953913
H	1.09774	0.0	0.0
N	-0.024949	1.265098	-2.13512
O	1.107471	1.519502	-2.536533
O	-0.96062	2.060934	-2.121565
C	0.767679	-1.077655	-2.12118
H	0.491	-2.089576	-1.821653
H	0.775985	-1.019552	-3.211008
H	1.739142	-0.818229	-1.680428
N	-0.360995	-1.235337	0.694717
H	0.42368	-1.871203	0.622277
H	-1.185635	-1.672836	0.299006
C	-0.637899	1.202238	0.662373
H	-0.213419	2.139454	0.300917
H	-0.434631	1.124417	1.730828
H	-1.723497	1.231673	0.513998
F	2.685457	0.0	0.0
