19

C	-0.201528	0.086006	-1.536763
C	0.0	0.0	0.0
Cl	-0.008358	-1.527305	-2.293094
H	1.095782	0.0	0.0
N	-1.629333	0.510515	-1.828968
O	-2.528999	-0.267484	-1.505918
O	-1.819134	1.649515	-2.258674
C	0.826037	1.012293	-2.14902
H	1.786743	0.681861	-1.725946
H	0.637797	2.037641	-1.830887
H	0.808015	0.970893	-3.239109
N	-0.521752	-1.175406	0.666218
H	0.097338	-1.951617	0.470127
H	-1.444182	-1.405433	0.310009
C	-0.538827	1.252778	0.676604
H	-1.636759	1.271948	0.684272
H	-0.176455	2.171974	0.212103
H	-0.193519	1.23395	1.711351
F	2.706056	0.0	0.0
