17

C	-0.322514	0.111139	-1.504023
C	0.0	0.0	0.0
Cl	-1.989555	0.669466	-1.794702
H	1.096228	0.0	0.0
N	0.579549	0.947932	-2.226726
H	0.393155	1.914509	-1.995214
H	1.531574	0.719471	-1.931149
N	-0.191447	-1.303442	-2.108946
O	-1.166663	-2.044693	-2.07101
O	0.924964	-1.586353	-2.523384
C	-0.548818	-1.181737	0.646741
N	-1.011766	-2.09556	1.222808
C	-0.396232	1.256742	0.780806
H	-0.014809	2.144827	0.27319
H	-1.476897	1.343535	0.902347
H	0.078338	1.212426	1.762672
Cl	3.266222	0.0	0.0
