17

C	-0.554626	-0.042568	-1.425571
C	0.0	0.0	0.0
Cl	0.207341	-1.327699	-2.365741
H	1.093431	0.0	0.0
N	-1.960303	-0.213921	-1.458337
H	-2.285802	-0.268607	-2.415873
H	-2.407246	0.577459	-1.012778
N	-0.132819	1.313138	-2.092127
O	1.02304	1.458583	-2.449569
O	-1.024374	2.164349	-2.144451
C	-0.457946	-1.198824	0.699723
N	-0.829276	-2.127719	1.315219
C	-0.423867	1.253734	0.777461
H	0.000189	1.18259	1.780066
H	-0.006288	2.146298	0.310729
H	-1.508436	1.359829	0.868414
Cl	3.296492	0.0	0.0
