17

C	-0.274975	-0.127835	-1.514663
C	0.0	0.0	0.0
Cl	0.143221	1.395129	-2.322272
H	1.09628	0.0	0.0
N	0.443227	-1.181794	-2.149608
H	1.430385	-1.038117	-1.93223
H	0.149125	-2.069791	-1.758028
N	-1.776313	-0.371433	-1.721578
O	-2.117216	-1.528311	-1.950013
O	-2.53382	0.577841	-1.55348
C	-0.439886	-1.23845	0.638229
N	-0.815513	-2.227565	1.150674
C	-0.542098	1.217519	0.739109
H	-0.152103	2.127418	0.286294
H	-0.191598	1.177661	1.772242
H	-1.632611	1.248797	0.730043
Cl	3.260708	0.0	0.0
