17

C	-0.273556	0.150105	-1.500191
C	0.0	0.0	0.0
Cl	-1.979142	0.58932	-1.880396
H	1.09666	0.0	0.0
N	0.59916	1.114114	-2.010799
H	0.581104	1.132491	-3.022821
H	1.5505	0.936373	-1.675366
N	-0.106374	-1.240637	-2.223568
O	-0.850306	-2.149471	-1.881118
O	0.757828	-1.299526	-3.093206
C	-0.541459	-1.18792	0.641378
N	-0.992329	-2.065914	1.278192
C	-0.435563	1.248849	0.775028
H	-0.060886	2.13588	0.265288
H	0.00466	1.205405	1.773134
H	-1.521947	1.306818	0.863167
Cl	3.268111	0.0	0.0
