17

C	-0.321455	0.12195	-1.503269
C	0.0	0.0	0.0
Cl	-1.991091	0.677979	-1.787554
H	1.096116	0.0	0.0
N	0.578986	0.965668	-2.221165
H	0.396703	1.930088	-1.976829
H	1.532433	0.732246	-1.934155
N	-0.189592	-1.288432	-2.120405
O	-1.160581	-2.034261	-2.072273
O	0.920604	-1.564601	-2.554807
C	-0.548497	-1.184841	0.640835
N	-1.004315	-2.099882	1.220706
C	-0.395805	1.252064	0.788577
H	-1.476218	1.340287	0.908441
H	0.076522	1.199928	1.770791
H	-0.011261	2.142827	0.288355
Cl	3.269314	0.0	0.0
