17

C	-0.450875	0.021415	-1.464897
C	0.0	0.0	0.0
Cl	0.199398	1.435698	-2.307816
H	1.095718	0.0	0.0
N	-0.082643	-1.142568	-2.147241
H	-0.427713	-1.154882	-3.096544
H	-0.362555	-1.978128	-1.651719
N	-2.025	0.216406	-1.46338
O	-2.679186	-0.816347	-1.600934
O	-2.491587	1.332035	-1.268039
C	-0.460626	-1.246226	0.607743
N	-0.838951	-2.2519	1.084753
C	-0.438373	1.195309	0.850155
H	-0.150292	2.12277	0.356723
H	0.098284	1.138281	1.798685
H	-1.511939	1.209831	1.043482
Cl	3.267875	0.0	0.0
