17

C	0.0	0.0	0.0
C	-0.566917	0.248338	-1.419997
Cl	1.755675	0.0	0.0
H	-1.588015	0.624021	-1.247363
N	-0.377578	1.246559	0.850962
O	-0.940824	1.068925	1.916953
O	-0.052085	2.325905	0.365825
N	-0.494579	-1.130244	0.692966
H	-1.519276	-1.071501	0.703418
H	-0.19798	-1.974017	0.220094
C	-0.698992	-1.063089	-2.19601
H	-1.031062	-0.853222	-3.213443
H	0.252669	-1.599598	-2.244837
H	-1.461513	-1.676948	-1.717437
C	0.183157	1.223265	-2.205157
N	0.761891	1.95164	-2.923244
Br	-3.692041	0.0	0.0
