17

C	0.0	0.0	0.0
C	-0.597267	-0.096122	-1.398463
Cl	1.815552	0.0	0.0
H	-1.638447	0.255956	-1.258039
N	-0.330747	1.372226	0.615585
O	-0.529547	2.296326	-0.157607
O	-0.307145	1.438116	1.838324
N	-0.528905	-0.960497	0.8576
H	-0.363155	-0.731522	1.827056
H	-0.238313	-1.897566	0.627194
C	-0.680167	-1.547815	-1.877806
H	0.290948	-2.049703	-1.826696
H	-1.020517	-1.564011	-2.914087
H	-1.426759	-2.063287	-1.273093
C	0.101469	0.728427	-2.378982
N	0.649894	1.312903	-3.237775
Br	-3.817975	0.0	0.0
