13

C	0.0	0.0	0.0
C	-0.389999	0.054692	-1.408801
Br	1.929344	0.0	0.0
H	-0.006367	0.935647	-1.896383
H	-0.380333	0.784435	0.636686
H	0.05772	-0.829915	-1.994887
N	-0.262829	-1.25471	0.745627
O	-0.279624	-1.220149	1.93153
O	-0.317895	-2.268235	0.066
N	-1.783248	0.072601	-1.807933
O	-1.81264	0.070894	-3.194417
O	-2.411131	1.273408	-1.735823
Br	-3.419112	0.0	0.0
