14

C	0.0	0.0	0.0
C	-0.242359	-0.068006	-1.577539
Cl	1.835482	0.0	0.0
H	0.509266	0.597397	-2.014987
C	-0.40512	1.322988	0.484795
N	-0.561517	2.425689	0.859764
N	-0.485604	-1.035112	0.820997
H	-0.251039	-1.936816	0.418718
H	-1.511517	-0.917989	0.840202
C	-1.506253	0.358969	-2.199807
N	-2.22092	0.750688	-3.050066
C	0.080969	-1.428033	-2.017819
N	0.329307	-2.528708	-2.343429
Cl	-3.263724	0.0	0.0
