14

C	0.0	0.0	0.0
C	-0.544914	0.22046	-1.430296
Cl	1.777047	0.0	0.0
H	-1.654647	0.215113	-1.291015
C	-0.371244	1.165047	0.837667
N	-0.614742	2.08112	1.532932
N	-0.494373	-1.262309	0.458216
H	-1.520789	-1.184188	0.461704
H	-0.176391	-1.424113	1.407472
C	-0.150347	-0.87841	-2.310425
N	0.14266	-1.734178	-3.059962
C	-0.127035	1.50393	-1.988993
N	0.191724	2.537854	-2.445736
Cl	-3.415521	0.0	0.0
