14

C	0.0	0.0	0.0
C	-0.434464	0.202157	-1.505185
Cl	1.781155	0.0	0.0
H	0.485556	0.075042	-2.088175
C	-0.388504	1.141341	0.852681
N	-0.557977	2.032239	1.601884
N	-0.435764	-1.288486	0.445724
H	-0.121515	-1.429506	1.400637
H	-1.465622	-1.235811	0.445368
C	-0.89722	1.559322	-1.799295
N	-1.132748	2.666495	-2.112207
C	-1.326694	-0.825778	-2.053088
N	-1.81095	-1.670418	-2.711416
Cl	-3.195151	0.0	0.0
