14

C	0.0	0.0	0.0
C	-0.433531	0.073453	-1.46828
Br	1.979646	0.0	0.0
H	-0.131974	-0.883354	-1.925762
H	-1.526787	0.102605	-1.355917
C	-0.353838	1.254355	0.686989
N	-0.547558	2.276842	1.229843
N	-0.561638	-1.099874	0.715687
H	-0.394659	-1.933985	0.155741
H	-1.597341	-0.839832	0.605176
N	0.065514	1.252652	-2.157215
H	-0.589121	1.53037	-2.874558
H	0.963948	1.072819	-2.583679
F	-2.780298	0.0	0.0
