14

C	0.0	0.0	0.0
C	-0.494076	0.208444	-1.44802
Br	1.943758	0.0	0.0
H	-1.528617	0.534292	-1.294187
H	0.119766	0.959744	-1.950902
C	-0.350973	1.20438	0.777878
N	-0.533905	2.201561	1.371218
N	-0.548619	-1.150399	0.652046
H	-1.577304	-0.905458	0.57891
H	-0.368949	-1.926366	0.020684
N	-0.436205	-1.075537	-2.157365
H	-0.218701	-0.916784	-3.132829
H	-1.369259	-1.468453	-2.113495
F	-2.793456	0.0	0.0
