14

C	0.0	0.0	0.0
C	-0.450498	-0.051517	-1.462011
Br	1.982864	0.0	0.0
H	0.043645	0.752403	-2.015665
H	-1.529933	0.122801	-1.36988
C	-0.319323	1.332388	0.553264
N	-0.506711	2.391814	1.027151
N	-0.599556	-1.076901	0.711495
H	-1.642566	-0.820293	0.545398
H	-0.389581	-0.988164	1.699449
N	-0.101316	-1.354423	-2.046263
H	-0.759228	-1.516967	-2.801547
H	-0.327969	-2.039325	-1.328021
F	-2.805829	0.0	0.0
