14

C	0.0	0.0	0.0
C	-0.340787	-0.473345	-1.479235
Br	1.944667	0.0	0.0
H	-0.359871	-1.567319	-1.389988
H	0.513182	-0.205182	-2.105463
C	-0.339309	1.432719	0.137204
N	-0.563917	2.578882	0.277695
N	-0.63894	-0.83665	0.960461
H	-1.658655	-0.691737	0.69461
H	-0.524275	-0.420217	1.879002
N	-1.539879	0.008087	-2.113764
H	-1.419146	0.99825	-2.299634
H	-2.306279	-0.05895	-1.412632
F	-2.959996	0.0	0.0
