14

C	0.0	0.0	0.0
C	-0.392892	0.060198	-1.478472
Br	2.076101	0.0	0.0
H	0.03702	0.955258	-1.949164
H	-1.485856	0.142676	-1.380633
C	-0.308426	1.280096	0.65115
N	-0.497738	2.307007	1.188869
N	-0.5523	-1.0746	0.720843
H	-0.456629	-1.877192	0.10026
H	-1.591594	-0.780096	0.637603
N	-0.046842	-1.196372	-2.133403
H	-0.658236	-1.335515	-2.92766
H	0.91274	-1.17138	-2.458258
F	-2.758922	0.0	0.0
