14

C	0.0	0.0	0.0
C	-0.428045	0.372062	-1.413985
Br	2.041577	0.0	0.0
H	-0.125771	-0.4669	-2.054886
H	-1.521306	0.387095	-1.310329
C	-0.274029	1.106836	0.940471
N	-0.457333	1.927095	1.762867
N	-0.57814	-1.237078	0.362558
H	-0.405501	-1.40885	1.348131
H	-1.621999	-0.961666	0.249224
N	0.077053	1.674501	-1.821311
H	-0.571336	2.099003	-2.469213
H	0.976688	1.585902	-2.273831
F	-2.789593	0.0	0.0
