14

C	0.0	0.0	0.0
C	-0.268967	-0.278408	-1.550014
Br	1.94778	0.0	0.0
H	-0.104644	-1.362162	-1.644502
H	0.523274	0.216686	-2.11722
C	-0.381791	1.391733	0.284761
N	-0.605671	2.535772	0.428854
N	-0.633762	-0.874518	0.925817
H	-1.657417	-0.638429	0.767656
H	-0.481123	-1.825188	0.596337
N	-1.538873	0.086983	-2.115178
H	-1.546627	1.095684	-2.219037
H	-2.27523	-0.094864	-1.399116
F	-2.960126	0.0	0.0
