15

C	0.0	0.0	0.0
C	-0.59169	-0.139346	-1.384966
F	1.34819	0.0	0.0
H	-1.698534	-0.14639	-1.268663
H	-0.393502	0.894132	0.476489
N	-0.395665	-1.166936	0.871485
O	-0.267631	-0.971735	2.076113
O	-0.710614	-2.21935	0.328474
N	-0.162908	-1.335909	-2.161825
O	1.006133	-1.697277	-2.063036
O	-1.018757	-1.837694	-2.881926
N	-0.206896	1.066157	-2.190092
O	-0.291312	2.143281	-1.608445
O	0.112006	0.9003	-3.363032
Br	-3.548413	0.0	0.0
