15

C	0.0	0.0	0.0
C	-0.576412	-0.01447	-1.400605
F	1.345931	0.0	0.0
H	-1.684766	0.021928	-1.329195
H	-0.401412	0.844889	0.556546
N	-0.40188	-1.255597	0.748459
O	-1.095368	-2.085117	0.176181
O	0.057759	-1.331344	1.883722
N	-0.176954	-1.181977	-2.239435
O	0.822846	-1.818263	-1.921306
O	-0.887724	-1.386536	-3.216285
N	-0.081652	1.222626	-2.095566
O	-0.313689	2.272337	-1.506295
O	0.497186	1.105849	-3.169459
Br	-3.620436	0.0	0.0
