18

C	0.0	0.0	0.0
C	-0.397107	-0.026665	-1.498345
Br	1.969519	0.0	0.0
H	0.41794	0.459064	-2.04551
H	-0.237557	0.987574	0.401372
C	-0.623496	-1.059221	0.87395
H	-1.715612	-0.945593	0.782214
H	-0.340738	-0.916011	1.919827
H	-0.331148	-2.065379	0.568757
C	-1.665115	0.782899	-1.757215
H	-2.534538	0.433643	-1.174225
H	-1.496893	1.836719	-1.505308
H	-1.912461	0.733586	-2.825592
C	-0.519671	-1.45153	-2.031968
H	0.364357	-2.051912	-1.792867
H	-0.621913	-1.428086	-3.121224
H	-1.407877	-1.9398	-1.625005
H	-4.007029	0.0	0.0
