18

C	0.0	0.0	0.0
C	-0.40053	0.001206	-1.499264
Br	1.971229	0.0	0.0
H	0.393752	-0.52743	-2.039124
H	-0.277563	0.948217	0.464953
C	-0.536447	-1.151	0.820895
H	-1.630743	-1.067222	0.827932
H	-0.167538	-1.099377	1.848366
H	-0.245551	-2.113947	0.394242
C	-0.442927	1.441743	-2.007742
H	-1.29892	1.958909	-1.565108
H	0.474257	1.984527	-1.757581
H	-0.563094	1.463008	-3.095287
C	-1.719116	-0.711355	-1.79435
H	-2.568775	-0.338534	-1.196437
H	-1.6361	-1.786927	-1.60902
H	-1.955573	-0.580084	-2.857377
H	-4.054978	0.0	0.0
