14

C	-0.354216	-0.116648	-1.468391
C	0.0	0.0	0.0
F	-1.740047	-0.264668	-1.62622
H	1.102851	0.0	0.0
H	-0.119462	0.845027	-1.939214
N	0.298751	-1.258589	-2.027504
H	0.321091	-1.192685	-3.03679
H	1.256881	-1.290644	-1.687689
C	-0.48382	-1.175814	0.742724
N	-0.961882	-2.007901	1.42078
N	-0.481513	1.257961	0.556227
H	0.083368	1.489583	1.363371
H	-1.442394	1.155364	0.858228
Cl	3.33428	0.0	0.0
