14

C	-0.327231	0.070688	-1.497849
C	0.0	0.0	0.0
F	-0.158109	-1.214744	-2.054659
H	1.097844	0.0	0.0
H	-1.379655	0.321485	-1.682248
N	0.526399	1.036626	-2.077959
H	0.42564	1.057072	-3.083394
H	1.493894	0.8316	-1.831058
C	-0.558969	-1.21014	0.602055
N	-1.078387	-2.147269	1.080469
N	-0.43203	1.174679	0.749272
H	-1.376973	1.427066	0.479498
H	0.18042	1.938689	0.489875
Cl	3.358067	0.0	0.0
