14

C	-0.536029	0.048909	-1.432635
C	0.0	0.0	0.0
F	-0.048881	1.234725	-1.979563
H	1.09912	0.0	0.0
H	-0.117812	-0.771579	-2.019075
N	-1.961935	0.0573	-1.526065
H	-2.345423	0.462971	-0.680793
H	-2.323376	-0.876943	-1.656583
C	-0.4875	-1.23381	0.620757
N	-0.894747	-2.22329	1.104155
N	-0.562285	1.158462	0.718902
H	-0.13981	1.971834	0.280164
H	-0.197697	1.135011	1.663835
Cl	3.395123	0.0	0.0
