17

C	0.0	0.0	0.0
C	-0.448175	-0.310366	-1.483143
Br	1.96906	0.0	0.0
H	0.464414	-0.290803	-2.085569
C	-0.348409	1.370461	0.380491
N	-0.548772	2.484398	0.702079
C	-0.492058	-0.975994	1.057045
H	-0.118567	-0.668338	2.035186
H	-0.132624	-1.98342	0.843228
H	-1.585988	-0.94106	1.049016
C	-1.271656	0.748903	-2.079061
N	-1.765307	1.56878	-2.761589
C	-1.09594	-1.683689	-1.669632
H	-2.033378	-1.727041	-1.115174
H	-0.411789	-2.47577	-1.354425
H	-1.311708	-1.823833	-2.731702
Cl	-3.591935	0.0	0.0
