17

C	0.0	0.0	0.0
C	-0.442041	-0.301842	-1.490012
Br	1.969079	0.0	0.0
H	0.48144	-0.355102	-2.074517
C	-0.349029	1.363176	0.404005
N	-0.544578	2.470309	0.748327
C	-0.504158	-0.988709	1.040449
H	-0.139974	-0.693257	2.026148
H	-1.598243	-0.94584	1.022876
H	-0.149436	-1.995893	0.819899
C	-1.172744	0.813894	-2.101224
N	-1.620091	1.697517	-2.733598
C	-1.181177	-1.629092	-1.683508
H	-1.394935	-1.750018	-2.748695
H	-0.552156	-2.46554	-1.368182
H	-2.124604	-1.61191	-1.137908
Cl	-3.648765	0.0	0.0
