17

C	0.0	0.0	0.0
C	-0.390401	-0.229866	-1.488682
Br	1.966023	0.0	0.0
H	0.036302	-1.205296	-1.75481
C	-0.376965	1.350009	0.421818
N	-0.650049	2.435964	0.779822
C	-0.606355	-1.043775	0.918695
H	-0.232509	-0.920521	1.935622
H	-0.360281	-2.046339	0.562304
H	-1.694167	-0.907663	0.918863
C	0.248108	0.76534	-2.356733
N	0.729777	1.543485	-3.093383
C	-1.897678	-0.2305	-1.743425
H	-2.37227	0.687254	-1.401231
H	-2.407072	-1.03758	-1.22356
H	-2.072951	-0.340872	-2.816225
Cl	-4.635172	0.0	0.0
