17

C	0.0	0.0	0.0
C	-0.57563	-0.101684	-1.425403
Br	1.964828	0.0	0.0
H	-1.667817	-0.167636	-1.247985
C	-0.363577	1.292746	0.58564
N	-0.57313	2.346733	1.062052
C	-0.481339	-1.147026	0.879624
H	-0.144653	-2.096529	0.458499
H	-1.574899	-1.105145	0.896559
H	-0.083948	-1.04312	1.890663
C	-0.127896	-1.339766	-2.058687
N	0.233341	-2.317708	-2.600653
C	-0.286885	1.103144	-2.31875
H	-0.718851	1.999129	-1.87002
H	-0.754507	0.952189	-3.293463
H	0.786431	1.247267	-2.460628
Cl	-3.649139	0.0	0.0
