16

C	-0.341119	0.020686	-1.500793
C	0.0	0.0	0.0
Cl	-2.119663	0.307609	-1.719616
H	1.102974	0.0	0.0
N	0.377699	1.058345	-2.198026
H	1.370067	0.825171	-2.119151
H	0.240933	1.890548	-1.626354
C	-0.055903	-1.280668	-2.117914
N	0.175982	-2.328824	-2.59491
N	-0.603818	-1.132154	0.695545
H	-0.357767	-1.991669	0.212168
H	-0.144444	-1.189114	1.599346
N	-0.400029	1.267296	0.572303
H	-1.322698	1.16834	0.979409
H	0.264746	1.531262	1.288021
Br	3.518981	0.0	0.0
