16

C	-0.313496	0.083663	-1.495647
C	0.0	0.0	0.0
Cl	-2.079151	0.426057	-1.784523
H	1.104677	0.0	0.0
N	0.457493	1.164804	-2.051118
H	1.427481	1.040654	-1.752054
H	0.418867	1.150548	-3.063035
C	-0.071965	-1.216546	-2.144972
N	0.166419	-2.197182	-2.747042
N	-0.514666	-1.216137	0.576226
H	-1.364783	-0.987533	1.077737
H	0.16429	-1.596087	1.222579
N	-0.503631	1.201267	0.673039
H	0.153033	1.402354	1.421829
H	-0.431643	1.978338	0.021623
Br	3.514819	0.0	0.0
