16

C	-0.500971	-0.003082	-1.441826
C	0.0	0.0	0.0
Cl	-2.463042	-0.033068	-1.278243
H	1.094566	0.0	0.0
N	-0.064962	1.106579	-2.130113
H	-0.121179	1.930263	-1.543392
H	-0.433732	1.216497	-3.06162
C	-0.248363	-1.2527	-2.152991
N	-0.057511	-2.244702	-2.752015
N	-0.423237	-1.205948	0.670627
H	0.215857	-1.408675	1.427884
H	-1.369693	-1.129842	1.021276
N	-0.360499	1.299075	0.571883
H	0.326279	1.535955	1.277563
H	-1.281061	1.261042	0.993408
Br	3.50809	0.0	0.0
