16

C	-0.313991	0.078558	-1.496453
C	0.0	0.0	0.0
Cl	-2.07399	0.422398	-1.789729
H	1.104672	0.0	0.0
N	0.459129	1.157177	-2.054486
H	1.430194	1.030405	-1.760436
H	0.413016	1.143177	-3.066119
C	-0.070581	-1.224464	-2.140866
N	0.174282	-2.207663	-2.736428
N	-0.514695	-1.213544	0.580235
H	0.160748	-1.590093	1.231937
H	-1.36731	-0.985198	1.075358
N	-0.502268	1.204512	0.669296
H	0.157595	1.409668	1.413075
H	-0.432445	1.978015	0.013969
Br	3.511999	0.0	0.0
