16

C	-0.53757	0.009496	-1.450167
C	0.0	0.0	0.0
Cl	0.070803	-1.41678	-2.347639
H	1.09823	0.0	0.0
N	-1.980974	-0.061042	-1.387963
H	-2.382945	0.085537	-2.306439
H	-2.25708	0.69519	-0.764517
C	-0.070897	1.204519	-2.173405
N	0.190883	2.196965	-2.747113
N	-0.458734	-1.154719	0.738499
H	-1.321538	-1.503588	0.337016
H	0.250764	-1.872928	0.679415
N	-0.555566	1.216339	0.61985
H	-0.604389	1.007007	1.610154
H	0.121561	1.965008	0.505604
Br	3.564115	0.0	0.0
