16

C	-0.535801	0.0096	-1.450798
C	0.0	0.0	0.0
Cl	0.07403	-1.41632	-2.34849
H	1.098234	0.0	0.0
N	-1.979179	-0.060958	-1.391846
H	-2.257488	0.696998	-0.771503
H	-2.379149	0.081949	-2.311904
C	-0.067533	1.20513	-2.172705
N	0.196741	2.199193	-2.742288
N	-0.459702	-1.154873	0.737564
H	0.250673	-1.872849	0.680521
H	-1.320972	-1.504953	0.333315
N	-0.555141	1.217034	0.618981
H	-0.616956	1.003447	1.607625
H	0.128332	1.961344	0.516299
Br	3.561704	0.0	0.0
