16

C	-0.356157	-0.041775	-1.500901
C	0.0	0.0	0.0
Cl	0.067066	1.574808	-2.243454
H	1.102609	0.0	0.0
N	0.375274	-1.119112	-2.081529
H	1.361829	-0.997908	-1.848965
H	0.265523	-1.139722	-3.087952
C	-1.797141	-0.205723	-1.722166
N	-2.951035	-0.325509	-1.899984
N	-0.53627	-1.231634	0.595709
H	-0.274492	-2.008976	-0.002914
H	-0.035053	-1.364267	1.469461
N	-0.530906	1.156734	0.66697
H	0.180025	1.576042	1.250384
H	-1.32312	0.871032	1.229924
Br	3.550752	0.0	0.0
