12
Coordinates from ORCA-job run
  C   0.54048551781660     -0.26161207932144     -0.42438189498790
  C   -0.45298678985649      0.41804187997948      0.49334072982733
  F   0.40520620109565      0.28994968803078     -1.68427538383892
  H   -0.35379843193606      0.05764157991751      1.51868941987338
  H   0.29801447548068     -1.32436857219868     -0.53374345387244
  H   -0.32865981842009      1.49662541155522      0.44018127302346
  N   1.87297080973830      0.03388976984857      0.03136900261052
  H   2.53885473450837     -0.31896112100500     -0.64555972917131
  H   2.05333901565179     -0.42445636425658      0.91626054185614
  N   -1.84409350010954      0.09700500747757      0.06590423600349
  O   -2.59427439114075      1.03427536052637     -0.18723766922897
  O   -2.13505782282844     -1.09603056055382      0.00845292790522
