12
Coordinates from ORCA-job run
  C   0.63620500502485     -0.57123189331190      0.21126161770989
  C   -0.79103680060299     -0.42085608618969     -0.28260502825911
  F   1.09560482417682     -1.77250095013773     -0.36823753366346
  H   -1.39044277240495     -1.27716480882012      0.02295480761354
  H   0.66001665931767     -0.72205487809467      1.29037893875227
  H   -0.81853806108004     -0.29588125154570     -1.36404738234680
  N   1.40608924615316      0.55569765246445     -0.12808924292898
  H   1.45774856578772      0.69821568353797     -1.12808500418175
  H   2.33570297369572      0.51945656327438      0.26503426061487
  N   -1.38775310086438      0.79251073537332      0.33326050961983
  O   -1.68179027352735      1.72589372549077     -0.40711908340655
  O   -1.52180626567622      0.76691550795893      1.55429314047625
