10
Coordinates from ORCA-job run
  C   -0.60547967877604      0.38006742371809     -0.02135351174933
  C   0.60020393523579     -0.01673029185335     -0.53314746689541
  H   0.95480242898725      0.44068942133985     -1.45220493522312
  C   -1.38194656922998      1.37578501172602     -0.68167538286709
  N   -2.01209502071953      2.20105476392637     -1.23376015008814
  C   -1.07362812789817     -0.20801986640827      1.19016623771869
  N   -1.37175917959644     -0.74777274103114      2.19282946373956
  N   1.38794291105746     -0.97423459941620     -0.00873703599598
  H   2.32476084181852     -1.09016631076365     -0.35021009922294
  H   1.17619845912113     -1.36167281123773      0.89809288058376
