10
Coordinates from ORCA-job run
  C   -0.67853063246614      0.05148849105438      0.21953491661522
  C   0.43747778999535     -0.66181221058994     -0.12536350520071
  H   0.41632774541340     -1.74383421700510     -0.03322348912407
  C   -0.65612820344726      1.47302923951751      0.11181370875334
  N   -0.53923578147827      2.63817415275311     -0.00781264368627
  C   -1.84782756449461     -0.61270641372321      0.69085420301940
  N   -2.80606361800261     -1.17151934415047      1.08118966450897
  N   1.57386693463652     -0.13414495801933     -0.61774939373338
  H   1.70360314166923      0.86600405368831     -0.62817858379284
  H   2.39651018817439     -0.70467879352527     -0.69106487735966
