10
Coordinates from ORCA-job run
  C   -0.68930760237302      0.01066089904979      0.18475638282700
  C   0.45284531754305     -0.63099752448566     -0.21098586023171
  H   0.43796889880992     -1.71213080718892     -0.31430618240259
  C   -0.67598246551382      1.42896612242246      0.33101362108994
  N   -0.56808675113934      2.59706475344689      0.42886031562663
  C   -1.88102182544208     -0.72366917534842      0.45189087696980
  N   -2.86091639487444     -1.33562672830220      0.67085563933377
  N   1.61063763860425     -0.02425204706951     -0.53431257058200
  H   2.44415202427855     -0.57215422724325     -0.64711182048723
  H   1.72871116010694      0.96213873471883     -0.36066040214360
