10
Coordinates from ORCA-job run
  C   -0.69797503451848      0.01140888448564      0.15769358978923
  C   0.46031171076195     -0.63202171685879     -0.18561893560877
  H   0.45189194308903     -1.71437827910402     -0.27577702757998
  C   -0.69049015701108      1.43147362650889      0.28597913073090
  N   -0.57977406993699      2.60042836500324      0.36963437056366
  C   -1.89641854638186     -0.72324569270535      0.39069093577902
  N   -2.87981439747952     -1.33883322015998      0.58281756478043
  N   1.62856457389914     -0.02564975852445     -0.46759132677106
  H   2.46624142044091     -0.57173527718437     -0.55410776254034
  H   1.73646255713689      0.96355306853920     -0.30272053914308
