10
Coordinates from ORCA-job run
  C   -0.60884921697269      0.37418590746200     -0.03565644726178
  C   0.61294604734677     -0.00831555674589     -0.51982205910461
  H   0.98146546188037      0.44902994479926     -1.43345583120308
  C   -1.38739904781095      1.35331808894947     -0.71787442141108
  N   -2.02136366695690      2.16380474517342     -1.28719638467372
  C   -1.09357565935844     -0.21661240906546      1.16813322876776
  N   -1.40163637338067     -0.75857534726440      2.16667942997812
  N   1.40105911469862     -0.95301026090209      0.02648202486984
  H   2.34570464393938     -1.06192594671627     -0.29471599500492
  H   1.17164869661451     -1.34189916569004      0.92842645504349
