10
Coordinates from ORCA-job run
  C   -0.68425992819856      0.02917787867298      0.20156715876260
  C   0.41539444060215     -0.63286478960786     -0.27342007237534
  H   0.34410844866087     -1.70016854746208     -0.46157005773394
  C   -0.59609068493362      1.42851303154765      0.46077193947875
  N   -0.42583953112735      2.57798799655714      0.64841953769841
  C   -1.90503690774263     -0.66546031362693      0.44210995840410
  N   -2.90740587407345     -1.24780908530373      0.63955036309407
  N   1.59538926618175     -0.05869841331408     -0.57413183659187
  H   2.39690730099622     -0.63425580490347     -0.75796378927944
  H   1.76583346963461      0.90357804744038     -0.32433320145734
