10
Coordinates from ORCA-job run
  C   -0.69160194580940      0.04583259952333      0.17049967234377
  C   0.47107287843072     -0.65234232060334     -0.01183712940723
  H   0.46308255019107     -1.72949395338525      0.12706391477819
  C   -0.69079496120568      1.45966656614775     -0.01326700526981
  N   -0.59038988320888      2.61864132933930     -0.19251262991176
  C   -1.89251232032545     -0.62521122417806      0.54251384424729
  N   -2.87850682400745     -1.18826538900951      0.84869539842147
  N   1.66447090973825     -0.10496952308283     -0.31123664329421
  H   2.42527113971610     -0.69520844629978     -0.59502287363143
  H   1.71990845648071      0.87035036154838     -0.56289654827629
