10
Coordinates from ORCA-job run
  C   -0.60763918581887      0.37663646964077      0.00728109774694
  C   0.53756213198881     -0.07173555993941     -0.59337174977937
  H   0.77796201334477      0.27994791325359     -1.59260572967581
  C   -1.47354526108382      1.28642979961480     -0.66576093512014
  N   -2.18059404414120      2.03849173368641     -1.22905882987520
  C   -0.92467159068177     -0.07481059357398      1.32202597749072
  N   -1.09726493194189     -0.50081107214630      2.40563550186458
  N   1.39392598071851     -0.96289434733349     -0.06016670507778
  H   1.28808948669853     -1.25382525360401      0.89962916979822
  H   2.28617540091693     -1.11842908959837     -0.49260779737216
