10
Coordinates from ORCA-job run
  C   -0.69733814481066      0.01143292107828      0.15707257686413
  C   0.45896264839284     -0.63104183233452     -0.19451369067582
  H   0.44541199637801     -1.71134381419460     -0.30517567481880
  C   -0.68508303695071      1.42913306990025      0.30944838200010
  N   -0.57240223702799      2.59616430652316      0.41422256297660
  C   -1.90034315183781     -0.72154168115365      0.37198900223143
  N   -2.88780698443524     -1.33506639938163      0.54886312298567
  N   1.62996450424799     -0.02484453965781     -0.46577596470000
  H   2.46589730190437     -0.57357239875976     -0.55312107283765
  H   1.74173710413919      0.96068036798028     -0.28300924402565
