10
Coordinates from ORCA-job run
  C   -0.68465839737447      0.06367689096725      0.19226565488907
  C   0.42757424152816     -0.67128114757815     -0.11741075223792
  H   0.35144432357506     -1.75461336288075     -0.13630618934039
  C   -0.59496707054898      1.48666007221984      0.21288428561429
  N   -0.42446229734962      2.65134921202666      0.20291681723637
  C   -1.92099108895520     -0.57907393681172      0.49080741582196
  N   -2.93764050240743     -1.11866604968069      0.73177378586113
  N   1.64846477764077     -0.16149478375270     -0.36626390158097
  H   1.76830313681793      0.83480448855795     -0.46690251695886
  H   2.36693287707378     -0.75136138306767     -0.74476459930469
