10
Coordinates from ORCA-job run
  C   -0.69877443448477      0.04718198073967      0.14111599857296
  C   0.46941248983329     -0.65343991530287      0.00877258342321
  H   0.45235707425244     -1.73095947833391      0.14426210662141
  C   -0.68542029173687      1.46102392020173     -0.04224677497160
  N   -0.57098288193298      2.61992544692430     -0.21390328724115
  C   -1.91753126502346     -0.62186857193888      0.45374381470251
  N   -2.91997421662602     -1.18187588769107      0.70724748082214
  N   1.67563154005287     -0.10811704115266     -0.23724508718253
  H   1.74723802758875      0.86911350624894     -0.47602432665806
  H   2.44804395807675     -0.69898395969526     -0.48572250808888
