10
Coordinates from ORCA-job run
  C   -0.61450318890980      0.36222696572884      0.03018973509700
  C   0.60382231427085      0.08235034776893     -0.52672765261160
  H   0.90292932497028      0.61111906842416     -1.42714394121395
  C   -1.01841662805883     -0.33799937371706      1.20478257954622
  N   -1.26406060669057     -0.96884960349559      2.16769458311283
  C   -1.47806813891784      1.33253459463319     -0.55488758004521
  N   -2.18570692639776      2.13446427965826     -1.04383839679563
  N   1.50653638169747     -0.77964103925756     -0.02135432431050
  H   1.25213634495103     -1.38036676540889      0.74777297763109
  H   2.29533112308517     -1.05583847433428     -0.57748798041024
