10
Coordinates from ORCA-job run
  C   -0.68377332972638      0.05330822731680      0.19968942210611
  C   0.45107660916037     -0.66364258210740     -0.06696352089443
  H   0.41576152081284     -1.74696784166044      0.00278470746804
  C   -1.89363513379131     -0.60504638811048      0.56450560025967
  N   -2.88826717440935     -1.15691047138811      0.86285126760057
  C   -0.64543183070898      1.47518054814013      0.09931137234225
  N   -0.51519003070930      2.63957941138122     -0.01402897280389
  N   1.64939301723545     -0.13101970559880     -0.37211425293085
  H   1.72880168185420      0.85767879910365     -0.55488500895457
  H   2.38226467028246     -0.72215999707658     -0.72015061419291
