10
Coordinates from ORCA-job run
  C   -0.67003501071599      0.00596099630389      0.25071000316597
  C   0.42231037394147     -0.62211926861181     -0.28374082449602
  H   0.35348565674342     -1.67869481941456     -0.52600354977979
  C   -0.58826339279131      1.39477769976061      0.56307156098069
  N   -0.42261245624692      2.53890728056677      0.78425277097546
  C   -1.87892084653552     -0.71116920241515      0.48478159546744
  N   -2.87320183237703     -1.31084927127919      0.67064701543922
  N   1.61741003494866     -0.04351524221389     -0.50447871968470
  H   2.31507649255405     -0.52711167844940     -1.03988665698126
  H   1.72375098047917      0.95381350575274     -0.39935319508702
