10
Coordinates from ORCA-job run
  C   -0.69165336351086      0.00607643983897      0.17980358262056
  C   0.45213578291308     -0.62347858468830     -0.23079122788970
  H   0.43584939025284     -1.70038636739727     -0.37157141380990
  C   -1.88501072328896     -0.73596098785681      0.41669960913838
  N   -2.86342499639799     -1.35857737373369      0.61125558753631
  C   -0.67546661478301      1.41815861192290      0.37724358232564
  N   -0.56292635457291      2.58168899148595      0.51516380929341
  N   1.61290701340904     -0.00794781793846     -0.52439326987750
  H   1.73016738617427      0.97204782965524     -0.31673051031171
  H   2.44542247980450     -0.55262074128853     -0.65667974902549
