10
Coordinates from ORCA-job run
  C   -0.68826053721861     -0.01639787305848      0.19185811026367
  C   0.47443046650339     -0.61105100185673     -0.21780004626361
  H   0.50029207695507     -1.69160466582619     -0.32541855741716
  C   -1.84510013456424     -0.79971517992175      0.47258753600247
  N   -2.79338824394385     -1.45546638639481      0.70422740526142
  C   -0.72908932264891      1.40081261586469      0.34239232843659
  N   -0.66390080033654      2.57200962486617      0.44036478866378
  N   1.60455857034654      0.04152358174819     -0.54744544328513
  H   1.68485328096009      1.03222718838117     -0.37658282891325
  H   2.45560464394706     -0.47233790380226     -0.68518329274877
