10
Coordinates from ORCA-job run
  C   -0.68777643224308      0.05362728169535      0.18592330508115
  C   0.45112645794035     -0.66323906881908     -0.06352290873637
  H   0.43813270858519     -1.73859240129625      0.08880263159706
  C   -0.67513221758306      1.46657330705643     -0.00483414639480
  N   -0.56502608550433      2.62461149560236     -0.18490505540995
  C   -1.87307072106207     -0.59633452542471      0.63668474856005
  N   -2.84523077718452     -1.14058426829260      1.01275887296824
  N   1.60332143854871     -0.14795936238479     -0.53109818606928
  H   2.43514788191932     -0.70958144674972     -0.53895441102884
  H   1.71850774658349      0.85147898861300     -0.60085485056726
