10
Coordinates from ORCA-job run
  C   -0.61815326463430      0.35875132364558     -0.00672787233607
  C   0.54390582317299     -0.07239161206855     -0.58721418130361
  H   0.77810223073132      0.25439403040406     -1.59620732776135
  C   -1.50970964082282      1.21553582307898     -0.71496708414985
  N   -2.23797139739669      1.92161176972039     -1.30976160904476
  C   -0.92996480588454     -0.06035541898251      1.31996900705800
  N   -1.09871072969929     -0.45851534852769      2.41477448447714
  N   1.42455073454288     -0.91913942527413     -0.02210838370803
  H   2.32459949527496     -1.05822478040723     -0.44399023722032
  H   1.32235155471549     -1.18166636158890      0.94623320398885
