10
Coordinates from ORCA-job run
  C   -0.68886914911950      0.03238623369178      0.18701995195508
  C   0.42180307257327     -0.63604034821191     -0.25231173106610
  H   0.35411130500712     -1.70588738904630     -0.42712238676348
  C   -0.60744267418855      1.43597061785167      0.42516541002912
  N   -0.44017485549771      2.58858165876321      0.59614955614574
  C   -1.91330009418336     -0.66200079975287      0.41023376022426
  N   -2.91765037305094     -1.24682278628274      0.58956367099709
  N   1.60650988036037     -0.06509592415484     -0.54153003446786
  H   2.41445439748246     -0.64357345250441     -0.68346972646787
  H   1.76955849061683      0.90148218964640     -0.30369847058597
