10
Coordinates from ORCA-job run
  C   -0.62133123964664      0.35262144571414     -0.00625924745568
  C   0.55125795336669     -0.05566061154428     -0.58224447367997
  H   0.79542897293308      0.29755630997992     -1.57990367673608
  C   -1.50749399136721      1.22472630872150     -0.70294174093324
  N   -2.23023599807457      1.94373864145913     -1.28908539736310
  C   -0.94705699629322     -0.10115207994159      1.30575670765195
  N   -1.12499066452914     -0.52504147514965      2.38944519987373
  N   1.42797758289803     -0.91577248767386     -0.03021894633447
  H   2.34033570045362     -1.02218008160889     -0.43498452402152
  H   1.31610868025936     -1.19883596995642      0.93143609899836
