10
Coordinates from ORCA-job run
  C   -0.62077874347791      0.34801566499713     -0.06067965985314
  C   0.62320279238397     -0.00426224998730     -0.50930861712795
  H   0.99174030165932      0.43595050281779     -1.43164788315113
  C   -1.41984077952130      1.27911779458501     -0.78534439582186
  N   -2.07027019529282      2.05074047667678     -1.38853082909187
  C   -1.10764952803936     -0.21877976219606      1.15382662886239
  N   -1.41695742898838     -0.73314057080898      2.16624120824209
  N   1.43200810588244     -0.90613408913994      0.07905757728029
  H   1.19852484531687     -1.27248238424706      0.98918256003686
  H   2.39002063007717     -0.97902538269736     -0.21179658937567
