10
Coordinates from ORCA-job run
  C   -0.69841540460091      0.04536892179144      0.14566376793595
  C   0.46565925174439     -0.65512410614061     -0.02077400456373
  H   0.44377281568141     -1.73736799459003      0.06838528864008
  C   -1.91961439047024     -0.63122627963757      0.43134226179154
  N   -2.92290589696346     -1.19895701287546      0.66318307681734
  C   -0.67875698717603      1.46565658094584      0.02251106474307
  N   -0.56338630794865      2.63045513491595     -0.10225850744237
  N   1.67283630045602     -0.10712633290816     -0.25255684050229
  H   1.75340769269821      0.87993038176916     -0.44271351778605
  H   2.44640292657927     -0.69160929327056     -0.51178258963354
