10
Coordinates from ORCA-job run
  C   -0.62832973092455      0.34090838218898      0.02116627493725
  C   0.59812387939679      0.08541142469820     -0.53006970831039
  H   0.88034688536519      0.60145893932479     -1.44321537784878
  C   -1.51907082664541      1.27144496059161     -0.58772028530153
  N   -2.24704189237637      2.03960088025574     -1.10045086111398
  C   -1.00786416370521     -0.33850793589508      1.21580635461080
  N   -1.22980748793925     -0.94955830802787      2.19717309236896
  N   1.52684107072762     -0.73611671962817     -0.00602149975124
  H   2.33076859186798     -0.99200578335172     -0.54970372030149
  H   1.29703367423320     -1.32063584015647      0.78303573071039
