10
Coordinates from ORCA-job run
  C   -0.63141147158902      0.33255819321145     -0.03922322108011
  C   0.65048687090087      0.10414165277378     -0.46103503600725
  H   1.04882738719283      0.70302434051629     -1.27499324177077
  C   -1.43261926462585      1.33538139009455     -0.65806593665572
  N   -2.08433162829285      2.16706058333038     -1.17424663234929
  C   -1.15863831503328     -0.44479687421716      1.03345778550392
  N   -1.50096952726126     -1.13376486351386      1.92431064012943
  N   1.46821269133952     -0.84758099233167      0.02619995881596
  H   1.20195535282582     -1.37036570117752      0.84649520466349
  H   2.44048790454321     -0.84565772868624     -0.22289952124967
