10
Coordinates from ORCA-job run
  C   -0.69936777317981      0.05292736243271      0.13684394205874
  C   0.46884398792179     -0.65235602851031      0.03119057321708
  H   0.44951946244593     -1.72540055657249      0.19834533011762
  C   -0.68392207207058      1.46075456088516     -0.08829121318226
  N   -0.56943896255204      2.61341495963518     -0.29753702792599
  C   -1.91972007427094     -0.60748105142694      0.46095805655652
  N   -2.92218824748291     -1.16288555382691      0.72466203151123
  N   1.67686764975860     -0.11634667401624     -0.22516922092009
  H   1.75079049632490      0.85340321697043     -0.49226445910895
  H   2.45061553310505     -0.71503023557058     -0.44973801232390
