10
Coordinates from ORCA-job run
  C   -0.68883468008532      0.07456471102792      0.17580379251554
  C   0.43711884976262     -0.67364880839575     -0.03761586699417
  H   0.37411229606643     -1.75402465379231      0.05510943333216
  C   -0.61453078388013      1.49262867994045      0.04747229508175
  N   -0.45379313838522      2.65097056854899     -0.08657213189553
  C   -1.92348984477681     -0.55059975073150      0.51523415184303
  N   -2.93787793336736     -1.07735472311820      0.79133713686575
  N   1.65693984972811     -0.17591854057458     -0.31556743369379
  H   1.76479871837995      0.80568471416655     -0.52084566448072
  H   2.38655666655773     -0.79230219707156     -0.62435571257402
