10
Coordinates from ORCA-job run
  C   -0.63757660210891      0.31933788254191     -0.03581390317622
  C   0.67590765235462      0.18330554036150     -0.39507403292454
  H   1.08310922589845      0.84775838031694     -1.15190498093969
  C   -1.45499680248892      1.32064060876775     -0.63586835643033
  N   -2.12074047037838      2.14954019224071     -1.13855383363893
  C   -1.18230048416032     -0.55287676924926      0.95197061795607
  N   -1.53935914631748     -1.31829140885836      1.77183255087532
  N   1.54277835445804     -0.69120115026202      0.15060343811225
  H   1.20475960621405     -1.40762886867435      0.77490023705763
  H   2.42941866652884     -0.85158440718482     -0.29209173689155
