10
Coordinates from ORCA-job run
  C   -0.69777315231218      0.04797927385416      0.14967229485925
  C   0.47531763035184     -0.64695975281018      0.02989032398229
  H   0.47178003561759     -1.71702771597149      0.21624166856321
  C   -0.70196430863669      1.45189295708623     -0.09902486320073
  N   -0.60448854012145      2.60247401655170     -0.32745918149606
  C   -1.90264430276206     -0.61875364633814      0.51572896346834
  N   -2.89187800562443     -1.17926247282785      0.81602300490969
  N   1.67125938343254     -0.10375624229962     -0.26424437625057
  H   2.44807145239628     -0.69812400628687     -0.48908950812052
  H   1.73131980765857      0.86253758904204     -0.54673832671491
