10
Coordinates from ORCA-job run
  C   -0.62781522776658      0.34117901488771     -0.03538753865805
  C   0.57614708929601     -0.04548543170706     -0.55905546724907
  H   0.85899470985472      0.31368070446443     -1.54421296082812
  C   -1.49905462667174      1.19787395299225     -0.76850491709100
  N   -2.20909475076008      1.90903939656215     -1.37910237015826
  C   -1.00129478636884     -0.12050660092092      1.26099568855005
  N   -1.21306688509546     -0.54987746075819      2.33641397078817
  N   1.44557977010326     -0.88408963142612      0.03494343303185
  H   1.29724683812796     -1.17165151405570      0.99024723083496
  H   2.37135786928077     -0.98916243003854     -0.33833706922053
