10
Coordinates from ORCA-job run
  C   -0.70082935268461      0.04781279171811      0.13417478416490
  C   0.45928491868667     -0.65916395041897     -0.03205630941409
  H   0.44363234481280     -1.73487902176566      0.11693296777239
  C   -0.68499386012325      1.46142611173766     -0.05222452492108
  N   -0.56566889440304      2.62003118851664     -0.22295907092849
  C   -1.91092165174233     -0.61314199432543      0.49372591400792
  N   -2.90347631343852     -1.16691720730929      0.79525698714679
  N   1.63878452537199     -0.13356163046115     -0.41221540969829
  H   1.75164928859213      0.86728210734538     -0.46615892458374
  H   2.47353899492816     -0.68788839503729     -0.35447641354632
