10
Coordinates from ORCA-job run
  C   -0.68720875838882      0.00085991204176      0.19705771821602
  C   0.45118929707322     -0.62070340688683     -0.24011831546995
  H   0.43744308170626     -1.69720953788720     -0.38464982113447
  C   -1.87116041338848     -0.74835472717003      0.45651981588173
  N   -2.84334524840852     -1.37501266882403      0.66862884832685
  C   -0.67501214998104      1.41277511922899      0.39537971922326
  N   -0.56506226212888      2.57673722032379      0.53178723857261
  N   1.60163047369300      0.00263552423248     -0.55542293325584
  H   1.71701182166100      0.98364603826670     -0.35202375760132
  H   2.43351415816225     -0.53537347332563     -0.71615851275889
