10
Coordinates from ORCA-job run
  C   -0.63015991951068      0.33725529074098      0.00728145646270
  C   0.58054196608843      0.03592554504240     -0.55552334233360
  H   0.86389174081873      0.52494001619004     -1.48303385679091
  C   -1.50735419451331      1.27391798907720     -0.61208115618154
  N   -2.22336379774923      2.04960702081691     -1.13020713717033
  C   -1.00531842573702     -0.29664704182209      1.22813422689233
  N   -1.22247071288651     -0.86738130439061      2.23443411080211
  N   1.45598563966960     -0.86545969753400     -0.07282342564826
  H   2.38419386799924     -0.91221476264869     -0.45179149826178
  H   1.30505383582076     -1.28094305547215      0.83361062222929
