10
Coordinates from ORCA-job run
  C   -0.69281948631703      0.05634289103727      0.16705811155095
  C   0.41708492652424     -0.66031030900619     -0.19052575087905
  H   0.33699428920015     -1.73953525288202     -0.28303627517636
  C   -0.59289088159592      1.47284758199075      0.29592420392664
  N   -0.40963571148250      2.63262091146541      0.37884089617495
  C   -1.93414374091186     -0.59915241672474      0.41169798772070
  N   -2.95343469659941     -1.14988934642370      0.61302316978396
  N   1.61894177776733     -0.13078012038992     -0.48559229497506
  H   1.79296771029178      0.84930245365183     -0.32386317369669
  H   2.41793581312321     -0.73044639271869     -0.58252687443004
