10
Coordinates from ORCA-job run
  C   -0.61581302474587      0.36211192961283      0.02011075904226
  C   0.57150728023837      0.01568678199822     -0.56617970844209
  H   0.85648742410869      0.49674939216621     -1.49732884903060
  C   -1.46684815754595      1.33494518807665     -0.57974582537083
  N   -2.16156155963536      2.14040969133558     -1.08115523944499
  C   -0.99328246109209     -0.26135836074300      1.24554537606486
  N   -1.21471853864827     -0.82725536451550      2.25364800077103
  N   1.41911921982414     -0.92157520202877     -0.10258458383638
  H   2.33769924222160     -1.00512294003425     -0.49817595734497
  H   1.26741057527474     -1.33459111586797      0.80486602759170
