10
Coordinates from ORCA-job run
  C   -0.67360026734655      0.01539294317483      0.23650040532351
  C   0.43779157922366     -0.63801069853302     -0.22287012052446
  H   0.38750004606227     -1.71139283284550     -0.38106007295825
  C   -0.61712275914491      1.42585031443585      0.43785002427177
  N   -0.47543532467085      2.58749206549679      0.56532389218760
  C   -1.87987353610640     -0.69604692662235      0.50024298443134
  N   -2.87326073389141     -1.28858771864609      0.71161213408798
  N   1.63136048305130     -0.06214218512087     -0.46033796139896
  H   2.34296141724898     -0.57400248096896     -0.94922382955552
  H   1.71867909557390      0.94244751962933     -0.43903745586499
