10
Coordinates from ORCA-job run
  C   -0.59538386417752      0.39395044120374     -0.01700285477582
  C   0.58896224786380     -0.04106561543310     -0.54720188888968
  H   0.88324097012672      0.30971838353898     -1.53208244925824
  C   -1.43266620391095      1.29089287654571     -0.74185591138409
  N   -2.11870649074678      2.02874258859728     -1.34827310181895
  C   -0.99100219809867     -0.06841266480887      1.27255620037451
  N   -1.23168332748089     -0.50750397215690      2.33785879958765
  N   1.46352372321838     -0.85371050531932      0.07479334082111
  H   1.20835640468200     -1.29807149072263      0.94336444497768
  H   2.22535873852390     -1.25454004144488     -0.44115657963417
