10
Coordinates from ORCA-job run
  C   -0.70306082377565      0.03137241895321      0.12631044877949
  C   0.47063361432218     -0.64935597845442     -0.05326783535945
  H   0.47001455621926     -1.73071976985806      0.04830654109449
  C   -0.70810751723054      1.45188387066548      0.00321520427779
  N   -0.60938140783588      2.61889004610546     -0.11443761312734
  C   -1.90673125818687     -0.66474222521466      0.43795110774026
  N   -2.89365744436951     -1.24930298023657      0.69692987207133
  N   1.64656339227286     -0.08969155907962     -0.39419354376173
  H   2.48948455023008     -0.63247414242151     -0.34600279630030
  H   1.74324233835407      0.91414031954068     -0.40381138541453
