10
Coordinates from ORCA-job run
  C   -0.69892526017060      0.01333078166223      0.14935936658294
  C   0.48523392167890     -0.63706910293676     -0.06956227622757
  H   0.51520344245621     -1.71843045706358      0.02615827490766
  C   -1.87632055627123     -0.71380164317002      0.48863264180497
  N   -2.84099476557736     -1.32513208486775      0.76843149726354
  C   -0.74322067547867      1.43360171768391      0.03210329353801
  N   -0.67866619441631      2.60317552301141     -0.08459604180626
  N   1.63608640545276     -0.04655536441028     -0.44331750721315
  H   2.49312880132337     -0.56844133760326     -0.42158612045212
  H   1.70847488100292      0.95932196769410     -0.44662312839803
