10
Coordinates from ORCA-job run
  C   -0.62604602411579      0.34456360583130      0.00114705353650
  C   0.59335956155693      0.04012071314739     -0.54055030952239
  H   0.90480595035655      0.54713027986221     -1.44913184931703
  C   -1.03841227732517     -0.31220590511242      1.19768162091769
  N   -1.28784259864367     -0.90333324855515      2.18466217799449
  C   -1.47740447791091      1.30466167065253     -0.61868765984501
  N   -2.17022901861315      2.10022134786457     -1.13807951617604
  N   1.44508971754618     -0.88572429065839     -0.06033286337310
  H   1.27138764649277     -1.31080280236052      0.83770173958545
  H   2.38429152065627     -0.92563137067151     -0.41241039380054
