13
Coordinates from ORCA-job run
  C   1.03176334050005      0.16532979433106      0.50148601588810
  C   -0.39982726876312      0.43447634321475      0.00030928455723
  Br  1.78104143967129      1.73993828487978      1.37232716376822
  H   -0.36221988577271      1.29872657250290     -0.67158619500896
  H   1.02188164297046     -0.62252437297516      1.25914639216890
  C   1.89820821659847     -0.22962655500691     -0.60158129113513
  N   2.56491121679572     -0.55612988357652     -1.51228267046569
  C   -1.25654920586603      0.77807790408454      1.13699116382060
  N   -1.97119111931256      1.01098464077319      2.03909437354935
  C   -0.96753787545911     -0.78130267804894     -0.74284837483144
  H   -1.98990009910654     -0.57518753234541     -1.06266007685004
  H   -0.36634624844032     -1.00449974202972     -1.62516276282943
  H   -0.98423415381562     -1.65826277580355     -0.09223302263170
