13
Coordinates from ORCA-job run
  C   1.11184324006594      0.19375196845101     -0.02374245749690
  C   -0.41956885814075      0.21873369354276      0.13576415009504
  Br  1.75696484636486     -1.53867506761754     -0.64278191050961
  H   -0.65886997239419      1.21955087145636      0.51921325070325
  H   1.39623442024622      0.91048138077052     -0.79831590231690
  C   1.78293423479797      0.54072451146643      1.22203409732965
  N   2.29946489537037      0.84688072170980      2.23200260214227
  C   -0.85302361093668     -0.74873780401543      1.14572879760935
  N   -1.23358771072093     -1.52538677723434      1.93987499526779
  C   -1.15607286269254      0.00613977246677     -1.18828285802499
  H   -0.82054999418467      0.73948154174984     -1.92551016333531
  H   -0.97639423912850     -0.99541836740841     -1.57791135246511
  H   -2.22937438864710      0.13247355466223     -1.03907324899852
