13
Coordinates from ORCA-job run
  C   1.11090065040175      0.19581081353627     -0.00793104172657
  C   -0.42350255625777      0.22087390537420      0.12064731403399
  Br  1.77303599868122     -1.55396864463668     -0.55607088432572
  H   -0.67296714211755      1.23217961089016      0.46833998392395
  H   1.40882151344178      0.88730540319197     -0.80014655113773
  C   1.75598808975165      0.58685963794422      1.23852707966831
  N   2.24961923507457      0.93159643533730      2.24755124251155
  C   -0.87289689018997     -0.71692841499941      1.15137727607711
  N   -1.26028289816571     -1.47163903189073      1.96309708381695
  C   -1.13312127262412     -0.03444060131539     -1.21045907765329
  H   -2.20979418117978      0.08940576647521     -1.08533705978929
  H   -0.94009437732650     -1.04562318032791     -1.56761610288738
  H   -0.78770616948956      0.67956830042079     -1.96197926251187
