13
Coordinates from ORCA-job run
  C   1.03712599513512      0.54640644965125      0.34405369497540
  C   -0.48775400400837      0.48716677643997      0.11286486105567
  Br  1.91000168751554      1.53740605814932     -1.09358447348324
  H   -0.82768683954033      1.51869896727968     -0.03086659149107
  H   1.25529324925400      1.10754056522552      1.25488232646601
  C   1.61858770418108     -0.78548670180503      0.44573741346879
  N   2.06753854010046     -1.86756150183047      0.53657317490908
  C   -1.10193171390399     -0.02063279429209      1.34419691992195
  N   -1.58434024677118     -0.43103670378750      2.33334368793860
  C   -0.89263936534516     -0.36674130461560     -1.08930459957154
  H   -0.57354221416062     -1.40146642459557     -0.95257110066854
  H   -0.44218180335059      0.02738122146642     -2.00066599187882
  H   -1.97747098910593     -0.35267460728593     -1.20365932164231
