13
Coordinates from ORCA-job run
  C   1.03485932277273      0.04953843443481      0.51602884928822
  C   -0.36947206534381      0.46094339203479      0.03505719355671
  Br  1.88702184368298      1.48985899779422      1.51545550444024
  H   -0.26539117155816      1.37510904861044     -0.55975860995981
  H   0.96131968052731     -0.79409577900409      1.20703359089645
  C   1.88229359978009     -0.31848401411611     -0.61010255875526
  N   2.54203550828606     -0.62917235661109     -1.53146550604395
  C   -1.20988075273458      0.76908094550646      1.19379827496805
  N   -1.91499767304592      0.98228095328014      2.10812343553626
  C   -1.01359451324157     -0.64355958749447     -0.81179674412222
  H   -2.01795139715111     -0.34143004037147     -1.11205318928594
  H   -1.09283553086966     -1.57141759739826     -0.24095685736609
  H   -0.42340685110436     -0.82865239666539     -1.71036338315268
