13
Coordinates from ORCA-job run
  C   1.10609169940501      0.22445196958787     -0.00836404747368
  C   -0.41782126474489      0.16216572400089      0.20267508823158
  Br  1.76039482915704     -1.26349888746313     -1.08488264752075
  H   -0.66037965531022      1.01730544876855      0.84751633802646
  H   1.34676273072626      1.12788797539135     -0.57434819140094
  C   1.81818648623161      0.24963361959691      1.26241131031331
  N   2.36504651854131      0.29361345337825      2.30164193131118
  C   -0.79167177589605     -1.05182417030527      0.93087590148879
  N   -1.12049453031625     -2.02493254497037      1.49971694635145
  C   -1.20290232727067      0.28946561926603     -1.10426433885810
  H   -0.91836400203138      1.20766320384778     -1.62396235685249
  H   -1.01270071166454     -0.56144504140264     -1.75787874975837
  H   -2.27214799682724      0.33051363030376     -0.89113718385845
