13
Coordinates from ORCA-job run
  C   1.06379329711610      0.51324819297406      0.31995690894475
  C   -0.46871945004396      0.50027070774644      0.13611220666057
  Br  1.91914559799727      1.50070316657472     -1.13079612581868
  H   -0.78290336136936      1.54283494773296      0.01512487422298
  H   1.32608516678619      1.05470343852376      1.23102752983553
  C   1.60919635989524     -0.83602821388785      0.38260354419510
  N   2.01914617092892     -1.93638290550228      0.42977925602364
  C   -1.05951826343880     -0.00615706458349      1.37919541750679
  N   -1.52403394785405     -0.42320031900082      2.37404083747593
  C   -0.93513879189733     -0.32649518753168     -1.06285171382192
  H   -0.64460304603644     -1.37204968214616     -0.94659203963953
  H   -2.02193011013695     -0.27755397393621     -1.14467693623700
  H   -0.49951962194679      0.06410689303655     -1.98292375934816
