13
Coordinates from ORCA-job run
  C   1.05205829787848      0.52641640842793      0.33480491714001
  C   -0.47872452230548      0.48784828087754      0.14091353594008
  Br  1.89701358610103      1.55503337599776     -1.09309276637089
  H   -0.81113759047433      1.52639889538172      0.03442067761644
  H   1.29826151141311      1.05676555061965      1.25684064173397
  C   1.62295909727052     -0.81306057057630      0.37807756569253
  N   2.05327096452044     -1.90610636181446      0.40983802754791
  C   -1.06830312917020     -0.04730653101401      1.37263440503912
  N   -1.53230741001244     -0.48108055707050      2.36054349263038
  C   -0.92252843434368     -0.32717875269316     -1.07442732398913
  H   -0.61057781260387     -1.36831157237192     -0.97590950345758
  H   -2.00967493999966     -0.29959755790432     -1.16048710975461
  H   -0.49130961827394      0.08917939214007     -1.98515655976819
