16

C	0.0	0.0	0.0
C	-0.477017	0.01416	-1.455353
Br	1.980338	0.0	0.0
H	-0.164177	-0.877166	-1.996286
H	-1.583689	0.086946	-1.354841
N	-0.510764	1.053176	0.820147
H	-0.359383	1.936909	0.344849
H	-1.537359	0.88093	0.792263
C	-0.445042	-1.325055	0.59347
H	-0.132568	-1.363721	1.638115
H	-0.023573	-2.174095	0.050795
H	-1.54317	-1.326379	0.536109
N	0.019404	1.156718	-2.248149
O	-0.201842	2.29805	-1.836522
O	0.621968	0.910372	-3.295492
H	-3.069688	0.0	0.0
