16

C	0.0	0.0	0.0
C	-0.585418	0.008927	-1.394616
Br	2.026451	0.0	0.0
H	-1.696741	-0.100126	-1.183798
H	-0.377929	0.947433	-1.906138
N	-0.427603	1.217558	0.580746
H	-0.320079	1.225242	1.58403
H	0.006957	2.028998	0.165233
C	-0.482052	-1.154858	0.84204
H	-0.14928	-2.10971	0.444303
H	-1.583767	-1.075856	0.804547
H	-0.123424	-1.042574	1.869488
N	-0.097239	-1.053622	-2.286741
O	-0.249028	-2.22796	-1.942241
O	0.410387	-0.708805	-3.360385
H	-3.210627	0.0	0.0
