16

C	0.0	0.0	0.0
C	-0.488031	-0.007308	-1.449013
Br	1.979677	0.0	0.0
H	-1.595095	0.07042	-1.342056
H	-0.189123	-0.911549	-1.975796
N	-0.500873	1.063616	0.814494
H	-1.526761	0.903381	0.800637
H	-0.340086	1.944173	0.336527
C	-0.440081	-1.319944	0.610635
H	-0.018881	-2.171404	0.071716
H	-1.538128	-1.328172	0.560546
H	-0.118033	-1.349962	1.652344
N	0.004622	1.1145	-2.272145
O	-0.158311	2.263118	-1.853084
O	0.540312	0.843917	-3.350692
H	-3.101227	0.0	0.0
