16

C	0.0	0.0	0.0
C	-0.487352	-0.040137	-1.452226
Br	1.969329	0.0	0.0
H	-0.180853	0.862757	-1.982225
H	-1.591132	-0.115665	-1.355378
N	-0.527506	1.174944	0.630213
H	-1.556007	1.013229	0.617841
H	-0.339689	1.991862	0.052771
C	-0.449913	-1.205821	0.801449
H	-0.155174	-1.057727	1.842078
H	-1.546502	-1.229102	0.726438
H	-0.023625	-2.132189	0.420215
N	0.005143	-1.174249	-2.269933
O	-0.386685	-2.307954	-1.983664
O	0.769635	-0.918436	-3.20376
H	-3.099313	0.0	0.0
