15

C	0.0	0.0	0.0
C	-0.50462	-0.037482	-1.459291
Cl	1.776362	0.0	0.0
H	-1.598688	-0.135389	-1.295825
N	-0.566348	1.16561	0.610776
H	-1.601289	0.922206	0.531792
H	-0.290339	1.190822	1.58735
C	-0.372947	-1.270263	0.665384
N	-0.594927	-2.292684	1.200947
C	0.019352	-1.203188	-2.172208
N	0.39505	-2.12918	-2.790096
N	-0.091303	1.197286	-2.140336
H	-0.765066	1.373255	-2.877575
H	-0.216356	1.929347	-1.445001
F	-2.773763	0.0	0.0
