15

C	0.0	0.0	0.0
C	-0.523506	-0.041809	-1.453662
Cl	1.776359	0.0	0.0
H	-1.609096	-0.188888	-1.271178
N	-0.567149	1.158411	0.622325
H	-1.602985	0.918758	0.534662
H	-0.29884	1.169221	1.601322
C	-0.368166	-1.268412	0.674696
N	-0.572936	-2.255989	1.278011
C	0.040122	-1.171781	-2.19365
N	0.441937	-2.072323	-2.83201
N	-0.201929	1.22234	-2.130169
H	-0.979859	1.4296	-2.746401
H	-0.227079	1.924237	-1.393952
F	-2.782927	0.0	0.0
