15

C	0.0	0.0	0.0
C	-0.355899	-0.066543	-1.560342
Cl	1.781832	0.0	0.0
H	0.511022	-0.547463	-2.022638
N	-0.598261	1.116886	0.636072
H	-1.626883	0.914123	0.483606
H	-0.409611	1.071144	1.632869
C	-0.367487	-1.316425	0.574126
N	-0.589458	-2.376117	1.032168
C	-0.366885	1.315927	-2.072823
N	-0.343037	2.380618	-2.567019
N	-1.531561	-0.775529	-1.994958
H	-2.294951	-0.502022	-1.330642
H	-1.354807	-1.765174	-1.860105
F	-2.877544	0.0	0.0
