15

C	0.0	0.0	0.0
C	-0.488238	-0.011945	-1.46421
Cl	1.842813	0.0	0.0
H	-1.589814	-0.053422	-1.263091
N	-0.510779	1.096909	0.746512
H	-0.351549	1.915893	0.164277
H	-1.541201	0.876565	0.688725
C	-0.368666	-1.270172	0.646685
N	-0.554797	-2.313861	1.151232
C	-0.036153	-1.189412	-2.211718
N	0.320369	-2.087262	-2.883376
N	-0.130795	1.247939	-2.103056
H	-0.77633	1.431609	-2.859323
H	0.807153	1.196693	-2.483963
F	-2.737099	0.0	0.0
