15

C	0.0	0.0	0.0
C	-0.493324	-0.303257	-1.459341
Cl	1.785838	0.0	0.0
H	0.39645	-0.438968	-2.078735
N	-0.496491	1.263866	0.453398
H	-1.529382	1.085707	0.412522
H	-0.22071	1.386936	1.422571
C	-0.354531	-1.11569	0.909396
N	-0.517496	-1.905676	1.764543
C	-1.192874	0.867918	-2.037189
N	-1.702085	1.701295	-2.690995
N	-1.278564	-1.522903	-1.494006
H	-1.519193	-1.720659	-2.459245
H	-2.127784	-1.243349	-0.971099
F	-2.708285	0.0	0.0
