15

C	0.0	0.0	0.0
C	-0.322748	-0.292431	-1.482679
Cl	1.846729	0.0	0.0
H	0.227875	0.496362	-2.016727
N	-0.469361	1.29248	0.37075
H	-1.506117	1.099807	0.336435
H	-0.198759	1.468652	1.3331
C	-0.368625	-1.111391	0.895188
N	-0.563128	-1.951642	1.693671
C	-1.723094	-0.163752	-1.93829
N	-2.495508	-0.142678	-2.831956
N	0.12789	-1.642393	-1.830932
H	-0.339892	-1.930577	-2.680172
H	1.125182	-1.632069	-1.998156
F	-2.589713	0.0	0.0
