15

C	0.0	0.0	0.0
C	-0.512827	0.189906	-1.448804
Cl	1.793797	0.0	0.0
H	-1.612429	0.114366	-1.245281
N	-0.522729	0.984717	0.893638
H	-0.359715	1.875394	0.428011
H	-1.55053	0.774621	0.800502
C	-0.388196	-1.345003	0.465474
N	-0.584127	-2.446226	0.825732
C	-0.062498	-0.865944	-2.357892
N	0.307867	-1.65645	-3.145897
N	-0.168845	1.527333	-1.912908
H	-0.866367	1.843262	-2.572887
H	0.738303	1.53021	-2.363652
F	-2.759755	0.0	0.0
