15

C	0.0	0.0	0.0
C	-0.344406	0.051956	-1.514405
Cl	1.789491	0.0	0.0
H	0.188925	0.952732	-1.867492
N	-0.470187	1.103335	0.780592
H	-0.21925	1.959171	0.292759
H	-1.502548	0.94641	0.702022
C	-0.42258	-1.270946	0.606834
N	-0.601097	-2.302519	1.138075
C	-1.758967	0.267455	-1.899227
N	-2.522951	0.505545	-2.770527
N	0.112345	-1.165221	-2.18812
H	-0.343224	-1.225588	-3.089745
H	1.11314	-1.11852	-2.331458
F	-2.601287	0.0	0.0
