15

C	0.0	0.0	0.0
C	-0.441755	-0.137385	-1.497818
Cl	1.832223	0.0	0.0
H	0.465084	-0.302752	-2.085869
N	-0.513685	1.181202	0.601117
H	-1.54766	1.007649	0.498852
H	-0.273974	1.174642	1.587397
C	-0.324898	-1.238691	0.744638
N	-0.464211	-2.160793	1.459411
C	-0.995654	1.146687	-1.98665
N	-1.389601	2.093595	-2.56165
N	-1.313609	-1.280681	-1.690093
H	-1.549294	-1.335795	-2.67439
H	-2.153482	-1.029189	-1.134245
F	-2.726579	0.0	0.0
