15

C	0.0	0.0	0.0
C	-0.507129	-0.087199	-1.453177
Cl	1.824033	0.0	0.0
H	-1.592823	-0.234654	-1.270326
N	-0.559746	1.174095	0.585939
H	-1.598599	0.932768	0.495453
H	-0.303024	1.206466	1.567328
C	-0.343797	-1.2497	0.713295
N	-0.540358	-2.221985	1.343695
C	0.062058	-1.239401	-2.154985
N	0.462151	-2.159872	-2.765658
N	-0.195033	1.156925	-2.16851
H	-0.169274	1.874612	-1.447235
H	-0.9992	1.369977	-2.748483
F	-2.769237	0.0	0.0
