14

C	-0.493242	0.007752	-1.447287
C	0.0	0.0	0.0
Cl	0.164274	1.417003	-2.347917
H	1.095732	0.0	0.0
H	-1.582785	0.114744	-1.502929
C	-0.126525	-1.211495	-2.168252
N	0.107019	-2.191846	-2.771211
C	-0.530744	-1.188871	0.640639
N	-0.981332	-2.140496	1.167545
C	-0.4215	1.254765	0.762192
H	-1.502522	1.442925	0.732854
H	0.109779	2.112692	0.349004
H	-0.11017	1.149747	1.803099
F	2.526301	0.0	0.0
