14

C	-0.238202	0.003039	-1.493766
C	0.0	0.0	0.0
Cl	-1.991764	-0.056494	-1.993006
H	1.097591	0.0	0.0
H	0.220149	-0.888342	-1.924797
C	0.355045	1.181532	-2.125306
N	0.784034	2.131886	-2.664941
C	-0.505976	-1.223803	0.584551
N	-0.908482	-2.210829	1.082945
C	-0.495877	1.244598	0.720911
H	-1.577029	1.391419	0.629389
H	0.024138	2.116717	0.318023
H	-0.23807	1.170964	1.779306
F	2.51268	0.0	0.0
