14

C	-0.493001	0.008051	-1.44738
C	0.0	0.0	0.0
Cl	0.16468	1.417562	-2.3475
H	1.095689	0.0	0.0
H	-1.582542	0.115056	-1.503212
C	-0.126078	-1.21105	-2.168507
N	0.107959	-2.191378	-2.771328
C	-0.530698	-1.188961	0.640534
N	-0.980764	-2.139132	1.170526
C	-0.421723	1.254476	0.762544
H	-1.5026	1.442736	0.732703
H	-0.111078	1.14908	1.803579
H	0.109868	2.112358	0.349953
F	2.526252	0.0	0.0
