14

C	-0.492169	0.005877	-1.447735
C	0.0	0.0	0.0
Cl	0.161964	1.416188	-2.349167
H	1.095744	0.0	0.0
H	-1.581981	0.109548	-1.504505
C	-0.12096	-1.212938	-2.167163
N	0.115858	-2.193227	-2.768935
C	-0.529924	-1.188951	0.641211
N	-0.979313	-2.139061	1.171815
C	-0.423026	1.254581	0.761453
H	0.106439	2.113298	0.347363
H	-0.110653	1.150436	1.802177
H	-1.504436	1.44079	0.732849
F	2.526226	0.0	0.0
