12
Coordinates from ORCA-job run
  C   -0.57901428848273     -0.18529072710658     -0.28154189990441
  C   0.57884642944707      0.18507683217020      0.28140813931931
  H   -0.54841572589639     -0.80540884920190     -1.17845614062195
  H   0.54825062635689      0.80515584177359      1.17834962783844
  C   -1.93650069884639      0.19128282126875      0.23213597833893
  H   -2.50246562768571      0.74981836875534     -0.51952358840441
  H   -1.86018912420336      0.81010217949981      1.12883671330579
  H   -2.52555357805486     -0.69670208351056      0.48063572595564
  C   1.93633280801198     -0.19149971389664     -0.23226857119573
  H   2.52546717500084      0.69666966731248     -0.47994901195490
  H   2.50220670713925     -0.75073371596851      0.51892856932155
  H   1.86003529721342     -0.80947062109598     -1.12955554199826
