17

C	0.0	0.0	0.0
C	-0.678934	-0.016829	-1.372446
Br	1.956466	0.0	0.0
H	-1.823622	-0.0267	-0.952233
C	-0.436383	1.261621	0.741472
H	-0.078735	2.161873	0.236099
H	-1.529242	1.234661	0.758215
H	-0.036291	1.251101	1.758206
C	-0.43509	-1.246931	0.766722
H	-0.084009	-2.157053	0.274699
H	-0.028795	-1.220591	1.780472
H	-1.527612	-1.214111	0.78687
C	-0.377938	-1.209139	-2.146893
N	-0.146007	-2.185292	-2.761288
C	-0.435597	1.179338	-2.159821
N	-0.260956	2.160977	-2.784193
F	-2.905795	0.0	0.0
