17

C	0.0	0.0	0.0
C	-0.432511	0.489285	-1.410053
Br	1.964673	0.0	0.0
H	0.286449	0.064047	-2.120117
C	-0.466729	0.896222	1.131476
H	-0.132405	0.479072	2.084487
H	-1.562472	0.875029	1.05811
H	-0.068511	1.908547	1.03332
C	-0.453738	-1.439682	0.19271
H	-1.548481	-1.371666	0.23597
H	-0.127548	-2.072924	-0.638369
H	-0.037788	-1.841214	1.119963
C	-0.311155	1.945961	-1.537663
N	-0.179678	3.107491	-1.654986
C	-1.754281	0.048082	-1.927787
N	-2.437348	-0.284272	-2.831105
F	-2.799368	0.0	0.0
