17

C	0.0	0.0	0.0
C	-0.666946	2.3e-05	-1.378926
Br	1.957635	0.0	0.0
H	-1.807759	-0.000273	-0.97757
C	-0.434268	1.256163	0.749349
H	-0.056681	1.22275	1.774441
H	-1.527685	1.240225	0.742587
H	-0.049009	2.157924	0.267086
C	-0.434269	-1.256175	0.749324
H	-0.056675	-1.222789	1.774414
H	-1.527686	-1.240221	0.742573
H	-0.049027	-2.15793	0.267037
C	-0.382882	-1.198568	-2.149778
N	-0.165336	-2.188082	-2.748751
C	-0.383761	1.199234	-2.149351
N	-0.167921	2.188594	-2.746782
F	-2.903154	0.0	0.0
