17

C	0.0	0.0	0.0
C	-0.689525	0.064066	-1.363908
Br	1.954139	0.0	0.0
H	-1.839124	0.018845	-0.932811
C	-0.428603	1.215839	0.820549
H	-1.520752	1.197088	0.840166
H	-0.065922	2.142945	0.370778
H	-0.024726	1.140445	1.832821
C	-0.423478	-1.293122	0.696576
H	-0.072109	-2.169758	0.147143
H	-1.514918	-1.273359	0.734644
H	-0.003272	-1.325784	1.704491
C	-0.368878	-1.067175	-2.215087
N	-0.086729	-1.988977	-2.88957
C	-0.469594	1.310095	-2.076215
N	-0.3029	2.317773	-2.658786
F	-2.909624	0.0	0.0
