15

C	0.0	0.0	0.0
C	-0.43509	0.047782	-1.509069
Br	1.949065	0.0	0.0
H	0.476794	0.04835	-2.115446
H	-0.351597	-0.873129	0.524995
N	-0.38271	1.184359	0.830147
O	-0.606947	0.963192	2.012392
O	-0.331546	2.299252	0.31646
N	-1.315143	1.045683	-1.991269
H	-2.091122	0.986733	-1.311064
H	-0.847816	1.938684	-1.916968
N	-1.022066	-1.331136	-1.798833
O	-0.447853	-2.280556	-1.263388
O	-1.926981	-1.431899	-2.60919
F	-2.37971	0.0	0.0
