15

C	0.0	0.0	0.0
C	-0.666468	0.231287	-1.340019
Br	1.917208	0.0	0.0
H	-1.744051	0.440233	-0.959072
H	-0.350552	-0.95414	0.376978
N	-0.439416	0.9874	1.059614
O	-0.436309	0.559349	2.210179
O	-0.711486	2.126539	0.718473
N	-0.732205	-0.958276	-2.137888
H	0.07395	-1.556528	-1.99733
H	-1.570676	-1.448802	-1.853976
N	-0.15677	1.3725	-2.156623
O	0.689676	2.135068	-1.686545
O	-0.684435	1.523694	-3.257568
F	-2.729639	0.0	0.0
