15

C	0.0	0.0	0.0
C	-0.457494	0.412729	-1.415752
Br	1.947689	0.0	0.0
H	0.416771	0.465202	-2.073639
H	-0.32851	-0.998382	0.239533
N	-0.397879	0.850251	1.171168
O	-0.617717	0.227862	2.204709
O	-0.359529	2.067989	1.066805
N	-1.220077	1.58884	-1.515519
H	-1.494709	1.701336	-2.482915
H	-2.040443	1.34502	-0.934359
N	-1.174805	-0.835817	-2.018287
O	-1.988593	-0.611712	-2.906947
O	-0.772576	-1.952035	-1.704487
F	-2.417658	0.0	0.0
