15

C	0.0	0.0	0.0
C	-0.466106	0.4771	-1.397736
Br	1.91947	0.0	0.0
H	0.409662	0.587791	-2.047678
H	-0.344782	-1.00249	0.201125
N	-0.408116	0.806273	1.202299
O	-0.630553	0.145102	2.21113
O	-0.370841	2.027573	1.142808
N	-1.25502	1.637196	-1.441433
H	-2.073152	1.345802	-0.8737
H	-1.52763	1.798066	-2.402711
N	-1.147404	-0.761342	-2.061524
O	-0.683831	-1.872841	-1.823182
O	-1.997185	-0.528084	-2.910812
F	-2.44444	0.0	0.0
