14

C	-0.402971	-0.210304	-1.455874
C	0.0	0.0	0.0
F	-1.743961	-0.688034	-1.490702
H	1.090923	0.0	0.0
H	-0.335218	-0.871886	0.564599
N	-0.336989	1.010876	-2.196397
H	-0.982045	1.691595	-1.811376
H	-0.595973	0.831691	-3.159443
N	0.416393	-1.257794	-1.977461
H	1.388578	-1.060619	-1.747972
H	0.321501	-1.314442	-2.984387
C	-0.568683	1.207806	0.573264
N	-1.060092	2.180795	1.009215
Cl	3.369605	0.0	0.0
