14

C	-0.552886	0.071133	-1.420293
C	0.0	0.0	0.0
F	0.104661	-0.940969	-2.140933
H	1.090933	0.0	0.0
H	-0.305597	-0.944561	0.466031
N	-1.968085	-0.155735	-1.428304
H	-2.187958	-0.996409	-0.907347
H	-2.269058	-0.285882	-2.388453
N	-0.247927	1.318845	-2.058205
H	-1.090145	1.866721	-2.216472
H	0.284969	1.178052	-2.905176
C	-0.514794	1.105517	0.799815
N	-0.963166	1.962557	1.460643
Cl	3.455348	0.0	0.0
