14

C	-0.463335	0.060052	-1.454991
C	0.0	0.0	0.0
F	-1.849645	-0.272215	-1.450398
H	1.094128	0.0	0.0
H	-0.335565	-0.953182	0.418358
N	-0.230323	1.326904	-2.025358
H	-0.56736	1.332201	-2.978206
H	-0.647911	2.071645	-1.484783
N	0.158168	-0.929597	-2.291974
H	1.164527	-0.800338	-2.21525
H	-0.064374	-1.847011	-1.923291
C	-0.539748	1.084565	0.809406
N	-0.994648	1.973545	1.427481
Cl	3.373279	0.0	0.0
