14

C	-0.380045	-0.114282	-1.481951
C	0.0	0.0	0.0
F	-1.72482	-0.559955	-1.555763
H	1.092172	0.0	0.0
H	-0.366306	0.928247	0.446576
N	-0.221718	1.141751	-2.114218
H	-0.401793	1.02876	-3.103317
H	-0.846349	1.829134	-1.715976
N	0.391906	-1.080185	-2.212731
H	0.21749	-1.996774	-1.815697
H	1.374737	-0.862882	-2.053806
C	-0.49266	-1.138656	0.76495
N	-0.889822	-2.059961	1.374114
Cl	3.376737	0.0	0.0
