14

C	-0.376862	0.033699	-1.488224
C	0.0	0.0	0.0
F	-0.057622	-1.258337	-1.949364
H	1.09376	0.0	0.0
H	-0.362464	-0.916862	0.471965
N	-1.751174	0.328288	-1.704436
H	-1.93185	0.266098	-2.699051
H	-2.33331	-0.33638	-1.211187
N	0.408884	0.932655	-2.280198
H	0.206615	1.879208	-1.980669
H	1.391326	0.748737	-2.08464
C	-0.497729	1.16742	0.714397
N	-0.90971	2.103811	1.290398
Cl	3.375601	0.0	0.0
