11
Coordinates from ORCA-job run
  C   0.76713957850737     -0.58055316764285     -0.64208005048974
  C   -0.32325692643602     -0.14373333244291      0.03556350499401
  H   0.73554183216938     -1.59619470498138     -1.02742842007568
  C   1.95812359317124      0.14552797801734     -0.89128948206334
  N   2.99351434114342      0.64967817993218     -1.13877064390073
  N   -1.49299760032495     -0.81590095760700      0.22431884792757
  H   -2.02957073431163     -0.50813422661833      1.02143353685617
  H   -1.46112264640904     -1.81285329686215      0.08438668605458
  N   -0.36698191697793      1.21640634467297      0.62352269569583
  O   0.40736609825638      2.05747120996654      0.18448300718977
  O   -1.18875561878822      1.38828597356558      1.52486031781157
