11
Coordinates from ORCA-job run
  C   0.91059013383314      0.17059386887887     -0.72106113758759
  C   -0.16205327432545      0.14437584154820      0.10946380024489
  H   1.15067011515579      1.06941088687648     -1.27107478469359
  C   1.70721913054646     -0.99393331943526     -0.84548828255198
  N   2.32796294256843     -1.99342724460203     -0.91502725935682
  N   -0.56852825588703     -0.84170082705252      0.94300135987645
  H   -1.52854109151892     -0.79601225168967      1.24588833392240
  H   -0.18208681412559     -1.75930155643835      0.78278448701512
  N   -1.00053233625343      1.36518822853177      0.19993280696045
  O   -0.58704656765964      2.38809515079046     -0.33236695558443
  O   -2.06765398233376      1.24771122259205      0.80294763175510
