11
Coordinates from ORCA-job run
  C   0.88783011087868     -0.66590410223703     -0.32799165075616
  C   -0.32528653679440     -0.14165083664201     -0.02321522669802
  H   0.92657754599615     -1.73113306619770     -0.53944443353924
  C   2.12158479518810      0.02857105909002     -0.38504456607965
  N   3.19860613851197      0.50187792717299     -0.44422393743418
  N   -1.52124723311776     -0.79318531591471     -0.02225290764387
  H   -1.48207899879411     -1.79868028041655      0.01845844292147
  H   -2.23303659967244     -0.36389630645311      0.54938125088818
  N   -0.47966696420415      1.29594223952870      0.30394796689603
  O   0.40128383183964      2.06561982037369     -0.05890537571311
  O   -1.49656608983169      1.60143886169573      0.92829043715854
