11
Coordinates from ORCA-job run
  C   0.98667503056382      0.24567001279371     -0.58724675460622
  C   -0.19720412706482      0.12636052175212      0.06499785353341
  H   1.37288881698532      1.22314219500291     -0.83893803772945
  C   1.69435480533100     -0.92971988862237     -0.93869470425901
  N   2.24092720874830     -1.94115534315777     -1.19838321358060
  N   -0.88535184408289     -0.99629455753718      0.38011576414951
  H   -1.57265003006137     -0.90194806009583      1.11102283070510
  H   -0.37709612223267     -1.86633715220090      0.33904436838213
  N   -0.90629251740594      1.37116784691662      0.45144774747299
  O   -0.48600828039345      2.43360961632914      0.00963178412744
  O   -1.86824294038730      1.23550480881955      1.20800236180470
