11
Coordinates from ORCA-job run
  C   1.10316640590344      0.23993327707979     -0.32027219254698
  C   -0.20314958818901      0.13079661524116      0.03004861138210
  H   1.57341121843155      1.21159125047721     -0.37369674971777
  C   1.83148187177889     -0.93757038753361     -0.61936721814610
  N   2.39017353151478     -1.94943112975074     -0.84976888088651
  N   -0.98557332010120     -0.97362145308773      0.06443000200796
  H   -1.81941012634479     -0.90487191801817      0.62619685141433
  H   -0.51322903648365     -1.86459010116224      0.05390037658773
  N   -0.93721095962002      1.37447878425256      0.37075956273447
  O   -0.38920555262749      2.44641076332720      0.14435726136196
  O   -2.05145444426249      1.22687429917456      0.87341237580882
