11
Coordinates from ORCA-job run
  C   0.95164552470498     -0.57624043644400     -0.31802378739146
  C   -0.25784263043764     -0.18768961111043      0.15678081629510
  H   1.13895612732514     -1.64504561677574     -0.37740577818381
  C   2.00070254445197      0.26782490918348     -0.75933930231351
  N   2.92635418618282      0.87368041419054     -1.16375538340419
  N   -1.24567910364680     -0.99302322442120      0.63692229951579
  H   -2.16858079084871     -0.58646439343578      0.61085570846662
  H   -1.19398213508751     -1.96512098474952      0.37888275884348
  N   -0.61874365921933      1.24687060370127      0.25518970302701
  O   0.28926972355613      2.06874240454954      0.26136418350508
  O   -1.82309978698105      1.49746593531185      0.31752878163991
