11
Coordinates from ORCA-job run
  C   1.11480375206273      0.20184912158423     -0.30361081528453
  C   -0.19719323722305      0.13757321248981      0.03660117998346
  H   1.62751649704224      1.15326593361588     -0.31264527398981
  C   1.79061293709008     -0.99136221262178     -0.65765158305158
  N   2.30574149329764     -2.01375222404325     -0.93803067230576
  N   -1.02960405475602     -0.92974391212618      0.01979101477492
  H   -0.59961896090343     -1.84056942182565     -0.02947732610215
  H   -1.86508258729484     -0.84696239687554      0.57707610974236
  N   -0.87462203952068      1.39778096514235      0.43097040176976
  O   -1.99863635969991      1.28005587646213      0.91953992408717
  O   -0.27491744009475      2.45186505819800      0.25843704037616
