11
Coordinates from ORCA-job run
  C   0.93614370872117      0.27360165633767     -0.65156340764853
  C   -0.16640886498081      0.11930318882967      0.12545637034225
  H   1.20925853969054      1.26128694794568     -0.99703735013324
  C   1.71792193812470     -0.85847678352992     -0.98022233283898
  N   2.33054906557262     -1.83388952917796     -1.23125462264956
  N   -0.63728881086377     -0.99374004361431      0.72788302153077
  H   -0.23038918715172     -1.87778228595529      0.47126541249097
  H   -1.58763880881335     -0.97417969059661      1.05888789758479
  N   -0.98146492986382      1.32907303841303      0.41565566904008
  O   -2.04935009156525      1.13691895705820      0.99675859362994
  O   -0.54233255887029      2.41688454428983      0.06417074865151
