11
Coordinates from ORCA-job run
  C   0.77008295371685     -0.59197233647778     -0.62908677972058
  C   -0.32547384531333     -0.13935471250520      0.02990094128219
  H   0.72956908429334     -1.60673075648931     -1.01593663061976
  C   1.97648669859335      0.11574930718364     -0.85549137009718
  N   3.02359272529203      0.60384949531223     -1.08535702672736
  N   -1.50688491402108     -0.79483567101251      0.20002437077270
  H   -1.48889690122859     -1.79234700185899      0.06318661529207
  H   -2.05701061929052     -0.47406641802520      0.98230433434251
  N   -0.35993277158796      1.22170276966760      0.61653932515791
  O   -1.19770200103469      1.40763133478788      1.50014106771125
  O   0.43616959058060      2.05037398941763      0.19277515260627
