11
Coordinates from ORCA-job run
  C   0.91095882062289      0.20130072327361     -0.71283812986048
  C   -0.15273108943735      0.13918135560807      0.12765433471470
  H   1.19575726980606      1.14275328078442     -1.16099951678437
  C   1.64056725564290     -0.98289264062265     -0.98053211113203
  N   2.20652052016968     -1.99910233441365     -1.17074799644742
  N   -0.60555625908585     -0.91184716073490      0.85004488068432
  H   -0.27085411917758     -1.82532116500258      0.58496228215346
  H   -1.55667254830702     -0.84748512444368      1.17637495047107
  N   -0.92145038909571      1.38548360762579      0.36869267926424
  O   -1.98603072379500      1.25831384748716      0.97406891719747
  O   -0.45950873734302      2.43761561043842     -0.05568029026096
