11
Coordinates from ORCA-job run
  C   0.83376525697064     -0.65619893165934     -0.47027769316924
  C   -0.31365386654276     -0.13879253744653      0.03051131051046
  H   0.73463012734390     -1.62141487292281     -0.95640688741688
  C   2.02165462917313      0.05417410364327     -0.76948852005572
  N   3.01862960543411      0.56559408399931     -1.12410278370673
  N   -1.50838288105654     -0.76661947648554      0.14352709645813
  H   -2.14056521810362     -0.37457509596915      0.81239111328621
  H   -1.50463229118238     -1.77093821453865      0.06705247604063
  N   -0.35350834742900      1.21252404847783      0.61624644918286
  O   0.47682357809044      2.04157160676760      0.23946362071103
  O   -1.26476059269792      1.45367528613400      1.41108381815926
