11
Coordinates from ORCA-job run
  C   0.78185119650844     -0.59852181033314     -0.60707300863026
  C   -0.32237403452243     -0.14532212358037      0.03675936797598
  H   0.76499424930093     -1.62893788696392     -0.95189287073111
  C   1.97037140829187      0.12767557612409     -0.86735988662495
  N   3.00542751903933      0.62986950769969     -1.12035271650251
  N   -1.48772930855216     -0.82094019345063      0.23742671276867
  H   -1.44531237891914     -1.82249106702487      0.14067669992734
  H   -2.04122076983075     -0.48339782970536      1.01037812036491
  N   -0.38730212655699      1.23736449715819      0.56758584222637
  O   -1.22549483605893      1.43882860451153      1.44740910244928
  O   0.38678908129983      2.06687272556480      0.10644263677630
