11
Coordinates from ORCA-job run
  C   1.10784281412641      0.25283615802522     -0.29228147936730
  C   -0.18127777147317      0.11935389756998      0.10940102406161
  H   1.56943018653725      1.22975282861523     -0.32043280524876
  C   1.83268641824478     -0.90608144168855     -0.66321263973074
  N   2.38564897222297     -1.90166951014811     -0.96696592981031
  N   -0.90104677915577     -1.01116328266880      0.30020068520865
  H   -1.90261119754563     -0.89977997878772      0.30721757628101
  H   -0.53668478032685     -1.85611557756936     -0.11237934315694
  N   -0.92995503141200      1.35157015864535      0.46176733788959
  O   -0.30325261522717      2.40041545051341      0.54910079909634
  O   -2.14278021599082      1.22088129749335      0.62858477477686
