11
Coordinates from ORCA-job run
  C   0.82147775866567     -0.63182017766721     -0.51375491148202
  C   -0.31303578894520     -0.15715846837961      0.05806046848164
  H   0.86837355099042     -1.70072473961375     -0.70435067444451
  C   1.96726570651494      0.11867949219984     -0.87650210723816
  N   2.97282421177228      0.63967213735491     -1.20043322527160
  N   -1.43774653772940     -0.86529320190274      0.35388022058283
  H   -1.33868752091613     -1.86650959496180      0.39760428850033
  H   -2.01929953062551     -0.45478970535769      1.06859865473415
  N   -0.46455289923966      1.28099670504465      0.38376677770912
  O   0.26366236726795      2.08024285101412     -0.19151281181988
  O   -1.32128131775536      1.55670470226926      1.22464332024810
