11
Coordinates from ORCA-job run
  C   1.12845034839798      0.17067455437315     -0.27566920423081
  C   -0.19852135031081      0.14097440530528      0.00670391352320
  H   1.64107033158111      1.11613777463445     -0.38252768641287
  C   1.82037257908580     -1.05502280612404     -0.43410549955197
  N   2.34529471318405     -2.10428526370526     -0.54678286604679
  N   -1.02762535562600     -0.92591942497298      0.08519891924831
  H   -0.59547687673913     -1.83348741042309      0.16627254799901
  H   -1.88827357259341     -0.78068146486773      0.58894908947207
  N   -0.89584894852841      1.43554665493749      0.20583356108219
  O   -0.28963857629947      2.46361214092199     -0.06988911211837
  O   -2.04080329215173      1.37245083992075      0.65401633703604
