11
Coordinates from ORCA-job run
  C   0.79526426879247     -0.54122731471901     -0.64249354111408
  C   -0.30144268726621     -0.17586278964640      0.06688755715946
  H   0.72186386278204     -1.44961836714648     -1.23443532814653
  C   2.03240714494024      0.14689173318539     -0.70595627215544
  N   3.09131019722026      0.64372384556688     -0.84548569576982
  N   -1.47046240691691     -0.86505634918984      0.17877837085708
  H   -1.64486363559255     -1.56679574160291     -0.52210168886469
  H   -2.26751900934356     -0.30404201520364      0.43874098977262
  N   -0.30906958510228      1.06052452083114      0.88494796141813
  O   -1.41900861047106      1.51232110597537      1.16958451116468
  O   0.76952046095755      1.54014137194950      1.21153313567859
