11
Coordinates from ORCA-job run
  C   0.84905823584142     -0.59342215099858     -0.51620473422409
  C   -0.28060780195956     -0.18597106855447      0.11406566417346
  H   0.87102363526295     -1.61808962382338     -0.87751437142513
  C   2.00573374011100      0.18441306290762     -0.77061220168813
  N   3.00559312414364      0.74240553742385     -1.04708479513423
  N   -1.37090193898638     -0.94553733379009      0.41237151599878
  H   -2.22221920726221     -0.42259105374480      0.55187813962151
  H   -1.47088996259742     -1.80507846891260     -0.10283237858704
  N   -0.41898672185049      1.20038117204635      0.62043916819371
  O   0.60286084183685      1.85083156424449      0.80167861458531
  O   -1.57066394453981      1.59165836320161      0.81481537848585
