11
Coordinates from ORCA-job run
  C   0.81672836873184      0.20635540671171     -0.81755339743949
  C   -0.15432399196271      0.13824033768448      0.12779602055789
  H   0.96037880724746      1.11440830387659     -1.38579986912005
  C   1.63998493456453     -0.92576861788923     -1.03391732360679
  N   2.28983290081827     -1.89887049454344     -1.17501679065216
  N   -0.42631242005322     -0.86304422784030      0.99714087140589
  H   -0.02080309709316     -1.76381720426459      0.79440999199849
  H   -1.34832956213023     -0.85664373047073      1.40369418029727
  N   -1.02630975390711      1.32396316477453      0.31515629990548
  O   -0.71591418623500      2.36248345732355     -0.25565717186857
  O   -2.01593199998067      1.16269360463743      1.02974718852203
