11
Coordinates from ORCA-job run
  C   0.70201583998202     -0.46898061559342     -0.79300813155783
  C   -0.27218009662364     -0.20226748778028      0.11130696985208
  H   0.58595053610113     -1.36457400331800     -1.39807503542947
  C   1.85405235877998      0.31317875345895     -1.05186363628599
  N   2.84040051753292      0.88532970818180     -1.34737958922018
  N   -1.35659561609199     -0.97128571991595      0.40279638464668
  H   -1.61164403011271     -1.66580915661128     -0.28034852228979
  H   -2.12450093519195     -0.47475129603703      0.82827240638122
  N   -0.21282999405551      1.01419088642159      0.96053042550353
  O   0.87297211298548      1.56272786568338      1.10147934740388
  O   -1.27664069330573      1.37224106551023      1.46528938099586
