11
Coordinates from ORCA-job run
  C   1.00980528199733      0.14599411049044     -0.58101436305991
  C   -0.18353802969149      0.14554672928597      0.06501323826562
  H   1.49857768067235      1.07985326781427     -0.81991358442660
  C   1.59191150542248     -1.09407695567784     -0.94083690919601
  N   2.03053504322661     -2.15467577869045     -1.20902628530173
  N   -0.98703036595905     -0.90128591298408      0.36653368653961
  H   -1.66646821741976     -0.74188831345807      1.09341350248282
  H   -0.57384053936123     -1.81992230197107      0.31843477453526
  N   -0.75931427855440      1.45430417027814      0.46180941839740
  O   -0.22752484565067      2.47082308229740      0.03242981910732
  O   -1.73311323468216      1.41332790261529      1.21415670265622
