11
Coordinates from ORCA-job run
  C   1.09146964468096      0.21411932184841     -0.37597695681224
  C   -0.16230586112828      0.12101884286988      0.13454613786435
  H   1.61023867536751      1.16225279990538     -0.37589582990703
  C   1.70564534353020     -0.95183990936796     -0.89539209493033
  N   2.16294279090999     -1.95195989985673     -1.31940984292933
  N   -0.93085255762759     -0.97979409028508      0.30780302465086
  H   -0.65722380388960     -1.80929937237373     -0.19614407434923
  H   -1.91890746786992     -0.81491588728955      0.41699694234305
  N   -0.79923501053052      1.36108877950118      0.64360566132123
  O   -1.99870280276626      1.28503886348617      0.91083530347781
  O   -0.10306895067649      2.36329055156204      0.75003172927087
