11
Coordinates from ORCA-job run
  C   1.12439669629740      0.17044160531756     -0.29044282367704
  C   -0.16143316774818      0.11716314202752      0.13995138464874
  H   1.70757672576559      1.06962685927578     -0.15053747090778
  C   1.68480768984375     -0.97112384737660     -0.91404432191376
  N   2.09521614006734     -1.94732875788149     -1.43138182833216
  N   -1.01480371046311     -0.93350356728718      0.14187477013467
  H   -1.99414310861926     -0.70860452655362      0.21807939205194
  H   -0.76940509903516     -1.71903480718189     -0.44087942796617
  N   -0.73792880285187      1.33630531817345      0.75840172853231
  O   -1.95340227295750      1.32257224139111      0.95472551934597
  O   0.01911890970101      2.26448634009536      1.01525307808327
