11
Coordinates from ORCA-job run
  C   0.90224842923047     -0.66033594434475     -0.29603067276032
  C   -0.32257284069988     -0.14901501588149     -0.01763867894306
  H   0.96483748569642     -1.73293429448755     -0.45943733998247
  C   2.12134157147084      0.05645680456919     -0.38386480851132
  N   3.18951187178422      0.54634133203852     -0.46563471419173
  N   -1.50464333693114     -0.82466142636958      0.01055722373874
  H   -1.44434611234028     -1.82657907139286      0.09283977827467
  H   -2.22559119506637     -0.38665426040515      0.56378070538519
  N   -0.50745000006765      1.29810136609679      0.24649639191040
  O   0.35852242697221      2.06927398240166     -0.14774122382385
  O   -1.53185830004883      1.60900652777522      0.85567333890375
