18

C	0.0	0.0	0.0
C	-0.44193	-0.090478	-1.463072
Br	1.94641	0.0	0.0
H	-1.536805	-0.078891	-1.39358
N	-0.607856	1.199213	0.624194
O	-0.288626	1.424928	1.821431
O	-1.787172	1.432235	0.108615
C	-0.488877	-1.176507	0.810294
H	-0.16132	-2.119388	0.379248
H	-1.592556	-1.115281	0.766836
H	-0.160511	-1.056869	1.843105
N	-0.055311	-1.386336	-2.029611
H	0.943003	-1.379619	-2.215124
H	-0.532103	-1.487272	-2.91917
N	-0.011661	1.09348	-2.193681
H	0.967257	1.001494	-2.441479
H	-0.556431	1.174495	-3.044438
H	-2.94127	0.0	0.0
