18

C	0.0	0.0	0.0
C	-0.329231	-0.020671	-1.541001
Br	1.951162	0.0	0.0
H	-1.413473	0.079992	-1.567576
N	-0.680745	1.1392	0.666447
O	-0.70884	2.235446	0.029789
O	-0.67377	1.107949	1.926149
C	-0.289476	-1.292965	0.77185
H	-1.365583	-1.407632	0.883047
H	0.109838	-2.13847	0.215756
H	0.175473	-1.22834	1.755872
N	0.004336	-1.325969	-2.102716
H	-0.282742	-1.272493	-3.0767
H	1.018085	-1.417722	-2.111977
N	0.214646	1.062336	-2.357287
H	1.22822	1.047836	-2.285871
H	-0.090837	1.920205	-1.903027
H	-2.202529	0.0	0.0
