18

C	0.0	0.0	0.0
C	-0.652884	0.16499	-1.391078
Br	1.936736	0.0	0.0
H	-1.644709	0.576074	-1.121104
N	-0.311805	1.274375	0.81401
O	-0.39461	1.170165	2.03147
O	-0.397862	2.33456	0.198592
C	-0.539002	-1.18439	0.751011
H	-0.269069	-2.08638	0.203411
H	-1.635809	-1.048617	0.754737
H	-0.148246	-1.221439	1.766498
N	-0.818815	-1.160243	-1.983987
H	-0.990331	-0.974144	-2.967071
H	-1.701203	-1.508245	-1.605649
N	0.007358	1.022174	-2.350582
H	0.979003	0.739951	-2.435683
H	-0.00914	1.965863	-1.987096
H	-3.262321	0.0	0.0
