18

C	0.0	0.0	0.0
C	-0.229688	0.001348	-1.568434
Br	1.956186	0.0	0.0
H	0.399326	-0.840943	-1.894794
N	-0.708796	1.071062	0.705286
O	-0.725105	0.959317	1.970196
O	-0.742527	2.207208	0.149925
C	-0.246921	-1.358915	0.693368
H	-1.307127	-1.487542	0.933218
H	0.091433	-2.165583	0.030005
H	0.334951	-1.393152	1.618209
N	0.313762	1.212759	-2.175839
H	0.063196	1.209926	-3.157808
H	-0.181227	1.977564	-1.719528
N	-1.602877	-0.210229	-2.046912
H	-1.538407	-0.361888	-3.051081
H	-1.997123	-1.050216	-1.627372
H	-1.998692	0.0	0.0
