12

C	-0.392293	0.032015	-1.460366
C	0.0	0.0	0.0
F	-1.766759	-0.063089	-1.642635
H	1.103773	0.0	0.0
H	0.083043	-0.79871	-1.986117
H	-0.056604	0.976141	-1.89955
C	-0.497751	-1.221313	0.63529
N	-0.891124	-2.202089	1.146465
N	-0.537981	1.174863	0.715232
H	-0.248769	1.089118	1.684918
H	-0.019934	1.974446	0.358865
Br	3.514476	0.0	0.0
