12

C	-0.518835	0.100558	-1.425858
C	0.0	0.0	0.0
F	-0.367129	-1.097521	-2.106785
H	1.093726	0.0	0.0
H	-1.583692	0.355725	-1.424702
H	0.051124	0.874043	-1.940952
C	-0.501451	-1.213636	0.657593
N	-0.963221	-2.129541	1.230467
N	-0.404448	1.228776	0.696108
H	-1.255958	1.085273	1.224164
H	0.332885	1.480309	1.341558
Br	3.497555	0.0	0.0
