12

C	-0.380979	-0.012293	-1.467278
C	0.0	0.0	0.0
F	-1.766655	0.125699	-1.615445
H	1.096463	0.0	0.0
H	-0.081345	-0.942067	-1.954026
H	0.091361	0.838602	-1.962682
C	-0.508049	-1.20808	0.663253
N	-0.921102	-2.189196	1.157941
N	-0.456431	1.186208	0.719629
H	0.221299	1.925261	0.577548
H	-1.354883	1.479185	0.354675
Br	3.488579	0.0	0.0
