12

C	-0.521604	0.065618	-1.426277
C	0.0	0.0	0.0
F	-0.189368	-1.077071	-2.133527
H	1.099755	0.0	0.0
H	-0.068769	0.925311	-1.928643
H	-1.610296	0.165748	-1.415581
C	-0.511474	-1.194437	0.668977
N	-0.964876	-2.125804	1.221444
N	-0.499526	1.215857	0.68802
H	0.217781	1.922524	0.549687
H	-0.50888	1.037596	1.685376
Br	3.528669	0.0	0.0
