12

C	-0.517501	0.011454	-1.428886
C	0.0	0.0	0.0
F	-0.349188	-1.22294	-2.03646
H	1.099749	0.0	0.0
H	-1.585211	0.254399	-1.443437
H	0.045753	0.760099	-1.989142
C	-0.502961	-1.170309	0.730566
N	-0.980571	-2.050255	1.345164
N	-0.40275	1.269319	0.618517
H	-1.245862	1.158708	1.165818
H	0.341685	1.56858	1.236112
Br	3.50284	0.0	0.0
