12

C	-0.501296	-0.00255	-1.433016
C	0.0	0.0	0.0
F	-0.152748	1.200164	-2.037947
H	1.101138	0.0	0.0
H	-1.592077	-0.077292	-1.457254
H	-0.037858	-0.81459	-1.996175
C	-0.476826	-1.231385	0.637738
N	-0.878817	-2.219138	1.128977
N	-0.562866	1.16603	0.701101
H	-0.08793	1.231326	1.596214
H	-0.250131	1.97344	0.170973
Br	3.543724	0.0	0.0
