12

C	-0.415871	0.016569	-1.44997
C	0.0	0.0	0.0
F	-1.811167	0.040102	-1.555131
H	1.095627	0.0	0.0
H	-0.026989	0.925951	-1.908594
H	-0.052835	-0.868467	-1.97612
C	-0.479799	-1.23034	0.659198
N	-0.871734	-2.181169	1.227356
N	-0.457493	1.217562	0.661932
H	0.042837	1.324582	1.537375
H	-1.449774	1.151265	0.861292
Br	3.513677	0.0	0.0
