16
Coordinates from ORCA-job run
  C   0.76794655917107     -0.05117886968720      0.07074842253521
  C   -0.73363309416652      0.26957855065538      0.13103121476559
  Cl  1.02082374964998     -1.83534502703765      0.29122295477504
  H   -0.82425767032930      1.29030403321479     -0.25369967371454
  N   1.51642564214254      0.76014364081347      0.94029174430282
  H   2.50673886951399      0.56256796690468      0.85747972607795
  H   1.21754501270098      0.66480270380363      1.90293511813319
  N   1.32921451365005      0.26634016352853     -1.32417492233452
  O   2.53326967837614      0.09723321992698     -1.45317319860843
  O   0.55890946200142      0.69887438818180     -2.17301418194892
  C   -1.12469966470923      0.28901320473740      1.54170829560576
  N   -1.42797030502894      0.29077195813222      2.67623000752169
  C   -1.65757953934825     -0.66262349715660     -0.65798699896883
  H   -1.70238158498904     -1.64925720703678     -0.20037882876197
  H   -2.66257029528151     -0.23696390055644     -0.66319125065288
  H   -1.31678133335339     -0.75426132842422     -1.68702842872718
