16
Coordinates from ORCA-job run
  C   0.80017482060238     -0.11619937536211      0.22497537780405
  C   -0.70843033373723      0.17703651119726      0.28997664882032
  Cl  1.15770303477596     -1.80475460742779      0.54490474871624
  H   -0.80543531906225      1.25912318526272      0.13791948437477
  N   1.50764254294425      0.70431212910683      1.12930474759252
  H   2.48764415566678      0.45608659355442      1.18213437441794
  H   1.40402146832326      1.68080229818332      0.88127813103386
  N   1.17882645998193      0.19843580666556     -1.26487716159706
  O   1.13932216016439      1.40146132347826     -1.51674262408610
  O   1.43046057727124     -0.70009690327353     -2.05113762447979
  C   -1.18964051908523     -0.13330293960115      1.63535081156259
  N   -1.63666082728611     -0.39418094855580      2.68891006155945
  C   -1.53192519885564     -0.55110973548836     -0.77428290861556
  H   -1.25621979204347     -0.21483684654619     -1.77477457232849
  H   -2.59019454777039     -0.33427620699106     -0.62412238912185
  H   -1.38628868188986     -1.62950028420238     -0.70881710565291
