18

C	-0.560398	0.00986	-1.413386
C	0.0	0.0	0.0
F	-1.96916	-0.122604	-1.320097
H	1.091122	0.0	0.0
N	-0.18144	1.133207	-2.13783
H	-0.215775	1.93341	-1.518953
H	-0.735553	1.240871	-2.974485
N	-0.19608	-1.197123	-2.26722
O	-0.71147	-1.213587	-3.385085
O	0.566278	-2.043488	-1.817276
C	-0.507131	-1.161478	0.845947
H	-0.213123	-2.123109	0.428647
H	-1.596011	-1.129561	0.942844
H	-0.060156	-1.079218	1.838723
N	-0.37456	1.311752	0.566474
H	-1.235944	1.229329	1.095063
H	0.366638	1.597899	1.195981
Cl	3.450446	0.0	0.0
