18

C	-0.334137	0.114981	-1.495708
C	0.0	0.0	0.0
F	-1.604946	0.611908	-1.660982
H	1.094707	0.0	0.0
N	0.56242	0.903744	-2.275159
H	1.499711	0.527153	-2.12893
H	0.567616	1.831375	-1.863186
N	-0.348737	-1.274271	-2.116413
O	0.751048	-1.75478	-2.367339
O	-1.432747	-1.828057	-2.267691
C	-0.598766	-1.215865	0.681041
H	-0.205167	-2.146447	0.266794
H	-1.689717	-1.221266	0.592743
H	-0.333322	-1.17047	1.737221
N	-0.390763	1.227933	0.697218
H	0.369115	1.895368	0.666089
H	-1.222379	1.636647	0.292946
Cl	3.416427	0.0	0.0
