18

C	-0.288676	0.235844	-1.479811
C	0.0	0.0	0.0
F	-0.150409	1.572673	-1.739195
H	1.098854	0.0	0.0
N	0.53042	-0.48466	-2.38757
H	1.487967	-0.45061	-2.037167
H	0.221187	-1.445479	-2.435366
N	-1.746412	-0.093074	-1.800658
O	-1.996268	-1.269512	-2.065125
O	-2.570631	0.807493	-1.711531
C	-0.452542	-1.368282	0.483636
H	-1.54177	-1.425853	0.544065
H	-0.036454	-1.536649	1.480345
H	-0.081242	-2.167318	-0.15928
N	-0.619398	1.037847	0.823796
H	-0.298968	1.937217	0.483076
H	-0.232664	0.939814	1.757211
Cl	3.43235	0.0	0.0
