18

C	-0.558351	0.002455	-1.406731
C	0.0	0.0	0.0
F	0.112707	-0.938105	-2.187494
H	1.09266	0.0	0.0
N	-1.9579	-0.182771	-1.453623
H	-2.166064	-1.143955	-1.218059
H	-2.292892	0.026077	-2.385849
N	-0.253208	1.319938	-2.11871
O	0.784182	1.889787	-1.827357
O	-1.038792	1.662897	-3.00557
C	-0.415322	-1.282651	0.71887
H	0.126167	-1.338047	1.665176
H	-1.490587	-1.298391	0.933079
H	-0.147506	-2.166758	0.134418
N	-0.473899	1.21633	0.658353
H	0.299799	1.631882	1.159909
H	-1.219189	1.007293	1.308764
Cl	3.491467	0.0	0.0
