18

C	-0.252917	0.337165	-1.460395
C	0.0	0.0	0.0
F	-0.029467	1.700269	-1.644813
H	1.098561	0.0	0.0
N	0.535897	-0.460587	-2.299989
H	1.492522	-0.466851	-1.948305
H	0.504058	-0.116349	-3.251397
N	-1.700063	0.204605	-1.941841
O	-1.879497	0.410282	-3.143128
O	-2.584049	-0.056099	-1.133843
C	-0.451353	-1.397241	0.397305
H	-0.192893	-2.122458	-0.374664
H	-1.528499	-1.431519	0.569238
H	0.071471	-1.681622	1.314411
N	-0.548214	1.038124	0.869045
H	-0.894767	0.605845	1.715914
H	0.203353	1.66439	1.129623
Cl	3.426079	0.0	0.0
