18

C	-0.278493	0.234417	-1.48225
C	0.0	0.0	0.0
F	-0.125075	1.568742	-1.740501
H	1.106354	0.0	0.0
N	0.542337	-0.493028	-2.384765
H	1.499711	-0.450173	-2.033796
H	0.240623	-1.457249	-2.414873
N	-1.734242	-0.083254	-1.816181
O	-1.991869	-1.261824	-2.066576
O	-2.550348	0.826991	-1.759181
C	-0.459081	-1.364191	0.486335
H	-1.54907	-1.419993	0.536412
H	-0.083947	-2.167179	-0.149336
H	-0.05258	-1.529025	1.4879
N	-0.621128	1.043048	0.813788
H	-0.239599	1.935062	0.520599
H	-0.302664	0.901087	1.766711
Cl	3.435898	0.0	0.0
