18

C	-0.264834	-0.119152	-1.493643
C	0.0	0.0	0.0
F	-0.088392	1.106561	-2.120178
H	1.097986	0.0	0.0
N	0.520618	-1.137054	-2.052183
H	0.464053	-1.12067	-3.061822
H	1.483886	-1.018018	-1.738381
N	-1.729837	-0.410703	-1.845737
O	-1.955824	-0.832991	-2.978186
O	-2.590322	-0.152362	-1.006967
C	-0.427607	-1.248579	0.769865
H	-1.512614	-1.285253	0.895538
H	-0.096524	-2.157938	0.26616
H	0.041115	-1.218842	1.756175
N	-0.487909	1.252841	0.54673
H	-1.359462	1.102041	1.038143
H	0.201394	1.6097	1.195327
Cl	3.413721	0.0	0.0
