18

C	-0.272696	-0.056967	-1.494517
C	0.0	0.0	0.0
F	-0.045627	1.183555	-2.07223
H	1.093891	0.0	0.0
N	0.474089	-1.080662	-2.096274
H	0.42892	-1.003447	-3.104146
H	1.438212	-1.008313	-1.772921
N	-1.745677	-0.279105	-1.860709
O	-2.600318	-0.09803	-0.995879
O	-1.979612	-0.573577	-3.031065
C	-0.430522	-1.27174	0.728091
H	-1.516769	-1.314391	0.843582
H	-0.094177	-2.164953	0.199497
H	0.030806	-1.270125	1.71925
N	-0.487146	1.234372	0.591423
H	0.226734	1.599806	1.207067
H	-1.328759	1.058617	1.123878
Cl	3.403632	0.0	0.0
