18

C	-0.517787	-0.000633	-1.433164
C	0.0	0.0	0.0
F	-0.253936	-1.188981	-2.045281
H	1.095985	0.0	0.0
N	-1.898828	0.27623	-1.487298
H	-2.2057	0.543492	-2.412915
H	-2.096659	0.981173	-0.784952
N	0.245942	1.035079	-2.298281
O	0.408453	0.770689	-3.486147
O	0.519046	2.104255	-1.759849
C	-0.480453	-1.261437	0.703839
H	-0.122989	-2.149289	0.184566
H	-1.57164	-1.289813	0.76246
H	-0.060861	-1.279125	1.713472
N	-0.545771	1.182254	0.694426
H	-0.456298	1.016799	1.68995
H	0.059082	1.965257	0.47388
Cl	3.465376	0.0	0.0
