18

C	-0.274559	0.141846	-1.504529
C	0.0	0.0	0.0
F	-0.124853	1.450769	-1.841996
H	1.09932	0.0	0.0
N	0.556764	-0.642303	-2.355187
H	0.266614	-1.610306	-2.326375
H	1.512267	-0.566171	-2.002215
N	-1.726532	-0.206098	-1.819968
O	-1.976466	-1.403919	-1.974129
O	-2.552245	0.697642	-1.829173
C	-0.462025	-1.335628	0.561358
H	-0.128424	-2.174511	-0.049188
H	-0.027958	-1.459222	1.556516
H	-1.552971	-1.380826	0.640544
N	-0.594782	1.107756	0.738614
H	-0.933495	0.781586	1.633178
H	0.119682	1.801915	0.919162
Cl	3.415565	0.0	0.0
