17

C	-0.493745	0.025006	-1.418011
C	0.0	0.0	0.0
F	0.111484	1.006695	-2.091231
H	1.093246	0.0	0.0
N	-0.29009	-1.242299	-2.245466
O	-1.269388	-1.948796	-2.446518
O	0.843597	-1.405669	-2.663366
N	-2.001098	0.301998	-1.501474
O	-2.397958	0.88989	-2.499934
O	-2.682225	-0.103789	-0.569046
N	-0.364272	-1.213617	0.716376
O	-0.701621	-1.112009	1.905111
O	-0.163689	-2.288087	0.131044
N	-0.383739	1.218887	0.631355
H	0.425965	1.550646	1.148828
H	-1.140857	1.043164	1.280357
H	2.432924	0.0	0.0
