17

C	-0.70525	0.045213	-1.324078
C	0.0	0.0	0.0
F	-2.034874	-0.094157	-1.208951
H	1.089381	0.0	0.0
N	-0.457575	1.389956	-2.005257
O	-1.407453	1.855462	-2.628585
O	0.666493	1.857578	-1.909431
N	-0.230358	-0.964259	-2.369766
O	0.968099	-0.936328	-2.609408
O	-1.082389	-1.665723	-2.894427
N	-0.332379	-1.249333	0.653263
O	-0.358262	-2.269556	-0.057338
O	-0.410187	-1.257525	1.892216
N	-0.339594	1.169721	0.75457
H	0.524389	1.476272	1.198792
H	-0.998252	0.927264	1.483453
H	2.388037	0.0	0.0
