17

C	-0.642612	0.031824	-1.355639
C	0.0	0.0	0.0
F	-1.980428	-0.06972	-1.301124
H	1.089926	0.0	0.0
N	-0.32639	1.377768	-2.017249
O	0.848625	1.582728	-2.277127
O	-1.274046	2.122098	-2.220076
N	-0.148684	-1.002775	-2.360565
O	-0.99661	-1.463275	-3.116082
O	1.048579	-1.234422	-2.358783
N	-0.393444	-1.224852	0.666807
O	-0.442084	-1.211144	1.90845
O	-0.519159	-2.249471	-0.029742
N	-0.305033	1.200143	0.705319
H	-1.150417	1.104169	1.25382
H	0.478681	1.388852	1.325376
H	2.392882	0.0	0.0
