17

C	-0.657271	0.03788	-1.349784
C	0.0	0.0	0.0
F	-1.994535	-0.06765	-1.279918
H	1.089939	0.0	0.0
N	-0.351585	1.387605	-2.004955
O	0.825077	1.605709	-2.251918
O	-1.307015	2.125758	-2.205434
N	-0.172008	-0.993139	-2.363911
O	-1.02328	-1.442789	-3.123315
O	1.022176	-1.241841	-2.352756
N	-0.397247	-1.226742	0.665696
O	-0.447325	-1.210298	1.907842
O	-0.527011	-2.250915	-0.03211
N	-0.305094	1.197898	0.70337
H	-1.177642	1.116655	1.204088
H	0.444264	1.349999	1.370708
H	2.403832	0.0	0.0
