17

C	0.0	0.0	0.0
C	-0.364464	-0.049537	-1.535029
Cl	1.773204	0.0	0.0
H	0.508318	0.353329	-2.054554
N	-0.322642	1.419238	0.537565
O	-0.584577	1.537346	1.721878
O	-0.187399	2.328706	-0.272712
N	-0.529495	-0.935186	0.898395
H	-0.320036	-1.874683	0.582126
H	-1.553684	-0.792189	0.890175
C	-1.454097	0.780241	-2.061675
N	-2.131261	1.44769	-2.752898
C	-0.564631	-1.501742	-1.960233
H	0.2886	-2.115934	-1.65876
H	-1.486205	-1.884215	-1.519712
H	-0.652267	-1.553112	-3.050138
Cl	-3.396796	0.0	0.0
