17

C	0.0	0.0	0.0
C	-0.570456	0.181849	-1.418157
Cl	1.755215	0.0	0.0
H	-1.662748	0.112899	-1.272727
N	-0.327408	1.253309	0.911541
O	-0.65664	0.9978	2.061741
O	-0.153265	2.375033	0.45225
N	-0.517832	-1.17654	0.550535
H	-1.542882	-1.109161	0.49766
H	-0.246667	-1.258398	1.522872
C	-0.138336	-0.977328	-2.201628
N	0.218198	-1.845032	-2.908882
C	-0.243215	1.458337	-2.196475
H	-0.562408	1.315894	-3.231234
H	-0.780442	2.30482	-1.779174
H	0.82675	1.673227	-2.187271
Cl	-3.553167	0.0	0.0
