17

C	0.0	0.0	0.0
C	-0.430357	0.463467	-1.406964
Cl	1.818775	0.0	0.0
H	-0.270009	-0.434065	-2.017281
N	-0.309256	1.104087	1.053123
O	-0.56953	0.709771	2.184571
O	-0.2199	2.269122	0.69495
N	-0.566539	-1.23198	0.331664
H	-1.554964	-1.21715	0.083782
H	-0.506362	-1.378124	1.333703
C	0.435046	1.506372	-1.966179
N	1.055575	2.350405	-2.495788
C	-1.886234	0.913579	-1.516653
H	-2.025999	1.875588	-1.025057
H	-2.139575	1.026864	-2.573192
H	-2.613625	0.230171	-1.075973
Cl	-4.615837	0.0	0.0
