17

C	0.0	0.0	0.0
C	-0.428444	0.013643	-1.506299
Cl	1.767266	0.0	0.0
H	0.467569	0.32302	-2.049496
N	-0.279681	1.412061	0.640557
O	-0.556535	1.416122	1.832933
O	-0.109903	2.395998	-0.067238
N	-0.543292	-1.040399	0.742639
H	-0.298098	-0.924946	1.719249
H	-1.569713	-0.946932	0.646402
C	-1.423198	0.996195	-1.955891
N	-2.031694	1.775072	-2.592604
C	-0.812636	-1.388529	-1.983378
H	-0.913029	-1.374276	-3.071321
H	-1.76645	-1.673135	-1.543748
H	-0.045224	-2.109453	-1.700146
Cl	-3.419408	0.0	0.0
