17

C	0.0	0.0	0.0
C	-0.392146	0.052544	-1.506702
Cl	1.81467	0.0	0.0
H	0.488384	0.453516	-2.014422
N	-0.257004	1.404174	0.66162
O	-0.501138	1.395071	1.860528
O	-0.119819	2.393948	-0.044818
N	-0.540954	-1.049596	0.720302
H	-1.568324	-0.945225	0.63127
H	-0.289442	-0.953467	1.69774
C	-1.449961	0.971814	-1.94992
N	-2.083144	1.71121	-2.609819
C	-0.655451	-1.358986	-2.03796
H	-1.580566	-1.74153	-1.610923
H	0.168759	-2.022583	-1.772469
H	-0.755395	-1.316804	-3.125156
Cl	-3.393723	0.0	0.0
