17

C	0.0	0.0	0.0
C	-0.421092	-0.064602	-1.504097
Cl	1.77972	0.0	0.0
H	0.471983	0.233699	-2.058818
N	-0.273837	1.446905	0.562724
O	-0.107037	2.388903	-0.200319
O	-0.545206	1.516752	1.754233
N	-0.537041	-0.99767	0.800895
H	-0.289144	-0.825258	1.768597
H	-1.564856	-0.914765	0.703838
C	-1.426317	0.883346	-2.004865
N	-2.019135	1.619551	-2.704282
C	-0.781842	-1.494784	-1.911897
H	-0.873971	-1.538969	-2.999639
H	-0.006553	-2.188882	-1.585336
H	-1.734985	-1.770151	-1.464214
Cl	-3.393926	0.0	0.0
