17

C	0.0	0.0	0.0
C	-0.346621	0.397162	-1.46322
Cl	1.768235	0.0	0.0
H	0.049903	-0.459493	-2.021913
N	-0.362216	1.143083	0.997471
O	-0.557613	2.264994	0.550396
O	-0.394568	0.811897	2.177333
N	-0.591189	-1.215893	0.363527
H	-1.606797	-1.125484	0.263098
H	-0.386165	-1.420853	1.334844
C	0.422063	1.559964	-1.925523
N	0.99256	2.462949	-2.413668
C	-1.810307	0.589259	-1.841262
H	-1.853881	0.795331	-2.914172
H	-2.413517	-0.288802	-1.631038
H	-2.26677	1.413298	-1.300421
Cl	-4.318869	0.0	0.0
