15

C	-0.517006	0.029383	-1.430217
C	0.0	0.0	0.0
F	-1.919246	-0.093976	-1.416311
H	1.08877	0.0	0.0
H	-0.384997	-0.885882	0.504511
C	-0.158643	1.289695	-2.194922
H	-0.665306	2.145876	-1.745422
H	0.92361	1.448357	-2.148558
H	-0.483417	1.187021	-3.231883
C	0.001971	-1.167058	-2.1258
N	0.362578	-2.135463	-2.690253
N	-0.490637	1.15549	0.799257
O	0.090829	2.242743	0.613667
O	-1.461227	0.947212	1.599727
Br	3.442276	0.0	0.0
