15

C	-0.516368	0.02739	-1.428547
C	0.0	0.0	0.0
F	-1.916043	-0.131035	-1.417813
H	1.088836	0.0	0.0
H	-0.393156	-0.878735	0.510429
C	-0.191103	1.299738	-2.187
H	-0.520415	1.197467	-3.222452
H	0.886145	1.485063	-2.145604
H	-0.716992	2.138015	-1.727421
C	0.028679	-1.151054	-2.132264
N	0.417968	-2.105733	-2.701333
N	-0.497886	1.173957	0.762826
O	0.12162	2.238234	0.627536
O	-1.521286	1.015267	1.458418
Br	3.398525	0.0	0.0
