15

C	-0.578727	0.075631	-1.408407
C	0.0	0.0	0.0
F	-0.292614	-1.167622	-1.977411
H	1.088573	0.0	0.0
H	-0.36313	-0.912526	0.471788
C	-2.089208	0.243393	-1.436061
H	-2.374229	1.233187	-1.081469
H	-2.545636	-0.521346	-0.803101
H	-2.443746	0.11567	-2.460302
C	0.045273	1.099309	-2.265279
N	0.425975	1.908142	-3.026057
N	-0.451951	1.127814	0.842164
O	-0.520947	2.240336	0.316258
O	-0.698579	0.890438	2.02338
Br	3.426904	0.0	0.0
