15

C	-0.487181	0.077349	-1.426479
C	0.0	0.0	0.0
F	-1.883922	0.215394	-1.426571
H	1.091609	0.0	0.0
H	-0.350206	0.880348	0.538505
C	0.128412	1.306624	-2.074922
H	-0.172017	2.195017	-1.515294
H	1.21725	1.219665	-2.049784
H	-0.220936	1.394948	-3.104834
C	-0.181399	-1.102374	-2.256386
N	0.03783	-1.946498	-3.042063
N	-0.513136	-1.164739	0.759531
O	-0.719702	-0.987432	1.958471
O	-0.676459	-2.227055	0.16453
Br	3.429443	0.0	0.0
