15

C	-0.466408	0.161492	-1.441483
C	0.0	0.0	0.0
F	-1.842685	0.424908	-1.451357
H	1.088784	0.0	0.0
H	-0.400235	-0.907059	0.446578
C	0.254053	1.23597	-2.231359
H	-0.059252	1.189774	-3.275711
H	1.331453	1.075329	-2.150346
H	0.010981	2.210035	-1.810515
C	-0.291014	-1.14766	-2.101034
N	-0.182037	-2.188941	-2.630807
N	-0.478644	1.113752	0.857907
O	-1.07946	0.806288	1.886047
O	-0.228557	2.264941	0.511609
Br	3.447991	0.0	0.0
