15

C	-0.459806	0.105844	-1.448947
C	0.0	0.0	0.0
F	-1.846529	0.324786	-1.477349
H	1.088565	0.0	0.0
H	-0.403183	-0.892238	0.474352
C	0.231505	1.183395	-2.258108
H	-0.073083	1.10468	-3.30421
H	-0.045178	2.15811	-1.865799
H	1.313113	1.060194	-2.161964
C	-0.235121	-1.215077	-2.070395
N	-0.093683	-2.269114	-2.568331
N	-0.497407	1.143995	0.803733
O	-1.212427	0.881501	1.773251
O	-0.160164	2.278215	0.467794
Br	3.444689	0.0	0.0
