15

C	-0.581354	0.059821	-1.408898
C	0.0	0.0	0.0
F	-0.30992	-1.188173	-1.969609
H	1.088608	0.0	0.0
H	-0.37632	-0.903147	0.479636
C	-2.089591	0.24173	-1.42548
H	-2.455911	0.123587	-2.446444
H	-2.361572	1.232883	-1.067222
H	-2.548894	-0.51488	-0.786097
C	0.040066	1.073432	-2.279915
N	0.408056	1.876584	-3.052725
N	-0.49394	1.145353	0.794583
O	-1.081987	0.905674	1.849541
O	-0.301869	2.2723	0.334826
Br	3.438452	0.0	0.0
