15

C	-0.446375	-0.022704	-1.461491
C	0.0	0.0	0.0
F	-0.032518	1.197584	-1.98981
H	1.088599	0.0	0.0
H	-0.413218	0.874769	0.497809
C	0.197884	-1.136503	-2.257338
H	1.275498	-1.092144	-2.087322
H	-0.173895	-2.106995	-1.931385
H	-0.029128	-0.99622	-3.316061
C	-1.9191	-0.046593	-1.589156
N	-3.083623	-0.062101	-1.733084
N	-0.526431	-1.194947	0.701798
O	-1.579757	-1.055698	1.331699
O	0.095697	-2.25138	0.59188
Br	3.545102	0.0	0.0
