15

C	0.0	0.0	0.0
C	-0.453672	0.421172	-1.451889
Cl	1.763373	0.0	0.0
H	0.22365	-0.143872	-2.100386
C	-0.49822	0.855603	1.0611
N	-0.817992	1.616292	1.899042
N	-0.436261	-1.44712	0.240702
O	-0.298275	-2.198435	-0.716352
O	-0.826882	-1.738282	1.36005
C	-0.107903	1.847034	-1.591402
N	0.163823	2.981792	-1.719148
N	-1.788955	0.170474	-1.86318
H	-2.527965	0.463734	-1.2097
H	-1.92769	-0.819932	-2.013169
Cl	-4.240529	0.0	0.0
