15

C	0.0	0.0	0.0
C	-0.433828	0.48891	-1.442266
Cl	1.763496	0.0	0.0
H	0.272549	-0.027216	-2.100613
C	-0.507917	0.800157	1.098466
N	-0.779407	1.533232	1.976689
N	-0.430504	-1.4598	0.166305
O	-0.276535	-2.165194	-0.822832
O	-0.832585	-1.804454	1.266311
C	-0.117722	1.927295	-1.492063
N	0.12606	3.07401	-1.545049
N	-1.750245	0.233111	-1.905249
H	-2.506872	0.497532	-1.258493
H	-1.869389	-0.754956	-2.086131
Cl	-4.154	0.0	0.0
