15

C	0.0	0.0	0.0
C	-0.437415	0.462305	-1.448563
Cl	1.763657	0.0	0.0
H	0.267143	-0.065222	-2.099611
C	-0.496523	0.825045	1.08501
N	-0.80052	1.559949	1.951213
N	-0.432438	-1.454699	0.198197
O	-0.287978	-2.177677	-0.779686
O	-0.823971	-1.779659	1.307835
C	-0.115685	1.898118	-1.531757
N	0.144201	3.039706	-1.618072
N	-1.755006	0.199307	-1.90612
H	-2.511428	0.454283	-1.255261
H	-1.863216	-0.789921	-2.087899
Cl	-4.163855	0.0	0.0
