15

C	0.0	0.0	0.0
C	-0.620046	-0.019678	-1.414914
Cl	1.757652	0.0	0.0
H	-1.580056	-0.537736	-1.281598
C	-0.447768	1.142285	0.791239
N	-0.670508	2.076957	1.468139
N	-0.375816	-1.299876	0.73591
O	-0.44817	-1.251116	1.952158
O	-0.473934	-2.290871	0.026388
C	0.206343	-0.75207	-2.370016
N	0.813587	-1.314475	-3.204548
N	-0.820499	1.36503	-1.838741
H	-0.85388	1.401731	-2.850886
H	-1.745477	1.609762	-1.486591
Cl	-3.356573	0.0	0.0
