13

C	-0.552688	0.111369	-1.425199
C	0.0	0.0	0.0
Cl	0.233788	-1.034835	-2.49942
H	1.10089	0.0	0.0
H	-1.62677	-0.062681	-1.463259
N	-0.360792	1.502958	-1.97439
O	0.640196	2.117886	-1.633036
O	-1.234586	1.883467	-2.751528
C	-0.461541	-1.275003	0.553538
N	-0.864762	-2.296329	0.968522
C	-0.512949	1.097314	0.822502
N	-0.964658	1.971572	1.462972
Br	3.320963	0.0	0.0
