13

C	-0.532833	-0.033907	-1.43331
C	0.0	0.0	0.0
Cl	0.203608	-1.345281	-2.345531
H	1.095753	0.0	0.0
H	-1.615288	-0.15787	-1.473085
N	-0.262712	1.26966	-2.152628
O	0.616683	1.998647	-1.714488
O	-0.967071	1.47035	-3.139036
C	-0.456122	-1.214028	0.681527
N	-0.835789	-2.181671	1.228217
C	-0.521115	1.168911	0.709058
N	-0.961662	2.093411	1.28438
Br	3.314178	0.0	0.0
