10
Coordinates from ORCA-job run
  C   -0.68812964480667     -0.27933107195298      0.07513630405676
  C   0.68445018878944      0.38725469651426     -0.09264991481903
  Br  -0.50144417600738     -2.07500442226039      0.80559178110482
  H   0.53679153449477      1.41974177539366     -0.42646468710196
  H   -1.17780176129009     -0.39852700158367     -0.89325423216391
  H   1.19865390854855      0.41645485947230      0.87115846642785
  C   -1.53208714942619      0.52210960519884      0.95167352268333
  N   -2.19127390250467      1.20023535393360      1.64859089316423
  C   1.50922221623181     -0.31761017316115     -1.07043255824789
  N   2.16261878597043     -0.87532362155448     -1.86934957510421
