10
Coordinates from ORCA-job run
  C   -0.65664128857974     -0.57075675513010      0.11554270659492
  C   0.59179956833262     -0.17874796158604     -0.68418522321061
  Br  -0.16532791279407     -1.55866750809563      1.72058783393877
  H   0.27322597055996      0.30306216168276     -1.61475197265112
  H   -1.26470383190145     -1.25427270940197     -0.48051889470800
  H   1.14732807267594     -1.08343357512762     -0.94361456945476
  C   -1.45523247093022      0.59402125675890      0.47348914886768
  N   -2.09715682182856      1.54473997937234      0.72673602830514
  C   1.46344054729419      0.73300756531770      0.05208919869129
  N   2.16426816717134      1.47104754620965      0.63562574362669
