13
Coordinates from ORCA-job run
  C   -0.98045514715410     -0.98628974806879     -0.04690209590929
  C   -0.01855337903126      0.15823501334415     -0.32851747775165
  H   -1.07969983645940     -1.12479720679510      1.03230018270478
  H   0.06999173401796      0.27100849130697     -1.42247957142275
  H   -0.62513249655222     -1.91775714921909     -0.49461048510608
  H   -1.97372327921451     -0.77664745481289     -0.45549361853433
  C   1.36593860013455     -0.13263126044843      0.23101224070458
  H   1.78505004533393     -1.04093928400608     -0.20904425983035
  H   1.30475880041582     -0.25719133551343      1.31473477057876
  H   2.05693150417748      0.68970642272254      0.02180374290880
  N   -0.53541222548775      1.36917725956018      0.31564235190713
  H   -1.44552956414695      1.59768084993764     -0.06896924485379
  H   0.07683524396646      2.15144540199233      0.11152346460419
