16

C	-0.521006	-0.00225	-1.437201
C	0.0	0.0	0.0
F	-0.083707	1.166677	-2.019953
H	1.088633	0.0	0.0
N	0.142229	-1.121336	-2.23189
O	0.661139	-2.034782	-1.60673
O	0.020145	-1.024837	-3.449089
N	-1.899536	-0.215934	-1.566308
H	-2.188547	-0.061906	-2.523342
H	-2.415791	0.363671	-0.917599
C	-0.545351	-1.084189	0.800307
N	-0.966864	-1.948828	1.474031
N	-0.4567	1.310198	0.614052
O	0.399412	2.127295	0.910434
O	-1.674274	1.45551	0.762372
Br	3.364028	0.0	0.0
