18

C	-0.298531	0.050614	-1.507803
C	0.0	0.0	0.0
Cl	-0.085668	-1.655591	-2.252743
H	1.0986	0.0	0.0
C	-1.706967	0.365663	-1.791609
N	-2.835815	0.634732	-1.979002
N	0.561863	0.99645	-2.110161
H	1.521019	0.836524	-1.795294
H	0.512077	0.972559	-3.120428
C	-0.568621	-1.205337	0.726437
H	-0.384476	-1.089998	1.797951
H	-0.097067	-2.132544	0.404402
H	-1.651361	-1.287431	0.575277
C	-0.466762	1.303312	0.649973
H	-1.55916	1.348253	0.721527
H	-0.112204	2.170279	0.091895
H	-0.051714	1.358483	1.659654
Br	3.576498	0.0	0.0
