18

C	-0.501418	-0.019547	-1.447322
C	0.0	0.0	0.0
Cl	0.37009	1.294609	-2.399568
H	1.094644	0.0	0.0
C	-0.159276	-1.273927	-2.132757
N	0.031511	-2.283685	-2.702524
N	-1.925552	0.137584	-1.520024
H	-2.179578	1.029595	-1.112441
H	-2.229594	0.130354	-2.486924
C	-0.460567	-1.255995	0.738119
H	-0.041722	-2.156782	0.284692
H	-0.091481	-1.211092	1.766145
H	-1.55103	-1.339453	0.753499
C	-0.457312	1.257161	0.735118
H	0.090361	1.318677	1.678389
H	-0.227021	2.163535	0.171028
H	-1.527935	1.234074	0.972205
Br	3.605375	0.0	0.0
