18

C	-0.484991	0.015999	-1.451666
C	0.0	0.0	0.0
Cl	0.16619	1.443539	-2.330092
H	1.096139	0.0	0.0
C	0.010305	-1.167908	-2.184563
N	0.295728	-2.170923	-2.727439
N	-1.936298	0.105449	-1.524818
H	-2.326643	-0.70608	-1.056686
H	-2.224299	0.072512	-2.497158
C	-0.441919	-1.284122	0.705662
H	0.058048	-1.327879	1.675742
H	-1.523074	-1.31423	0.889693
H	-0.145274	-2.179223	0.153764
C	-0.472679	1.228774	0.769081
H	-1.562898	1.274897	0.833461
H	-0.055902	1.184194	1.778564
H	-0.109707	2.146787	0.306169
Br	3.602649	0.0	0.0
