18

C	-0.357922	0.028013	-1.496036
C	0.0	0.0	0.0
Cl	0.110755	-1.553247	-2.253697
H	1.09833	0.0	0.0
C	-1.818442	0.163027	-1.682954
N	-2.985549	0.300725	-1.783569
N	0.32497	1.062073	-2.25867
H	-0.030712	1.97308	-1.972438
H	1.319016	1.011572	-2.007893
C	-0.541362	-1.206072	0.752172
H	-0.14988	-2.13852	0.347558
H	-0.234059	-1.147078	1.800516
H	-1.638108	-1.239183	0.719137
C	-0.459439	1.295032	0.669417
H	-0.007529	2.175986	0.209982
H	-0.131395	1.28557	1.711606
H	-1.550175	1.402818	0.654012
Br	3.62115	0.0	0.0
