13

C	-0.107016	0.056928	-1.526895
C	0.0	0.0	0.0
Cl	-1.78652	0.411447	-2.124324
H	1.098472	0.0	0.0
H	0.087926	-0.955822	-1.897459
N	0.812561	1.063731	-1.967111
H	0.987709	0.95944	-2.95747
H	1.685301	0.884216	-1.442292
C	-0.562846	-1.21137	0.559769
N	-0.9968	-2.210953	1.001469
C	-0.492501	1.197581	0.655156
N	-0.872925	2.157429	1.215381
F	2.538856	0.0	0.0
