13

C	-0.169603	0.034169	-1.555578
C	0.0	0.0	0.0
Cl	-0.133998	1.756514	-2.094726
H	1.095715	0.0	0.0
H	-1.142803	-0.347997	-1.871579
N	0.892525	-0.692343	-2.182173
H	0.667831	-1.680089	-2.171681
H	1.740466	-0.53394	-1.612955
C	-0.441055	-1.307269	0.45755
N	-0.78919	-2.385839	0.771779
C	-0.619999	1.06046	0.763534
N	-1.120358	1.908555	1.406043
F	2.537301	0.0	0.0
