13

C	-0.048	-0.014984	-1.543983
C	0.0	0.0	0.0
Cl	-1.710799	0.219763	-2.195231
H	1.097988	0.0	0.0
H	0.262538	-1.015658	-1.848698
N	0.861223	0.942702	-2.117273
H	0.549058	1.874813	-1.859626
H	1.7415	0.76741	-1.606597
C	-0.581322	-1.168193	0.622135
N	-1.027775	-2.139566	1.111776
C	-0.489959	1.245847	0.553062
N	-0.859067	2.277883	0.978481
F	2.527774	0.0	0.0
