13

C	-0.164818	-0.149596	-1.533522
C	0.0	0.0	0.0
Cl	-0.071268	1.562691	-2.29065
H	1.097537	0.0	0.0
H	-1.156464	-0.478683	-1.8488
N	0.859461	-1.013639	-1.939971
H	1.741041	-0.74342	-1.470975
H	0.941809	-1.092221	-2.943037
C	-0.476865	-1.211719	0.649157
N	-0.869075	-2.186237	1.176835
C	-0.59959	1.174133	0.599344
N	-1.083404	2.103065	1.132751
F	2.550275	0.0	0.0
