13

C	-0.341613	0.014352	-1.489377
C	0.0	0.0	0.0
Cl	0.177243	-1.523189	-2.245667
H	1.096606	0.0	0.0
H	0.310078	0.770823	-1.938127
N	-1.755004	0.183725	-1.73686
H	-2.085422	0.98402	-1.209734
H	-1.911414	0.363297	-2.720602
C	-0.563775	-1.127881	0.71572
N	-0.98637	-2.039714	1.326605
C	-0.430173	1.257745	0.585826
N	-0.747336	2.303203	1.024893
F	2.457394	0.0	0.0
