12
Coordinates from ORCA-job run
  C   0.61278120240309     -0.51505912601127      0.49285905320309
  C   -0.63627534967166     -0.62814477801740     -0.34346628189745
  F   0.30967186857962     -0.25861180434778      1.78350193349124
  H   -0.38036487504587     -0.69225519229923     -1.40056897523542
  H   1.20116212630134     -1.43355380018849      0.42877180252920
  H   -1.22448493467364     -1.49123507474160     -0.03709663231819
  N   1.53565086152532      0.56863745687497     -0.03248045533096
  O   1.95500258193940      1.39889742320263      0.75304949227591
  O   1.81123698169130      0.45041777183214     -1.22075024397342
  N   -1.51262042508116      0.57102576035740     -0.17115230937520
  O   -2.72059003463663      0.36949678427678     -0.12878331092285
  O   -0.95017000333110      1.66038457906183     -0.12388407244594
