12
Coordinates from ORCA-job run
  C   0.55549182166161     -0.37465059697636      0.36447055736551
  C   -0.55224454712920      0.39026070413138     -0.31438716288797
  F   0.31166422947427     -0.48269273722673      1.68809974011969
  H   -0.32273461101751      0.54765970018228     -1.36797512295448
  H   0.71611943692088     -1.36044774218118     -0.06867916039385
  H   -0.74532424589715      1.33394031990967      0.19390498013001
  N   1.83787650184053      0.40309937937607      0.15480379649396
  O   2.21142361059198      0.44797678719809     -1.01288343120674
  O   2.37265994326869      0.90909579710423      1.12885566871415
  N   -1.81607292295688     -0.40844977533580     -0.25676510636660
  O   -2.84654707992412      0.20181790129135      0.00203673337569
  O   -1.72131213683312     -1.60560973747299     -0.51148149238936
