12
Coordinates from ORCA-job run
  C   0.67593354569304     -0.61812528428744      0.19482152006900
  C   -0.80151387387558     -0.37896295443521      0.35804953103382
  F   1.12013573298662     -1.29955197683562      1.29169152049330
  H   -1.32922743026184     -1.33124199453222      0.42710668121613
  H   0.95444257611229     -1.15434977353930     -0.70848282193898
  H   -1.00308447344783      0.22044967315165      1.24260782780095
  N   1.43755105864365      0.68391274021803      0.16261777695520
  O   2.53362572319679      0.64307764133099     -0.38445634190133
  O   0.93036376033616      1.64820684470474      0.72851819688935
  N   -1.36368622616896      0.35337597043407     -0.81287089989678
  O   -0.62929273550966      0.50725344668020     -1.78762290874725
  O   -2.52524765770469      0.72395566711010     -0.71298008197341
