12
Coordinates from ORCA-job run
  C   0.60433328896523     -0.52308233653688      0.49487805538148
  C   -0.63127166710324     -0.62203394604039     -0.36295068215372
  F   0.28093879912100     -0.28629373453858      1.78429926381256
  H   -0.35865897181244     -0.67109352619013     -1.41667337053042
  H   1.19267785864580     -1.44126182817939      0.42583545331785
  H   -1.22525910778592     -1.48878821242724     -0.07882213052399
  N   1.53608620222847      0.56740443695347      0.00108540185510
  O   1.94447636964519      1.38467112322583      0.80580403208655
  O   1.83055824108816      0.46729972598444     -1.18438727332159
  N   -1.50896043298061      0.57565690578671     -0.18732711973337
  O   -2.71768967481049      0.37509721504543     -0.16879114458605
  O   -0.94623090520115      1.66342417691673     -0.11395048560441
