12
Coordinates from ORCA-job run
  C   0.73865243701744     -0.55815068685420      0.06497530899170
  C   -0.77199018343232     -0.48465299304970      0.02939804207752
  F   1.12326918635980     -1.71623861216544      0.65113098428459
  H   -1.19646893644763     -0.21544790761389      0.99392689071831
  H   1.17942228208460     -0.47397203340517     -0.92811160765228
  H   -1.15380342804530     -1.45355716342277     -0.29735852455134
  N   1.28395246499119      0.59769816528196      0.87279638898525
  O   0.76797270531125      1.68010685472175      0.61098051309693
  O   2.18315024602446      0.37402464432449      1.66723386909477
  N   -1.25561755839958      0.51666832324562     -0.96875815936667
  O   -2.22110612309872      1.19632473499824     -0.64631319440913
  O   -0.67743309236519      0.53719667393911     -2.05090051126966
