12
Coordinates from ORCA-job run
  C   0.60961080268480     -0.50476654507243      0.50728575671926
  C   -0.62342081003859     -0.63758932323820     -0.34983688365716
  F   0.28146755673106     -0.24274363234458      1.79058974020789
  H   -1.20744378255794     -1.50501305003043     -0.04772588179141
  H   1.20893355658606     -1.41720813402156      0.46035613899834
  H   -0.34804553373161     -0.70682045127726     -1.40171746859552
  N   1.52927013064137      0.58535542648055     -0.01024249764636
  O   1.92621182631600      1.42497286442067      0.77699508092475
  O   1.82647129123200      0.46239859985207     -1.19274709153089
  N   -1.51546419936379      0.55300199204514     -0.20209589029463
  O   -0.96582709839741      1.64873832491355     -0.15185983191396
  O   -2.72176374010196      0.33867392827248     -0.18100117142034
