15

C	0.0	0.0	0.0
C	-0.561576	0.00135	-1.393389
F	1.364405	0.0	0.0
H	0.105461	0.638511	-2.004922
H	-0.543088	-1.015211	-1.811678
C	-0.392237	1.211532	0.812921
H	-0.051744	2.088212	0.250983
H	-1.469451	1.255924	0.936983
H	0.113638	1.173261	1.775433
N	-0.351598	-1.304337	0.738868
O	-0.394081	-2.344098	0.070337
O	-0.429119	-1.262422	1.965977
C	-1.976875	0.563684	-1.466924
N	-2.535837	1.277229	-2.270403
H	-2.600129	0.0	0.0
