12
Coordinates from ORCA-job run
  C   -0.54710022531249      0.44718888801474      0.30525825343876
  C   0.97372367323589      0.58664425102772      0.25074901898672
  F   -0.92401213940892      0.82096432671438      1.59425200481375
  H   1.25225846787114      1.60404724905603      0.53716131432516
  H   -1.00834353925720      1.16429050581185     -0.38037076021165
  H   1.42160067194856     -0.09769808280949      0.97710635606841
  C   -1.03715219848412     -0.95516755844699      0.03829346158117
  H   -2.12168586454172     -0.99561384815149      0.14761568340237
  H   -0.59126445709581     -1.64879027948789      0.75436979653032
  H   -0.77645706117278     -1.27303959816863     -0.97282102080379
  C   1.48934090720444      0.29425662106807     -1.08334665550719
  N   1.86909176501302      0.05491752537168     -2.16726745262403
