10
Coordinates from ORCA-job run
  C   -0.29441586957957      0.11246283979423      0.03918285261131
  C   0.76310861687533     -0.69970839878279     -0.15315686731157
  H   0.58912073579049     -1.76286364998309     -0.29089681304774
  N   -1.66062182195956     -0.47778365896747      0.04960190739974
  O   -1.74586819269967     -1.68937043080420     -0.08959065462187
  O   -2.58275100064626      0.31702670056618      0.19700093229820
  C   -0.22970718296388      1.51987704097811      0.23459309718364
  N   -0.13622711298422      2.68268832768307      0.39433015124131
  C   2.09359710371946     -0.20000205238369     -0.17870756581554
  N   3.20276472444789      0.19567328189965     -0.20235703993749
