10
Coordinates from ORCA-job run
  C   -0.29584292220131      0.11204881034824      0.02794672675264
  C   0.77264096542518     -0.69759691827359     -0.10399377631076
  H   0.61052082657929     -1.76784281004365     -0.19257041498641
  N   -1.65662401427951     -0.49143729097652      0.03773693742969
  O   -1.72632727351723     -1.71110188329137     -0.00697636182133
  O   -2.59009241826967      0.30217881400047      0.08838521449961
  C   -0.24889636396492      1.52791484191722      0.15675220087309
  N   -0.16932200276655      2.69761388634450      0.26547170623970
  C   2.09922452837822     -0.18756317898190     -0.12624911619928
  N   3.20571867461652      0.21578572895660     -0.14550311647695
