10
Coordinates from ORCA-job run
  C   -0.29012735242697      0.12233264126154      0.03877102274636
  C   0.74544876581128     -0.72445222824038     -0.11842777040488
  H   0.54681299365054     -1.79139827149583     -0.16296228257955
  N   -1.66627324273558     -0.43736473445272      0.13455283098306
  O   -2.57115908504420      0.38631014719911      0.21532908692803
  O   -1.77546324099489     -1.65488316216802      0.12191390398048
  C   -0.19520447767760      1.53942821746111      0.11717974048618
  N   -0.07738422386420      2.70928874758701      0.18055688796622
  C   2.08429012765978     -0.25845946469713     -0.22102070439872
  N   3.20005973562186      0.10919810754532     -0.30589271570719
