10
Coordinates from ORCA-job run
  C   -0.29508305072296      0.10958236469285      0.04182952565570
  C   0.76914095017389     -0.69062339673919     -0.16358174660574
  H   0.60353921680286     -1.75083644431440     -0.33098672922016
  N   -1.65763184954493     -0.48870273485375      0.02339851827166
  O   -1.73250974333422     -1.70150142001248     -0.11066632545148
  O   -2.58754367176274      0.30189397317226      0.14246962525046
  C   -0.24108596243297      1.51183184181502      0.27525726189736
  N   -0.15810413984066      2.67026391608365      0.46915736247819
  C   2.09658998609239     -0.18203901143110     -0.16857603450010
  N   3.20368826456933      0.22013091158712     -0.17730145777589
