10
Coordinates from ORCA-job run
  C   -0.29540822898737      0.10096017094920      0.06049470746415
  C   0.76925344716540     -0.65359399410877     -0.27387062476343
  H   0.60765756922231     -1.68642773438805     -0.56854943763022
  N   -1.65162449990208     -0.51006384989471      0.01328872678306
  O   -2.57906392029443      0.22776355755059      0.32823693761416
  O   -1.72416647014387     -1.68086486755798     -0.33112806695454
  C   -0.24698286792800      1.46372986518137      0.46512766030366
  N   -0.16730379217598      2.59087323327586      0.79614537881648
  C   2.09177368132399     -0.13312004153503     -0.25108741561961
  N   3.19486508172003      0.27974366052752     -0.23865786601372
