10
Coordinates from ORCA-job run
  C   -0.29214556190979      0.11510400306147      0.04673853334689
  C   0.76532128280684     -0.70699089672145     -0.09678830743464
  H   0.61359349195085     -1.77792303564817      0.00261304830393
  N   -1.62753853115972     -0.47596037000743      0.33451354645144
  O   -1.69032477974449     -1.69341044223203      0.42618101065406
  O   -2.54916576847814      0.32397361380221      0.45386051993833
  C   -0.25491715171844      1.53359606140630     -0.05290462470006
  N   -0.18577819130158      2.70565347597744     -0.14212112192540
  C   2.06772885775502     -0.20878172239976     -0.37201357605048
  N   3.15422635179944      0.18473931276142     -0.60007902858407
