10
Coordinates from ORCA-job run
  C   -0.30196174398210      0.09796864777243     -0.01408950530707
  C   0.81493527221445     -0.61916800514249      0.21584471301660
  H   0.72507852238995     -1.58775428686684      0.69908013461108
  N   -1.61590789417448     -0.46858191336407      0.39524351343336
  O   -2.59758756080555      0.21512255161522      0.12560765370558
  O   -1.60455723278932     -1.55422112928611      0.95713424050715
  C   -0.34864091875070      1.37849622596159     -0.63159507396630
  N   -0.34768639951833      2.43813383721620     -1.14497568923114
  C   2.10116702678597     -0.13897002061687     -0.15207418741864
  N   3.17616092863011      0.23997409271094     -0.44917579935062
