10
Coordinates from ORCA-job run
  C   -0.23763817372143      0.33005211811354      0.22795171460972
  C   1.03413491538188     -0.11840016287201      0.27729493315102
  H   1.69700619493200      0.35863431876078      0.99548565379185
  N   -1.26212400899232     -0.21991081459836     -0.69475454607608
  O   -2.38400882730709      0.26613551691477     -0.59144185521891
  O   -0.90355176595866     -1.09856765940525     -1.46589850212278
  C   -0.69781549126824      1.38094130915945      1.07460298619743
  N   -1.03128125495984      2.25102755266660      1.79345952459741
  C   1.60030574196025     -1.15624107647288     -0.51426425788960
  N   2.18397266993345     -1.99267110226665     -1.10243565104005
