10
Coordinates from ORCA-job run
  C   -0.25618141046889      0.38181726871385      0.11812192133021
  C   1.03629541728569      0.05007282985952      0.31490537684931
  H   1.68114563409177      0.78980610613969      0.78362859466317
  N   -1.21903343053505     -0.52830744454626     -0.54548096472156
  O   -2.13789489116927      0.02313584769139     -1.14218017916819
  O   -1.00538571831288     -1.72942770327459     -0.45055289767015
  C   -0.78895342143895      1.64744670195059      0.49628318734442
  N   -1.19507772007067      2.69391746194063      0.84966098428862
  C   1.64109842341070     -1.18078873717287     -0.06401431206673
  N   2.24398711720754     -2.14767233130196     -0.36137171084913
