10
Coordinates from ORCA-job run
  C   -0.30173839918366      0.09831647452432     -0.01790072417165
  C   0.81135247616911     -0.61703620743916      0.23520240655696
  H   0.71481606591554     -1.57752356890942      0.73312356585480
  N   -1.62075436565400     -0.45830110268711      0.38862207278861
  O   -2.59870836007340      0.21949973545734      0.09187794883977
  O   -1.61672259558673     -1.53130409615992      0.97445309256610
  C   -0.33953820346731      1.36762112269420     -0.65876554491776
  N   -0.33089545086223      2.41775191055036     -1.19118098361725
  C   2.10178074148403     -0.14615406852282     -0.13006917997767
  N   3.17940809125863      0.22712980049220     -0.42436265392193
