10
Coordinates from ORCA-job run
  C   -0.25228335196417      0.38963016995899     -0.04691422781762
  C   1.00832487605515      0.04075047161141     -0.37868064406722
  H   1.62434729367076      0.80423010756704     -0.84780261478742
  N   -1.20897875002633     -0.53611998099312      0.60901550902403
  O   -0.85745308150158     -1.69998344706912      0.74044864392884
  O   -2.27132752390589     -0.03569025114956      0.96443073749218
  C   -0.76129988923063      1.69833712681085     -0.29449758677720
  N   -1.13987219163730      2.78902788585327     -0.52276723101804
  C   1.61989978823650     -1.22695761100822     -0.17062303192972
  N   2.23764283030350     -2.22222447158153     -0.05160955404781
