10
Coordinates from ORCA-job run
  C   -0.29621954657975      0.11127651761409      0.02971304118168
  C   0.77230031561875     -0.68551609029234     -0.16461419228327
  H   0.60884731225330     -1.73764657878115     -0.37966810148075
  N   -1.65841869276486     -0.48340596645449     -0.05015028214569
  O   -1.73419235247929     -1.66283352887310     -0.36329267605832
  O   -2.58653200537819      0.27356521962201      0.21285361528623
  C   -0.24744930307692      1.50338104465872      0.31677480523803
  N   -0.17021137938156      2.65491072904366      0.54984515236925
  C   2.10114974883268     -0.18513623614235     -0.09885307127429
  N   3.20972590295584      0.21040488960495     -0.05260829083288
