10
Coordinates from ORCA-job run
  C   -0.29112847169165      0.10411454580015      0.07238859116748
  C   0.74687463065131     -0.65494556803066     -0.32912570911778
  H   0.55128375182597     -1.65879162840842     -0.69440974827217
  N   -1.66629460376436     -0.45939134191241     -0.00951975069398
  O   -2.57459081908006      0.30897553679279      0.28784200548465
  O   -1.77150038594792     -1.62427515423650     -0.36510339371514
  C   -0.19800610710396      1.43133333275700      0.57535066698063
  N   -0.08016931962010      2.52582065799107      0.99301314136981
  C   2.08445664701880     -0.17608891905335     -0.28264558335758
  N   3.19907467771197      0.20324853830033     -0.24679021984592
