10
Coordinates from ORCA-job run
  C   -0.25320686403948      0.39762821091496      0.04809126426819
  C   1.06360558735265      0.13484378078515      0.17661931339585
  H   1.72736678463239      0.97276220936538      0.37432378077386
  N   -1.25001864235140     -0.65573629873021     -0.25816582209728
  O   -2.24854507196688     -0.27535229462539     -0.86041368987349
  O   -0.98617248455929     -1.79463450332370      0.10287838241171
  C   -0.78830188487782      1.71359786920039      0.15422044838275
  N   -1.19777724857852      2.81155978794920      0.26346023762340
  C   1.66668906924722     -1.14801916677117      0.05096527995445
  N   2.26536075514111     -2.15664959476459     -0.05297919483944
