10
Coordinates from ORCA-job run
  C   -0.27572304076406      0.36142554205890     -0.10422760962798
  C   1.05592131458945      0.14796868636477     -0.15381049815209
  H   1.67423988338511      0.97154319993193     -0.50377094957491
  N   -1.24988774407481     -0.66141259644473      0.35137455027063
  O   -0.80607367211692     -1.76291370270553      0.64324461801200
  O   -2.42081721224408     -0.29692407472328      0.39270118812055
  C   -0.85260390089707      1.60707310297825     -0.49012103824263
  N   -1.28216475283607      2.65213448857634     -0.81945991866566
  C   1.73880652625446     -1.04687290463830      0.20755934830598
  N   2.41730259870398     -1.97102174139836      0.47551030955410
