10
Coordinates from ORCA-job run
  C   -0.29212715863900      0.11333183756337      0.04943306765580
  C   0.75297438110342     -0.69289191215370     -0.21995685851414
  H   0.56354661552933     -1.73857536782640     -0.44374272412371
  N   -1.66575841971408     -0.46035708241644      0.02741033920394
  O   -2.57637385746177      0.33066808638715      0.24824585416936
  O   -1.76706481630365     -1.65582611408347     -0.20714745951019
  C   -0.20836969383191      1.49874181287383      0.36040763504448
  N   -0.10053334708829      2.64299784568432      0.61615606785165
  C   2.08982247697918     -0.21026562868292     -0.21505803639004
  N   3.20388381942677      0.17217652265427     -0.21574788538713
