10
Coordinates from ORCA-job run
  C   -0.30100069464178      0.09941606690485     -0.01951231445679
  C   0.80231286249449     -0.65854815138621      0.13185739252391
  H   0.68562282619230     -1.71645396141181      0.34814996559287
  N   -1.63715985572970     -0.54220189087176      0.11540012783458
  O   -2.60169297012577      0.20045780098279     -0.03251545284544
  O   -1.65845374022680     -1.74007216167061      0.35888785860760
  C   -0.31268939247677      1.49308338938797     -0.30376019653971
  N   -0.28283630329025      2.64633872252082     -0.53933710711562
  C   2.10829687354026     -0.10955651563292      0.01592541482415
  N   3.19860039426404      0.32653670117688     -0.07609568842555
