10
Coordinates from ORCA-job run
  C   -0.29745332774955      0.10261213475210     -0.03712672756008
  C   0.79241288464521     -0.64964944120283      0.20899531313526
  H   0.65514906899771     -1.68926827638646      0.49188190077078
  N   -1.64304824377514     -0.52358921453800      0.08959395863199
  O   -1.68128560543980     -1.70372127890012      0.40566978508125
  O   -2.59631274433860      0.21356262311822     -0.13696705075674
  C   -0.29109006399931      1.47273878020439     -0.41919409623936
  N   -0.25461358089896      2.60556302100868     -0.73751187412585
  C   2.10802639097405     -0.12178131264313      0.10807036105008
  N   3.20721522158439      0.29353296458717      0.02658843001267
