10
Coordinates from ORCA-job run
  C   -0.25378621017453      0.39574118081729     -0.05473955005223
  C   1.07273660055696      0.15285993661356     -0.08134551997310
  H   1.73010082609500      0.98187892167870     -0.33140226017696
  N   -1.25261181583646     -0.66113991641238      0.23033221726570
  O   -0.88944320145696     -1.59553944866732      0.93176985450274
  O   -2.35440873823805     -0.49566642675467     -0.28277733219179
  C   -0.80488705594958      1.67694740860315     -0.34451060878735
  N   -1.22723589161702      2.75130589192148     -0.57382154049937
  C   1.68865765711276     -1.10537444556223      0.16766765889725
  N   2.29187782950787     -2.10201310223759      0.33882708101512
