10
Coordinates from ORCA-job run
  C   -0.23692939599905      0.41012627141064      0.00345708960390
  C   1.07197138836148      0.11563946015112     -0.13552745945062
  H   1.77047430871226      0.94653703885228     -0.19505696028108
  N   -1.27938244081706     -0.63487591775997      0.13722702020948
  O   -1.05128466227186     -1.71830711532731     -0.38356072175296
  O   -2.27437369219463     -0.30671653538219      0.77503928325521
  C   -0.71888005765400      1.74847043330103      0.08091301365625
  N   -1.08787358446122      2.86512977837103      0.12623499515006
  C   1.62381372524586     -1.19473187469700     -0.18778952963683
  N   2.18146441107822     -2.23127153891962     -0.22193673075342
