10
Coordinates from ORCA-job run
  C   -0.29678621619874      0.09656922961332      0.05938223298602
  C   0.77565987469316     -0.63204747772103     -0.30624118516256
  H   0.61963195171760     -1.63009786753666     -0.70540720677243
  N   -1.65372326778839     -0.49452070747346     -0.09645689407009
  O   -1.71984371384824     -1.62461254342397     -0.55809639322269
  O   -2.58798695895070      0.21690902260389      0.25681830664550
  C   -0.25612511471403      1.41389254079891      0.59448803242489
  N   -0.18222527208298      2.50495734773164      1.03099594793568
  C   2.09882808405716     -0.12725006423454     -0.18357388120254
  N   3.20157063311517      0.27620051964190     -0.09090895956178
