10
Coordinates from ORCA-job run
  C   -0.24506776030245      0.39396167112116      0.09515589211803
  C   1.07189716330733      0.10627702165636      0.14141989555486
  H   1.74119921332678      0.87409967391545      0.52111411166410
  N   -1.25951505955848     -0.58470373876861     -0.36302027648493
  O   -0.89209901573011     -1.43303409790908     -1.16457768138750
  O   -2.37752292707474     -0.45039467666285      0.12331255619505
  C   -0.77320189355264      1.64366788879434      0.52983076408515
  N   -1.17629892138017      2.69168901414525      0.88248389824468
  C   1.66275657905878     -1.12879271489069     -0.24557458816402
  N   2.24785262190572     -2.11277004140134     -0.52114457182543
