10
Coordinates from ORCA-job run
  C   -0.29404782668028      0.10245062361791      0.06333782686200
  C   0.76246009207803     -0.65255716358486     -0.29514648353565
  H   0.58971470021327     -1.67425681251319     -0.62051607100588
  N   -1.65662301757897     -0.49318413305002     -0.00024663611850
  O   -1.74135786934975     -1.65268432427402     -0.37840758198644
  O   -2.57615451562343      0.24458371581628      0.33729284168371
  C   -0.23145472348398      1.45169360784864      0.50927971516292
  N   -0.14031091172630      2.56751424385658      0.87397760401705
  C   2.09024108554173     -0.14673188424083     -0.25774797025802
  N   3.19753298660966      0.25417212652352     -0.23382324482118
