10
Coordinates from ORCA-job run
  C   -0.30056654271437      0.10325021592328     -0.00556196618466
  C   0.79977727700638     -0.67391928298400     -0.00134369622390
  H   0.67990472088614     -1.75277267173410     -0.04156253411997
  N   -1.63806196868117     -0.54704408259162     -0.06389775812407
  O   -1.66289283427178     -1.76857484185665     -0.10746979230279
  O   -2.60031361130460      0.21310866443322     -0.06139775319321
  C   -0.30801599463103      1.52481461312128      0.04246415843346
  N   -0.27491674785089      2.70104021605281      0.08460551161611
  C   2.10721784688955     -0.11895419493383      0.05372867692370
  N   3.19886785467178      0.32105136456962      0.09943515317533
