10
Coordinates from ORCA-job run
  C   -0.21929427119950      0.41276351556859      0.07589536730052
  C   1.08016698244291      0.08632218437636     -0.07982964470310
  H   1.81489598456058      0.87878118524218      0.03889801814357
  N   -1.30992362299582     -0.58617101125752     -0.02065454844524
  O   -2.31489361405477     -0.33276834783877      0.63542080632318
  O   -1.10757598144333     -1.56494230366122     -0.72644524017504
  C   -0.64590117687832      1.73502184675723      0.39059317622025
  N   -0.96623148599019      2.84112571635271      0.63387718729126
  C   1.57759791690335     -1.21583308779186     -0.36508477840644
  N   2.09015926865508     -2.25329969774769     -0.58267034354894
