10
Coordinates from ORCA-job run
  C   -0.25487794783629      0.38114015212796     -0.11805086471199
  C   1.05281296029970      0.08100380545780     -0.25625044871920
  H   1.67917409158952      0.79486734856365     -0.78530340357288
  N   -1.21624373465350     -0.52964380322623      0.54757665101855
  O   -2.37706331329113     -0.44291278158460      0.16086315965533
  O   -0.76935247470145     -1.28264242350868      1.40210407073323
  C   -0.82718214846991      1.57669554995357     -0.64003753635232
  N   -1.26441119960138      2.58172196642045     -1.06894631369852
  C   1.68341693220995     -1.10493306008901      0.21304581519344
  N   2.29472683445451     -2.05529675411491      0.54399887045436
