10
Coordinates from ORCA-job run
  C   -0.29999578071835      0.10334045788139     -0.02246750278765
  C   0.79227803233749     -0.67428314355015      0.10794000151431
  H   0.66086186426348     -1.74438840536917      0.23844681936980
  N   -1.64434246107938     -0.53392818083039      0.01751880574717
  O   -2.59788705963256      0.22680430673887     -0.10778271990572
  O   -1.68244298414083     -1.74635994318703      0.16984806819338
  C   -0.29211195350358      1.51473678442942     -0.19922700650972
  N   -0.24267166633562      2.68204880696134     -0.34579579093845
  C   2.10499475449817     -0.12985328256777      0.08038411870107
  N   3.20031725431117      0.30288259949349      0.06213520661582
