10
Coordinates from ORCA-job run
  C   -0.29771893081045      0.10339545342674      0.04356231440064
  C   0.77893107712242     -0.66869600018514     -0.20007837213771
  H   0.62894860319622     -1.71755569854555     -0.43869896138886
  N   -1.65223117684621     -0.50954196842678     -0.02759314849446
  O   -2.59095823879269      0.24630393916334      0.19833203360060
  O   -1.71192319817553     -1.69919505172519     -0.30281631884680
  C   -0.26384246861526      1.48825316893424      0.36623048243980
  N   -0.19272807988417      2.63360997555606      0.63017781644152
  C   2.09982753653766     -0.14574563213772     -0.15211490683748
  N   3.20169487626800      0.26917181394000     -0.11800093917725
