10
Coordinates from ORCA-job run
  C   -0.26794148895873      0.38846658702395      0.03471128630791
  C   1.06382370728434      0.19002849124770      0.11429121699131
  H   1.69674649302521      1.06733023421161      0.22195165623077
  N   -1.23035473434632     -0.72231909129091     -0.15491380289644
  O   -0.90046652300648     -1.82273377129551      0.26620814813166
  O   -2.27042880701762     -0.42425567160008     -0.73283975384173
  C   -0.85396305748347      1.68616499606636      0.08031287314341
  N   -1.30662527577404      2.77102488867943      0.13849047310136
  C   1.71753389194842     -1.07190629887841      0.04690465324120
  N   2.35367579432869     -2.06080036416414     -0.01511675040945
