10
Coordinates from ORCA-job run
  C   -0.22146175805196      0.41425866035214      0.05786886911151
  C   1.08377697352904      0.07778980215070      0.00666843394398
  H   1.81252134159100      0.86485994530920      0.18349115863180
  N   -1.30847454181433     -0.57646865246683     -0.12479356345050
  O   -1.05841675719910     -1.55623543223432     -0.81372457672437
  O   -2.35989636184497     -0.31583351192267      0.45071785726374
  C   -0.66171902112468      1.73995771408822      0.33761167380723
  N   -0.99176958051020      2.84897221995702      0.55296794012920
  C   1.59231556494295     -1.22824067652583     -0.23810901380676
  N   2.11212414048225     -2.27006006870763     -0.41369877890583
