10
Coordinates from ORCA-job run
  C   -0.24116771904437      0.40699336508711     -0.01560052179867
  C   1.03692252053700      0.09276783779871     -0.31074009464138
  H   1.70219347422218      0.90587408332465     -0.59022415724646
  N   -1.23225435903084     -0.60588981991390      0.41821668899667
  O   -2.12821880619892     -0.18779755594915      1.14422142754877
  O   -1.06280108893415     -1.75321723487628      0.02832409705417
  C   -0.73024307657953      1.74454625516080     -0.05327295850933
  N   -1.10652831947503      2.85820373172113     -0.11119420136849
  C   1.59922775555606     -1.21345614263535     -0.26674606379665
  N   2.16286961894760     -2.24702451971772     -0.24498421623862
