10
Coordinates from ORCA-job run
  C   -0.29505824599701      0.10310456198084      0.05696438363040
  C   0.77107638415274     -0.66499162694808     -0.23974734072113
  H   0.61376055771897     -1.71643186702409     -0.46179440363054
  N   -1.64729651983500     -0.51922301063754      0.06878989425932
  O   -2.57628134601506      0.23146253534984      0.34649048983436
  O   -1.71506330499623     -1.71082848754559     -0.19586043102323
  C   -0.25248755209621      1.49020539221494      0.36897371927736
  N   -0.17798306349026      2.63764402149891      0.62241075519098
  C   2.08966016648955     -0.13503653259750     -0.26886190144432
  N   3.18967292406849      0.28509501370826     -0.29836516537318
