10
Coordinates from ORCA-job run
  C   -0.24562892065899      0.39259642874176     -0.05472904808703
  C   1.00721345176057      0.01382589044890     -0.38342721597181
  H   1.63138376207684      0.75285823239016     -0.88034551547491
  N   -1.21407141073645     -0.49898756933943      0.63119254104452
  O   -2.28128628716374      0.01939286574734      0.94435623160658
  O   -0.86720924453861     -1.65538377818872      0.82435113672074
  C   -0.73579024415884      1.70067234514285     -0.34017615839382
  N   -1.09752040312637      2.79036646279901     -0.59870147610458
  C   1.59988680948706     -1.25695476856874     -0.14289604258044
  N   2.20202248705852     -2.25838610917313      0.00137554724074
