14
Coordinates from ORCA-job run
  C   -0.52389430155348     -0.17797591119789      0.03585601413169
  C   0.70643323448471     -0.66660524725867      0.24227169371308
  H   0.76687410049471     -1.69432788419856      0.58939154403387
  N   -1.66103505869790     -1.09062734524871      0.32473962659116
  O   -1.43413345108412     -2.26461483340099      0.60062444047231
  O   -2.78531822092429     -0.58980283648628      0.26649137931750
  C   -0.94331918314973      1.17734997482666     -0.42735638097093
  H   -0.07278487372357      1.78716491370089     -0.66312617870657
  H   -1.53322220671200      1.68253531773212      0.33897411296037
  H   -1.57149318693394      1.10161770971581     -1.31656502617879
  C   1.99813716155887      0.05580211324896      0.03761719743384
  H   2.61074730265137     -0.47433688646021     -0.69757623631668
  H   2.56996511944840      0.07054820922746      0.97000123676005
  H   1.87204356414098      1.08327270579940     -0.30034342324091
