14
Coordinates from ORCA-job run
  C   -0.42907773576528      0.26009373574225     -0.00257977174473
  C   0.85847250186213      0.17869076363363     -0.36941119725030
  H   1.20685972849886      0.99665357888618     -0.99724007026253
  N   -1.01872661362583     -0.79716322019912      0.83255761646421
  O   -0.32058578252105     -1.31291513987408      1.70561384288902
  O   -2.19243398524797     -1.09036479396187      0.60076448155796
  C   -1.40235588641858      1.31984739163504     -0.40606598396067
  H   -1.88128328193565      1.75914587454908      0.47260596180789
  H   -0.88589703013860      2.10759034707854     -0.95542817700322
  H   -2.19104360812918      0.90217656841052     -1.03298769862366
  C   1.86249782762246     -0.88110570416480     -0.03296364244041
  H   1.40870207845539     -1.86425743494951      0.08571088782956
  H   2.62355919509768     -0.93170358810691     -0.81328182717287
  H   2.36131259224561     -0.64768837867897      0.91170557790976
