14
Coordinates from ORCA-job run
  C   -0.44130901149076      0.23594862728071     -0.03666822597485
  C   0.87937518100954      0.24081382190684     -0.27110329250659
  H   1.24111104260778      1.10492252108225     -0.82524163001999
  N   -1.05061128066605     -0.88801606480933      0.69013374482409
  O   -2.17773296269332     -1.22929221812248      0.32895644674265
  O   -0.41433839406665     -1.40818219512825      1.60670649539195
  C   -1.42787306082520      1.26004240969212     -0.49608142820514
  H   -0.90423253723310      2.09942732111329     -0.95465769903569
  H   -2.01889322182143      1.63116248206303      0.34499505015101
  H   -2.12293851858355      0.83141431171783     -1.21903901941259
  C   1.90469221738364     -0.77720149384921      0.12486666075916
  H   2.74224150752567     -0.75129259377265     -0.57408308611643
  H   1.49930578402257     -1.78770527232158      0.15674922440446
  H   2.29120325483085     -0.56004165685258      1.12446675899796
