14
Coordinates from ORCA-job run
  C   -0.52383416798480     -0.18152185321540      0.00649761449654
  C   0.70685707928563     -0.70546783027658     -0.07027352341075
  H   0.76908536285924     -1.78850575751980     -0.12953538777766
  N   -1.65777476809161     -1.14240540828822      0.02502052601164
  O   -2.77061716920476     -0.66223702890187      0.24657103424980
  O   -1.43914096129325     -2.33342450258870     -0.17345648618709
  C   -0.94468804105002      1.24717533459856      0.10203118562378
  H   -0.08019909159570      1.90577422177985      0.03749805909972
  H   -1.63868250458970      1.49731095343341     -0.70223171220855
  H   -1.46440127231323      1.43519675864390      1.04280147277889
  C   1.99660741392654      0.04856612639591     -0.09098978565702
  H   1.86991229798304      1.12759953667501     -0.01704036584095
  H   2.54261710493892     -0.17004420120566     -1.01346841738563
  H   2.63425871712970     -0.27801634953042      0.73557578620729
