14
Coordinates from ORCA-job run
  C   -0.52514253153971     -0.16885203848945      0.05571165818499
  C   0.69956848048643     -0.61764543533072      0.36181891104154
  H   0.75115897386869     -1.58733813426794      0.84913517952235
  N   -1.66586088145243     -1.05850420302872      0.39707927084870
  O   -1.46178160745860     -2.06726953872399      1.06542088849853
  O   -2.76894260667334     -0.71183705474319     -0.02857316265976
  C   -0.93259973088767      1.10214353067191     -0.61203400686660
  H   -0.06432512620668      1.73265407131666     -0.79603175948167
  H   -1.64117353207296      1.65199575654180      0.00990633118104
  H   -1.43135207033328      0.89838126732178     -1.56077119252414
  C   1.99495258766138      0.08189670783258      0.10749564372398
  H   1.87912285189804      1.04120052131161     -0.39469172136891
  H   2.64576803690269     -0.54832206871279     -0.50549711167906
  H   2.52060715580745      0.25049661830046      1.05203107157902
