14
Coordinates from ORCA-job run
  C   -0.43961742475608      0.23886692233421     -0.04122990367969
  C   0.89019411265995      0.25618801745777     -0.21499148028664
  H   1.29131650119905      1.20279523723851     -0.57244701072853
  N   -1.09536280770467     -0.98042333606905      0.45469838256514
  O   -0.66817783598384     -2.07164937508443      0.07764853165692
  O   -2.04739476814024     -0.81915995813080      1.21960575059071
  C   -1.37717207116449      1.38445641115599     -0.24518829202730
  H   -2.19903179112652      1.09797313430796     -0.90611215534670
  H   -0.84394851762914      2.22447599858115     -0.69144418351051
  H   -1.81543240836535      1.69944858499960      0.70260684217428
  C   1.88026901715864     -0.84327221323733      0.01873400085753
  H   2.85415813389049     -0.41773696938094      0.26650456099030
  H   1.57467302762104     -1.52028457245741      0.81520682973199
  H   1.99652683234117     -1.44867788171522     -0.88459187298751
