14
Coordinates from ORCA-job run
  C   -0.43744709638262      0.24012163714409     -0.05191203162769
  C   0.88256324654100      0.30863262655070      0.17628467321451
  H   1.25677364698728      1.30629308491029      0.39809590588502
  N   -1.06166732585827     -1.05881428255655     -0.34450836050042
  O   -2.19274216147646     -1.23953034401582      0.10862119757496
  O   -0.43247712408307     -1.87316198561180     -1.02023339607324
  C   -1.40968598881515      1.37310566566839      0.01342999413607
  H   -1.99226779584751      1.43581490102249     -0.90911258099810
  H   -2.11338944806711      1.23225178763373      0.83471806834338
  H   -0.87468317223513      2.31257335558449      0.15566647902139
  C   1.89216611643485     -0.79828299678754      0.16878064868192
  H   2.28443544787230     -0.94954478243084     -0.84063501161330
  H   2.72860867770983     -0.54199646451903      0.82100475587358
  H   1.47081297722006     -1.75046220259260      0.48879965808192
