14
Coordinates from ORCA-job run
  C   -0.44004431714111      0.23199148993426     -0.06704802010206
  C   0.87480985385207      0.18011611626695     -0.32708138698897
  H   1.23130272470562      0.93039605089399     -1.03035577214626
  N   -1.04136179442478     -0.74245779552798      0.85576006301137
  O   -2.17796722586471     -1.13012994509720      0.58168792809746
  O   -0.38913316993783     -1.10166753552337      1.83619220144027
  C   -1.42908913190699      1.17232285864431     -0.67596980798309
  H   -2.14316879248307      0.63276625744310     -1.29925543375304
  H   -1.99834252628650      1.68971294924137      0.10037592338846
  H   -0.90972045919920      1.91412837724948     -1.28346328811015
  C   1.90014345886334     -0.76711027606826      0.21685273322974
  H   2.72103153403464     -0.87321598482188     -0.49419541393404
  H   1.48705487606297     -1.75166332185329      0.43262780721602
  H   2.31248496972554     -0.38518924078147      1.15487246663428
