17

C	-0.465237	0.013809	-1.452481
C	0.0	0.0	0.0
Cl	0.15079	1.440277	-2.290559
H	1.090232	0.0	0.0
N	0.147054	-1.257754	-2.102318
O	1.249004	-1.17402	-2.606494
O	-0.544878	-2.265405	-1.991879
C	-1.909456	-0.071524	-1.676066
N	-3.063619	-0.125773	-1.894763
C	-0.516377	-1.18024	0.799263
H	-0.024785	-2.090122	0.458123
H	-1.601109	-1.301156	0.75175
H	-0.217915	-1.026019	1.838931
N	-0.519796	1.249555	0.638735
O	0.290501	2.101642	0.990789
O	-1.743376	1.337268	0.804945
F	2.520491	0.0	0.0
