17

C	-0.548124	-0.042494	-1.407078
C	0.0	0.0	0.0
Cl	-2.330391	0.143363	-1.468358
H	1.093123	0.0	0.0
N	0.094779	1.032392	-2.344983
O	1.276835	0.824425	-2.561568
O	-0.601505	1.92624	-2.788332
C	-0.219833	-1.319712	-2.03648
N	-0.014016	-2.358505	-2.546525
C	-0.411216	-1.200122	0.824531
H	-0.004875	-2.098913	0.358598
H	0.048975	-1.105466	1.806225
H	-1.493139	-1.297566	0.946801
N	-0.407825	1.263278	0.638874
O	-0.273559	2.292918	-0.026127
O	-0.797706	1.241765	1.808554
F	2.465171	0.0	0.0
