17

C	-0.571692	-0.02562	-1.395827
C	0.0	0.0	0.0
Cl	-2.364001	0.02646	-1.416682
H	1.093259	0.0	0.0
N	-0.027289	1.129363	-2.30125
O	-0.812337	1.919155	-2.792751
O	1.181618	1.078197	-2.454909
C	-0.159935	-1.246982	-2.085161
N	0.109658	-2.236021	-2.660686
C	-0.361159	-1.231512	0.80532
H	0.006217	-2.114092	0.279128
H	-1.433459	-1.329634	0.996164
H	0.168788	-1.175099	1.754329
N	-0.417054	1.231913	0.685014
O	-0.467368	2.266552	0.01444
O	-0.625403	1.187451	1.898655
F	2.459578	0.0	0.0
