17

C	-0.368686	0.091225	-1.463777
C	0.0	0.0	0.0
Cl	-0.143719	-1.489775	-2.265361
H	1.092707	0.0	0.0
N	-1.857636	0.437804	-1.715484
O	-2.132824	1.024365	-2.751877
O	-2.652203	0.034979	-0.876291
C	0.440489	1.063565	-2.197042
N	1.07567	1.770978	-2.885823
C	-0.402949	-1.216717	0.804223
H	0.01435	-2.106955	0.339682
H	0.062299	-1.116649	1.782413
H	-1.481911	-1.3226	0.91965
N	-0.429386	1.241372	0.650939
O	-0.73497	2.200286	-0.073205
O	-0.422795	1.288418	1.879793
F	2.464495	0.0	0.0
