17

C	-0.463452	0.016332	-1.45321
C	0.0	0.0	0.0
Cl	0.189772	1.423863	-2.29572
H	1.090186	0.0	0.0
N	0.117686	-1.26938	-2.096017
O	1.230388	-1.21752	-2.582964
O	-0.60675	-2.256446	-2.002048
C	-1.908896	-0.031384	-1.678366
N	-3.064322	-0.054261	-1.89504
C	-0.535769	-1.171086	0.798876
H	-0.220801	-1.031598	1.835787
H	-1.624065	-1.261916	0.762278
H	-0.075141	-2.093025	0.446198
N	-0.507151	1.260606	0.62845
O	-1.731935	1.377568	0.759685
O	0.312595	2.092609	1.004693
F	2.519545	0.0	0.0
