17

C	-0.466271	0.00724	-1.452337
C	0.0	0.0	0.0
Cl	0.179185	1.412815	-2.303317
H	1.090232	0.0	0.0
N	0.119706	-1.279189	-2.090515
O	1.225997	-1.222027	-2.592015
O	-0.595993	-2.272415	-1.977506
C	-1.911887	-0.048624	-1.6743
N	-3.067998	-0.078939	-1.886582
C	-0.533804	-1.165626	0.808106
H	-0.218418	-1.017176	1.843772
H	-0.072005	-2.089709	0.462467
H	-1.622203	-1.258052	0.772804
N	-0.506883	1.264504	0.621168
O	0.313344	2.098158	0.993322
O	-1.731797	1.382896	0.751737
F	2.519472	0.0	0.0
