17

C	-0.461028	0.016204	-1.454553
C	0.0	0.0	0.0
Cl	0.239538	1.374731	-2.333869
H	1.090129	0.0	0.0
N	0.060891	-1.305122	-2.078805
O	1.184966	-1.312703	-2.543526
O	-0.714696	-2.253422	-1.992511
C	-1.910328	0.02752	-1.65743
N	-3.071306	0.06957	-1.838702
C	-0.527834	-1.182084	0.786356
H	-0.246654	-1.033398	1.831629
H	-1.611376	-1.307215	0.724112
H	-0.027605	-2.08944	0.44725
N	-0.507428	1.261172	0.624714
O	-1.695349	1.288582	0.97663
O	0.280552	2.193521	0.769756
F	2.518147	0.0	0.0
