17

C	-0.444503	-0.012234	-1.455133
C	0.0	0.0	0.0
Cl	-2.199722	0.300012	-1.657114
H	1.093275	0.0	0.0
N	0.344619	1.020835	-2.339771
O	-0.258787	1.963501	-2.822548
O	1.520596	0.730628	-2.476324
C	-0.148366	-1.307057	-2.059186
N	0.055516	-2.352393	-2.556651
C	-0.552447	-1.159823	0.790332
H	-0.197245	-1.078851	1.816789
H	-1.645646	-1.181491	0.80337
H	-0.16707	-2.091992	0.37509
N	-0.404663	1.295905	0.581143
O	-1.019934	1.31086	1.652453
O	-0.061611	2.309034	-0.032506
F	2.479894	0.0	0.0
