17

C	-0.561644	-0.035945	-1.401213
C	0.0	0.0	0.0
Cl	-2.348799	0.101941	-1.438374
H	1.093254	0.0	0.0
N	0.042076	1.070669	-2.327593
O	-0.6907	1.930409	-2.78003
O	1.235297	0.919149	-2.528295
C	-0.206475	-1.293196	-2.055523
N	0.01738	-2.313487	-2.594376
C	-0.394295	-1.209579	0.819992
H	-1.472783	-1.303574	0.972845
H	0.09671	-1.130047	1.788188
H	-0.006547	-2.104494	0.330921
N	-0.410182	1.253582	0.653943
O	-0.31073	2.289645	-0.008358
O	-0.767674	1.22004	1.833496
F	2.463301	0.0	0.0
