17

C	-0.416479	-0.014627	-1.452048
C	0.0	0.0	0.0
Cl	0.218935	-1.486437	-2.235777
H	1.091938	0.0	0.0
N	-1.944875	-0.072762	-1.683599
O	-2.430258	0.666346	-2.528427
O	-2.549136	-0.896112	-1.007991
C	0.107277	1.131865	-2.192417
N	0.550259	2.024099	-2.815007
C	-0.336474	-1.19176	0.883576
H	-1.386451	-1.232665	1.178458
H	0.298674	-1.106232	1.764716
H	-0.067979	-2.112923	0.369372
N	-0.507006	1.222842	0.632796
O	-1.210156	1.99093	-0.042085
O	-0.213177	1.416511	1.81043
F	2.471221	0.0	0.0
