17

C	-0.295962	0.050577	-1.504744
C	0.0	0.0	0.0
Cl	-2.02191	0.499819	-1.857851
H	1.105288	0.0	0.0
N	0.562571	1.036818	-2.095198
H	1.516616	0.884116	-1.758976
H	0.540809	0.968717	-3.105745
C	-0.139494	-1.295376	-2.0891
N	0.029381	-2.364582	-2.548266
N	-0.579181	-1.20042	0.593927
H	-0.650113	-1.053681	1.594301
H	0.071249	-1.970268	0.467761
C	-0.490171	1.246672	0.708789
H	-1.570796	1.195975	0.868873
H	0.016156	1.32529	1.674968
H	-0.254195	2.135764	0.124477
Cl	3.427351	0.0	0.0
