17

C	-0.292446	0.06023	-1.504985
C	0.0	0.0	0.0
Cl	-2.044342	0.47545	-1.828423
H	1.099079	0.0	0.0
N	0.535917	1.074542	-2.094331
H	1.486142	0.950702	-1.738327
H	0.545779	0.989578	-3.103028
C	-0.11952	-1.271107	-2.120769
N	0.040308	-2.262886	-2.731646
N	-0.49751	-1.239476	0.568889
H	-1.31695	-1.070184	1.138612
H	0.221915	-1.656466	1.144593
C	-0.457786	1.257361	0.723214
H	-0.16999	2.151721	0.169005
H	-1.544725	1.262771	0.854499
H	0.019098	1.286509	1.706086
Cl	3.38191	0.0	0.0
