17

C	-0.319696	-0.19375	-1.490937
C	0.0	0.0	0.0
Cl	-0.04979	1.406633	-2.399705
H	1.096201	0.0	0.0
N	0.523227	-1.227517	-1.970614
H	0.43996	-1.361297	-2.97009
H	1.490025	-1.018806	-1.713521
C	-1.73383	-0.508264	-1.735588
N	-2.863009	-0.736094	-1.967657
N	-0.54384	-1.189682	0.673705
H	-0.295165	-1.120564	1.6552
H	-0.052076	-1.998057	0.309326
C	-0.588726	1.240646	0.633354
H	-0.159419	2.147374	0.210998
H	-1.677121	1.256067	0.516467
H	-0.358253	1.231287	1.703166
Cl	3.440969	0.0	0.0
