17

C	-0.309866	-0.0547	-1.503986
C	0.0	0.0	0.0
Cl	-0.037497	1.624556	-2.255608
H	1.105007	0.0	0.0
N	0.537998	-1.037533	-2.073209
H	1.503186	-0.853592	-1.791166
H	0.463399	-1.071808	-3.081814
C	-1.721931	-0.348606	-1.787732
N	-2.850407	-0.557174	-2.038863
N	-0.535013	-1.253416	0.557851
H	-0.045581	-2.017276	0.101939
H	-0.255767	-1.282671	1.53346
C	-0.59633	1.172728	0.744022
H	-0.381939	1.058311	1.810659
H	-0.160575	2.115501	0.4186
H	-1.6827	1.200951	0.614334
Cl	3.445086	0.0	0.0
