17

C	-0.549613	0.00357	-1.439831
C	0.0	0.0	0.0
Cl	0.280786	-1.365744	-2.362433
H	1.097725	0.0	0.0
N	-1.962542	-0.152956	-1.407346
H	-2.334132	-0.351719	-2.327054
H	-2.148708	-0.918461	-0.764132
C	-0.200844	1.22478	-2.171192
N	0.063256	2.205891	-2.758393
N	-0.512043	-1.231201	0.634793
H	-0.499225	-1.085484	1.63709
H	0.1631	-1.966972	0.449445
C	-0.498726	1.217166	0.762996
H	-0.207855	2.140551	0.260585
H	-1.584802	1.197808	0.874647
H	-0.028541	1.22518	1.749851
Cl	3.441569	0.0	0.0
