16

C	0.0	0.0	0.0
C	-0.553057	-0.109135	-1.413942
Br	1.958721	0.0	0.0
H	-1.642671	-0.206155	-1.293196
H	-0.281483	1.002909	0.320498
C	-0.502355	-1.033437	0.987022
H	-1.594808	-1.03526	0.94128
H	-0.124574	-2.02804	0.756111
H	-0.183382	-0.757791	1.994788
N	-0.090234	-1.424389	-2.05235
O	-0.545875	-2.46798	-1.592582
O	0.71044	-1.35955	-2.98678
N	-0.225045	1.02218	-2.206971
H	-0.794926	1.036817	-3.042037
H	0.750019	0.991825	-2.477516
Br	-3.888484	0.0	0.0
