16

C	0.0	0.0	0.0
C	-0.565717	-0.188196	-1.400126
Br	1.958786	0.0	0.0
H	-1.654203	-0.281257	-1.261754
H	-0.280956	1.019547	0.263262
C	-0.498148	-0.9721	1.049873
H	-1.591109	-0.968282	1.013874
H	-0.167542	-0.640811	2.03701
H	-0.129569	-1.981485	0.872854
N	-0.10648	-1.532848	-1.973678
O	0.673384	-1.515403	-2.927023
O	-0.545407	-2.551621	-1.446932
N	-0.254864	0.901652	-2.256696
H	0.71184	0.852357	-2.553013
H	-0.849075	0.878717	-3.074416
Br	-3.895079	0.0	0.0
