16

C	0.0	0.0	0.0
C	-0.599957	-0.28583	-1.387474
Br	1.955004	0.0	0.0
H	-1.61846	-0.642674	-1.199025
H	-0.296185	1.0196	0.248673
C	-0.465115	-0.959431	1.082295
H	-0.121284	-1.971996	0.871821
H	-0.078069	-0.644831	2.054014
H	-1.557525	-0.939248	1.101032
N	0.137916	-1.436183	-2.027651
O	0.922407	-1.194259	-2.939081
O	-0.072958	-2.552989	-1.553433
N	-0.667382	0.810059	-2.296824
H	0.150308	1.403063	-2.236718
H	-1.507501	1.333693	-2.081274
Br	-3.817926	0.0	0.0
