16

C	0.0	0.0	0.0
C	-0.415294	-0.118953	-1.47234
Br	1.953493	0.0	0.0
H	0.036523	-1.013899	-1.905449
H	-0.290427	0.983335	0.373912
C	-0.582301	-1.115322	0.837978
H	-0.295423	-2.092385	0.439516
H	-1.673345	-1.022289	0.826392
H	-0.234857	-1.045869	1.870063
N	0.222021	1.023366	-2.248641
O	0.029428	2.156752	-1.817709
O	0.828584	0.745418	-3.279651
N	-1.801238	-0.070057	-1.766762
H	-2.367908	0.486059	-1.129994
H	-2.229016	-0.984575	-1.782185
Br	-4.541195	0.0	0.0
