16

C	0.0	0.0	0.0
C	-0.586288	-0.237268	-1.399314
Br	1.955108	0.0	0.0
H	-1.638914	-0.498294	-1.230643
H	-0.296289	1.013043	0.272525
C	-0.474389	-0.985829	1.052087
H	-1.567145	-0.963764	1.062204
H	-0.096414	-0.696247	2.035704
H	-0.132777	-1.995505	0.823511
N	0.059278	-1.451337	-2.017568
O	-0.298772	-2.547647	-1.583611
O	0.918714	-1.27838	-2.877279
N	-0.519278	0.85474	-2.315419
H	0.35197	1.361992	-2.232726
H	-1.306874	1.464099	-2.135488
Br	-3.839494	0.0	0.0
