14
Coordinates from ORCA-job run
  C   -0.27527806400534      0.07050710799829     -0.80971744204255
  C   0.93690171536774     -0.76341642718098     -0.40712868584371
  Br  -0.42498087774731      0.11722678379024     -2.74165233166997
  H   0.76144331778491     -1.78732383004797     -0.74858268104188
  H   1.01463163075496     -0.77464256671273      0.68280775366747
  C   -1.56109847737742     -0.45043518435845     -0.19641221779282
  H   -1.73580758439324     -1.47848916892381     -0.51622539595695
  H   -2.40137819985337      0.16781506458406     -0.51045622142531
  H   -1.48026555165973     -0.42049051009750      0.89458388805127
  N   -0.10744462055718      1.50690681185009     -0.30934305930338
  O   -0.92356473597792      2.32809003244228     -0.70104390146108
  O   0.78526094184975      1.69988012720249      0.51180986492492
  C   2.19619948094147     -0.28543196104266     -0.97062909707221
  N   3.21738102487266      0.07080372049666     -1.42501047303381
