14
Coordinates from ORCA-job run
  C   -0.24922395406543      0.06273101290823     -0.86562099088314
  C   0.87787776122021     -0.81062038177653     -0.31390829103373
  Br  -0.20465109210532      0.04489034201472     -2.79607389289685
  H   0.74104669819819     -1.82690634833635     -0.69190124542197
  H   0.80347235327471     -0.83215336679912      0.77552229215677
  C   -1.61183391718905     -0.38098408063376     -0.36399028863763
  H   -2.38960840309335      0.27650453361863     -0.75531995713201
  H   -1.81432410665749     -1.39886874453763     -0.69969616045835
  H   -1.62445325116346     -0.34656486786390      0.72779307568783
  N   -0.03443185353544      1.49132842495934     -0.34763180140768
  O   -0.18909232244887      2.44014226161358     -1.09876018767372
  O   0.22174332379644      1.54329339776112      0.85299371954330
  C   2.20314072552857     -0.32643417375104     -0.68958992364151
  N   3.27033803824030      0.06564199082270     -0.97981634820131
