14
Coordinates from ORCA-job run
  C   -0.28465747740711      0.07127854343255     -0.82113817526482
  C   0.92952617573819     -0.78368314346015     -0.46440676280306
  Br  -0.47727861160076      0.15718841367844     -2.74347887273821
  H   1.00104331061924     -0.86465218659631      0.62210910537089
  H   0.77130460092797     -1.78374128282653     -0.87626425281005
  C   -1.56041217648583     -0.45064621996597     -0.18485475605374
  H   -1.76142472581456     -1.46387863041207     -0.53522833234702
  H   -2.40234490650515      0.18808848215588     -0.45436795972898
  H   -1.44463091868620     -0.45814560300214      0.90249481830920
  N   -0.07752685014222      1.48476754934193     -0.26553989921590
  O   0.55126673070188      1.53298466623590      0.78920458013662
  O   -0.61668746148127      2.42137189537904     -0.83277849487880
  C   2.18118201852890     -0.24082452314025     -0.98399002816652
  N   3.19164029160693      0.18889203917970     -1.39776096980961
