14
Coordinates from ORCA-job run
  C   -0.19897769756360      0.27024740997046     -0.82072272407767
  C   1.22627018481312     -0.17626556309754     -0.49255601080734
  Br  -0.47449960098702      0.21161758840437     -2.74556035272423
  H   1.94640445840590      0.41468894218997     -1.05866966509416
  H   1.41248686912992      0.00957552764004      0.57103351976644
  C   -1.26645404268080     -0.52871772871275     -0.11124715999238
  H   -1.18798657147838     -1.57712418031367     -0.40024964275272
  H   -1.12539803309828     -0.44342123698425      0.97035754205547
  H   -2.25643356075932     -0.15767550037014     -0.36541923299528
  N   -0.31731212663359      1.74625803058864     -0.43302644948758
  O   -1.43770658846900      2.16046544456176     -0.16423136654478
  O   0.71520472549136      2.40919339650430     -0.44372874036467
  C   1.41041308619712     -1.59650637376043     -0.77120986606814
  N   1.55298889763258     -2.74233575662078     -0.98076985091296
