14
Coordinates from ORCA-job run
  C   -0.20275842521274      0.25927924936266     -0.82565433308898
  C   1.22974276485743     -0.17208087467899     -0.51090746754896
  Br  -0.51446962596175      0.13278641850982     -2.74157286160131
  H   1.43592424273113      0.04283311903115      0.54325878891007
  H   1.93778121753106      0.40530684386034     -1.10572413220720
  C   -1.25380307611296     -0.51695870266849     -0.06694026272220
  H   -1.09290941534630     -0.38888556187458      1.00767647423556
  H   -2.24915324511524     -0.15857727609067     -0.31801160497482
  H   -1.17718513134954     -1.57568703624125     -0.31520264142913
  N   -0.32859299152565      1.74583280447891     -0.48444328870510
  O   -1.46084960529216      2.17706047979922     -0.31047329865063
  O   0.70933332529320      2.39855702528147     -0.43144817237020
  C   1.41299709317809     -1.59919614814379     -0.75433577191724
  N   1.55494287232543     -2.75027034062583     -0.93322142792986
