14
Coordinates from ORCA-job run
  C   -0.31860646525978      0.15534473103640     -0.97084554339194
  C   1.02499435911827     -0.56146549199821     -1.08778800256585
  Br  -1.06329165756971      0.33092300012688     -2.76132645559362
  H   1.68801223392525     -0.01039793008741     -1.75470503734005
  H   0.84897336817959     -1.55145933419606     -1.51634806744841
  C   -1.30296032306267     -0.53222641080584     -0.05468356372168
  H   -2.25375458201907     -0.00454135308071     -0.04602020784212
  H   -0.90305507238441     -0.55520410544513      0.96208613415683
  H   -1.46172142253514     -1.55493313872693     -0.40106232465133
  N   -0.07045147339752      1.58584482774894     -0.48605687478289
  O   1.01862406045718      2.08129124994600     -0.75397550115539
  O   -0.99034260423720      2.13453294601700      0.10737120405746
  C   1.65345305839217     -0.70190616775081      0.22474088633982
  N   2.13112652039304     -0.81680282278412      1.29061335393917
