14
Coordinates from ORCA-job run
  C   -0.25306552751190      0.08080907660779     -0.85827746935811
  C   0.88387142672417     -0.81750837248133     -0.37088708836873
  Br  -0.23168546159742      0.17233892559201     -2.78731952446689
  H   0.74709764811361     -1.81074737481242     -0.80590992749848
  H   0.82236490327761     -0.90337616278276      0.71614392983247
  C   -1.60789029029591     -0.39623370813073     -0.36631927655733
  H   -1.81049456900560     -1.39498126685529     -0.75521325536215
  H   -2.39265698269700      0.27836833317344     -0.71182150550611
  H   -1.60767900301994     -0.42213561774284      0.72585326415206
  N   -0.03887932329433      1.47900612074673     -0.26377202201045
  O   0.24907875847053      1.46553810148200      0.93070849995638
  O   -0.22745268407729      2.46709433997007     -0.95420288351084
  C   2.20267300962918     -0.30607396196809     -0.73301897408149
  N   3.26471809528430      0.10690156720144     -1.01296376722035
