14
Coordinates from ORCA-job run
  C   -0.32473475935362      0.11489618162227     -0.97817669571404
  C   1.01488056490397     -0.61514964930336     -1.04933029407495
  Br  -1.09570879081899      0.13127207935597     -2.76613784790194
  H   1.66971783921861     -0.12921764303334     -1.77255819696173
  H   0.83014152975970     -1.63914728301045     -1.38402806887673
  C   -1.29751538286938     -0.48262430426699      0.01050734288141
  H   -2.24630857965309      0.04807011502750     -0.01453154204811
  H   -1.46485085806879     -1.53152242216489     -0.24011936641069
  H   -0.88280625042257     -0.41573393497542      1.01931535615719
  N   -0.06505862510736      1.58254120421453     -0.62908047548229
  O   1.02016760151739      2.04763189975197     -0.95950907323387
  O   -0.97349164154611      2.18610168023864     -0.07238873959081
  C   1.66158250509803     -0.63842023154882      0.26170880123597
  N   2.15298484734219     -0.65769769190761      1.32732880002060
