18

C	-0.297099	0.01755	-1.506533
C	0.0	0.0	0.0
Cl	-2.041828	0.319941	-1.861413
H	1.093314	0.0	0.0
C	0.581793	1.041802	-2.179042
H	1.595444	0.860157	-1.805718
H	0.531283	0.967409	-3.266024
H	0.246466	2.023489	-1.848757
N	0.015066	-1.367907	-2.068012
O	1.126215	-1.523458	-2.562081
O	-0.823379	-2.259972	-1.941411
N	-0.525135	-1.140157	0.729458
H	-1.306586	-1.568082	0.246619
H	0.209871	-1.831092	0.804257
N	-0.426605	1.289461	0.536008
H	-1.302961	1.148451	1.027351
H	0.2703	1.538409	1.229103
F	2.66501	0.0	0.0
