18

C	-0.53806	0.029942	-1.443684
C	0.0	0.0	0.0
Cl	0.251824	-1.2549	-2.391858
H	1.097313	0.0	0.0
C	-2.035715	-0.148824	-1.571889
H	-2.343534	-0.07384	-2.617086
H	-2.27622	-1.132046	-1.175827
H	-2.570595	0.606639	-0.99665
N	-0.134097	1.364232	-2.05199
O	0.975998	1.490846	-2.547215
O	-0.96361	2.273652	-1.937072
N	-0.524773	-1.235622	0.617658
H	-0.615768	-0.996581	1.598331
H	0.231182	-1.911631	0.557223
N	-0.420137	1.159342	0.774702
H	0.367012	1.795361	0.791995
H	-1.219265	1.644396	0.387548
F	2.641403	0.0	0.0
