18

C	-0.318311	0.011669	-1.494617
C	0.0	0.0	0.0
Cl	-2.09603	0.021762	-1.836019
H	1.100158	0.0	0.0
C	0.354889	1.190796	-2.145604
H	0.263896	1.165672	-3.231126
H	-0.111724	2.088584	-1.744043
H	1.404151	1.143138	-1.838386
N	0.198488	-1.279528	-2.129631
O	-0.305906	-2.33842	-1.760122
O	1.093465	-1.190251	-2.964534
N	-0.528221	-1.110886	0.763982
H	0.190831	-1.822694	0.816466
H	-1.331818	-1.523114	0.302669
N	-0.448833	1.289756	0.554604
H	-0.952649	1.057787	1.402369
H	0.399243	1.767988	0.842088
F	2.649936	0.0	0.0
