18

C	-0.409948	0.011213	-1.471534
C	0.0	0.0	0.0
Cl	0.398264	1.365564	-2.300052
H	1.09987	0.0	0.0
C	-0.012057	-1.277698	-2.149038
H	-0.549638	-2.101836	-1.687886
H	-0.20868	-1.232078	-3.22308
H	1.058203	-1.387358	-1.957574
N	-1.917467	0.233103	-1.572299
O	-2.369592	1.327752	-1.887424
O	-2.601248	-0.738579	-1.244764
N	-0.445239	-1.21508	0.643512
H	0.206311	-1.420163	1.391191
H	-1.377272	-1.083459	1.023371
N	-0.575634	1.187055	0.668498
H	-0.200043	2.010608	0.204935
H	-0.150451	1.193703	1.592091
F	2.662997	0.0	0.0
