18

C	-0.390275	0.063483	-1.471059
C	0.0	0.0	0.0
Cl	-2.139481	0.44682	-1.687095
H	1.093217	0.0	0.0
C	0.478081	1.073544	-2.18728
H	0.374018	0.998017	-3.272457
H	0.178875	2.064827	-1.849659
H	1.503122	0.875075	-1.857506
N	-0.149471	-1.319119	-2.068166
O	1.030184	-1.578595	-2.283905
O	-1.090414	-2.08039	-2.263462
N	-0.481837	-1.223668	0.608025
H	-1.433363	-1.126005	0.947192
H	0.128572	-1.452804	1.382452
N	-0.369306	1.271383	0.618323
H	-1.292949	1.21851	1.034934
H	0.313272	1.457169	1.343558
F	2.648756	0.0	0.0
