18

C	-0.324983	0.075134	-1.504918
C	0.0	0.0	0.0
Cl	-1.989043	0.654203	-1.846191
H	1.098166	0.0	0.0
C	0.712517	0.938596	-2.19732
H	0.667701	0.826553	-3.283042
H	0.516097	1.982785	-1.946362
H	1.684273	0.647559	-1.774451
N	-0.204829	-1.336206	-2.071784
O	0.901227	-1.84355	-1.909407
O	-1.150998	-1.871565	-2.638056
N	-0.626213	-1.188504	0.587062
H	0.085409	-1.913547	0.594237
H	-0.79735	-0.942881	1.55486
N	-0.394888	1.188562	0.728873
H	0.365694	1.853572	0.687442
H	-1.24149	1.605077	0.362093
F	2.697323	0.0	0.0
