18
Coordinates from ORCA-job run
  C   -0.59749527376639      0.24205306822208     -0.34632847717965
  C   0.81741934751803      0.51129648953667      0.21043576930528
  H   -0.63193705142649      0.74639650474249     -1.32158527736793
  H   0.91536018403576      1.59587442046342      0.34730393799294
  C   -1.65909628671860      0.86413096461546      0.55748640212675
  H   -1.67280690292768      0.37428826943596      1.53525341814999
  H   -2.65249660185430      0.75615814301497      0.11458040740021
  H   -1.47541748747718      1.93094751840244      0.71477636743792
  C   -0.86601480273927     -1.24556881725912     -0.55692743662355
  H   -0.78247654672384     -1.79203123129862      0.38718783808508
  H   -1.87949277628982     -1.39342919863581     -0.93869077796035
  H   -0.17670250716578     -1.69382237602772     -1.27522406325467
  C   1.94563543726183      0.03823596368313     -0.71301126309816
  H   1.80159856530337      0.45417820594225     -1.71338858898890
  H   2.91549439253293      0.37079438095028     -0.33790389860957
  H   1.96923631140131     -1.04942429983326     -0.78722138409224
  C   0.96212078040216     -0.09784983376301      1.53678625237197
  N   1.06707121863396     -0.61222817219162      2.58747077430485
