18
Coordinates from ORCA-job run
  C   -0.48751932169380     -0.36224884095091     -0.24936147239471
  C   0.79328115248840      0.15291018073087      0.44177975695298
  H   -0.17027116705276     -1.04199546417056     -1.05154311133628
  H   0.48715510319721      0.78846381533060      1.28422817240798
  C   -1.27676477388703      0.78974659748475     -0.86775888290682
  H   -1.51533001620142      1.54455990960472     -0.11086692805056
  H   -0.73607182903495      1.27840728398107     -1.67989846581590
  H   -2.22060869478462      0.42174716839838     -1.27747841125153
  C   -1.35847694759650     -1.14188420241142      0.73339249220413
  H   -0.82478505881528     -1.99114256037514      1.16531374970162
  H   -1.68768202669114     -0.49330369030021      1.55195051761799
  H   -2.25094993069080     -1.52548963626753      0.23259056836200
  C   1.71587977778156      0.96009015369070     -0.47958705267507
  H   1.95620348670133      0.38392148639503     -1.37657353654866
  H   2.65037972382447      1.20608011793906      0.02803161084682
  H   1.23901383349417      1.89329699979771     -0.78039011756745
  C   1.54028410340921     -0.97636726929738      1.00627916128976
  N   2.14626258555194     -1.88879204957973      1.42989194916369
