18
Coordinates from ORCA-job run
  C   -0.52150536930776     -0.33212412903112     -0.22114483800891
  C   0.83863369687097      0.10235397997004      0.36567512944002
  H   -0.30948094453800     -0.96248320876807     -1.09515989330190
  H   0.64080536006643      0.68405320173988      1.27679479590968
  C   -1.33303838333866      0.87877509970994     -0.67675478529874
  H   -2.32509285589484      0.56306303848181     -1.00887880349237
  H   -1.46883004470602      1.58582883611832      0.14858006873838
  H   -0.86322146507450      1.40850214836134     -1.50702159920649
  C   -1.31188707913523     -1.15602102636072      0.79305772178236
  H   -1.53619188328211     -0.55704123074592      1.68184206801755
  H   -2.26203890778807     -1.48307966239328      0.36331519289336
  H   -0.76353154006023     -2.04517034640168      1.11117887743826
  C   1.68738349886902      0.94954235863163     -0.58993771652076
  H   2.67493546662339      1.13848524527453     -0.16515654979916
  H   1.21103238226293      1.91192410968435     -0.77847323989538
  H   1.81930725359068      0.43090888383372     -1.54276228071487
  C   1.60411973468531     -1.08100249572319      0.77295420339145
  N   2.22060108015668     -2.03551480238159      1.06989164862750
