18
Coordinates from ORCA-job run
  C   -0.61911948653724      0.18960515581933     -0.34089338961804
  C   0.80965125076861      0.55124765442905      0.11973399244613
  H   -0.71113234954120      0.58958485613870     -1.35982658139682
  H   0.88057546375925      1.64625058714101      0.14291833965780
  C   -1.65925539111202      0.87375426421421      0.54280544877963
  H   -1.61476755471124      0.48848290467744      1.56544293157301
  H   -2.66715226778142      0.69357168395053      0.16026688098229
  H   -1.50267098008190      1.95574218070740      0.58044755803440
  C   -0.85042094263229     -1.31838570339891     -0.38632781194827
  H   -0.70669791222397     -1.76263682935990      0.60314036885922
  H   -1.87517649467520     -1.53151018464485     -0.70124930690164
  H   -0.18088989507385     -1.81969087021757     -1.08820049129710
  C   1.91036180035841      0.01594921888611     -0.80301879382274
  H   2.88487569947691      0.41178544011165     -0.51034832792295
  H   1.70887111201442      0.32182152706791     -1.83278330071049
  H   1.96526847862042     -1.07255737220916     -0.76655773160320
  C   1.03073155901525      0.08393713329310      1.49234397273147
  N   1.19694791035708     -0.31895164660603      2.58310624215728
