16

C	-0.104589	-0.01265	-1.530499
C	0.0	0.0	0.0
Cl	-0.203662	1.665568	-2.183399
H	1.095514	0.0	0.0
H	-0.313769	-1.003769	0.317692
N	1.002539	-0.674256	-2.13725
H	0.833748	-1.671974	-2.084582
H	1.8204	-0.452464	-1.524526
N	-1.41317	-0.705715	-1.941081
O	-1.340934	-1.899116	-2.236794
O	-2.463061	-0.080856	-1.829937
C	-0.702504	1.088279	0.78171
H	-1.759969	1.178401	0.513786
H	-0.636632	0.865618	1.850829
H	-0.221086	2.052275	0.61573
F	2.71596	0.0	0.0
