16

C	-0.062161	-0.345454	-1.483658
C	0.0	0.0	0.0
Cl	-0.397598	1.249818	-2.531641
H	1.094695	0.0	0.0
H	-0.34532	-0.889959	0.534486
N	1.08357	-1.000833	-1.831622
H	1.193907	-1.209424	-2.811055
H	1.925941	-0.662764	-1.281001
N	-1.293832	-1.145213	-1.933799
O	-2.297255	-1.085185	-1.228504
O	-1.199649	-1.789102	-2.974525
C	-0.678482	1.254939	0.501928
H	-1.736883	1.285821	0.230158
H	-0.191782	2.146853	0.10748
H	-0.603894	1.287258	1.59294
F	2.765883	0.0	0.0
