14

C	0.0	0.0	0.0
C	-0.468385	0.123312	-1.448553
F	1.404752	0.0	0.0
H	-1.556633	-0.032785	-1.455909
H	0.017963	-0.671542	-2.019295
N	-0.432472	1.136759	0.7544
H	-0.223035	0.977411	1.73594
H	-1.449053	1.172462	0.663385
N	-0.38364	-1.323384	0.449267
H	-1.398577	-1.340328	0.42274
H	-0.092309	-1.451907	1.412439
C	-0.195836	1.424419	-2.059388
N	-0.040674	2.432291	-2.641549
Cl	-3.5778	0.0	0.0
