14

C	0.0	0.0	0.0
C	-0.453681	0.119154	-1.460472
F	1.405931	0.0	0.0
H	-0.09322	1.067823	-1.869369
H	-1.551708	0.116093	-1.437319
N	-0.451607	1.067492	0.835627
H	-1.472674	1.003454	0.855226
H	-0.187428	1.956365	0.427334
N	-0.479045	-1.209128	0.54999
H	-0.253021	-1.251695	1.533159
H	-0.129541	-2.01686	0.054972
C	0.045184	-0.97368	-2.289103
N	0.431395	-1.872461	-2.938382
Cl	-3.732679	0.0	0.0
