14

C	0.0	0.0	0.0
C	-0.454837	-0.104139	-1.460987
F	1.405933	0.0	0.0
H	-1.552208	-0.062356	-1.436917
H	-0.131452	-1.065612	-1.870878
N	-0.449041	1.227152	0.552704
H	-0.223949	1.242386	1.538229
H	-0.016169	2.009691	0.081567
N	-0.479722	-1.053211	0.833035
H	-1.498457	-0.941555	0.85612
H	-0.264837	-1.949545	0.411243
C	0.08362	0.968512	-2.29164
N	0.506581	1.846793	-2.946118
Cl	-3.696701	0.0	0.0
