14

C	0.0	0.0	0.0
C	-0.298125	0.132704	-1.529955
F	1.409018	0.0	0.0
H	0.626705	-0.119414	-2.059833
H	-0.549055	1.171017	-1.755717
N	-0.461515	1.152426	0.691089
H	-0.476807	0.966077	1.684241
H	0.142986	1.935883	0.484156
N	-0.506371	-1.147932	0.66571
H	-1.528847	-1.031043	0.673326
H	-0.295357	-1.983128	0.131706
C	-1.330491	-0.738596	-2.087129
N	-2.025793	-1.473137	-2.682439
Cl	-3.756121	0.0	0.0
