14

C	0.0	0.0	0.0
C	-0.472474	-0.462004	-1.374205
F	1.429019	0.0	0.0
H	-0.153357	0.269547	-2.118269
H	-1.569827	-0.49483	-1.324927
N	-0.465703	1.326928	0.224046
H	-1.489435	1.2663	0.203532
H	-0.191411	1.618136	1.156773
N	-0.413162	-0.942986	0.988412
H	-0.210784	-0.588426	1.915233
H	0.057998	-1.831192	0.856519
C	0.062833	-1.77572	-1.708962
N	0.491996	-2.837399	-1.964931
Cl	-3.682761	0.0	0.0
