14

C	0.0	0.0	0.0
C	-0.217212	0.157517	-1.525982
F	1.37998	0.0	0.0
H	0.338104	-0.681653	-1.953326
H	0.334467	1.06848	-1.772901
N	-0.438595	1.172304	0.703749
H	-0.217022	1.049416	1.688131
H	-1.459287	1.159284	0.626819
N	-0.434788	-1.293085	0.451843
H	-1.456698	-1.266152	0.393992
H	-0.192584	-1.379215	1.435004
C	-1.480059	0.225312	-2.263974
N	-2.227899	0.279316	-3.168395
Cl	-3.443155	0.0	0.0
