14

C	0.0	0.0	0.0
C	-0.180492	0.32156	-1.490629
F	1.437792	0.0	0.0
H	0.359145	1.249827	-1.663546
H	0.361007	-0.511212	-1.944286
N	-0.369638	0.958181	0.954504
H	-0.397185	1.910815	0.636342
H	-1.126645	0.767207	1.591343
N	-0.407314	-1.343635	0.316932
H	0.407757	-1.842012	0.614044
H	-1.128859	-1.40407	1.025664
C	-1.491911	0.29287	-2.135393
N	-2.381814	0.2668	-2.894757
Cl	-4.45382	0.0	0.0
