15
Coordinates from ORCA-job run
  C   0.90081621033396      0.17995375846404     -0.45343855162544
  C   -0.56199277614781     -0.05885817956076     -0.88922617837565
  Br  1.85614263682688      1.04519590288366     -2.00912599197705
  H   -0.52129215724350     -0.73890758732132     -1.74948989611831
  C   0.96608314782170      1.14906423679789      0.63950273819982
  N   1.00352833845871      1.90367467760142      1.53984463260654
  N   1.49601615931079     -1.04283680661697     -0.05316940405899
  H   1.53718125844321     -1.69669686317909     -0.82683266748266
  H   2.42833378001616     -0.90519149425652      0.31731247950937
  C   -1.18613440429144      1.18718375186798     -1.33460866176040
  N   -1.74690817005876      2.16816296089525     -1.65428212247957
  C   -1.38860209602071     -0.68602526768852      0.24022002512489
  H   -1.43818441599859     -0.01100223055684      1.09676607015037
  H   -0.94051907092214     -1.62622117270131      0.55717256411275
  H   -2.40546844052847     -0.86849568662890     -0.11164503582564
