15
Coordinates from ORCA-job run
  C   0.89269770039922      0.11099693849148     -0.51085456158096
  C   -0.63394959144434      0.24198859689757     -0.74380539743462
  Br  1.69693264447976     -0.84976249519546     -2.02184582778488
  H   -0.77477271040789      0.81556517252876     -1.66631166357490
  C   1.50442944728882      1.45076597666903     -0.52137409103632
  N   1.99026743436387      2.52085539126136     -0.46574264162120
  N   1.14898336368438     -0.64758737572764      0.68701204494637
  H   2.14587682064607     -0.77200045782851      0.82180646347555
  H   0.77478333050803     -0.14934805305345      1.49064239195920
  C   -1.17089459742225      1.03199596442679      0.36995946612289
  N   -1.58466061486735      1.62589651088045      1.29551655249738
  C   -1.36132620042837     -1.10127518235090     -0.83753728655621
  H   -2.43581524669184     -0.92632842665115     -0.91419734306917
  H   -1.15799223943467     -1.70475262656165      0.04578391080484
  H   -1.03355954067344     -1.64600993378666     -1.72205201714796
