15
Coordinates from ORCA-job run
  C   0.90674277804933      0.07969858226415     -0.45594110264308
  C   -0.59715846088726      0.21234377430408     -0.80677601322103
  Br  1.79319601099795     -1.02319267601557     -1.81653880797645
  H   -0.66191782607405      0.70458164142951     -1.78321734728397
  C   1.54529767920380      1.40420584957822     -0.54154540291276
  N   2.04797084867405      2.46795511411545     -0.54728582535900
  N   1.06348399560785     -0.57318606657110      0.81853345888907
  H   0.64218381547798     -0.00212386616086      1.54668671248456
  H   2.04557560084880     -0.69852447575619      1.03548487891950
  C   -1.19275825533551      1.10523879581816      0.19370757912846
  N   -1.65391314578248      1.78311908387080      1.03542927528560
  C   -1.34476947293399     -1.12277118604119     -0.83495296641674
  H   -0.96541626622454     -1.74971199259922     -1.64087793198103
  H   -2.40674320119088     -0.93905911436976     -1.00669019317967
  H   -1.21977410043103     -1.64757346386648      0.11098368626652
