15
Coordinates from ORCA-job run
  C   0.96255919801929      0.25173419469346     -0.54063170669722
  C   -0.52193287734424     -0.03102571240056     -0.90937128291708
  Br  1.81290438867865      1.06503590876008     -2.12230776213428
  H   -0.49696310694512     -0.68870922159598     -1.78690589636395
  C   1.01651903076960      1.22378705483231      0.55335071822846
  N   1.01637912151782      1.96279017892048      1.46738710471941
  N   1.73891451577390     -0.89903339692567     -0.17703519884713
  H   1.65836052324178     -1.63408947029013     -0.86939496134351
  H   1.49220771436585     -1.24234330079406      0.74305637450937
  C   -1.21392429256690      1.20111918849522     -1.28812266144886
  N   -1.80764400666904      2.17907620592234     -1.55371120308328
  C   -1.26864817040661     -0.71820069323088      0.23867027918645
  H   -1.27633538417255     -0.08727142344546      1.13011345120410
  H   -2.30308571201960     -0.90422598380215     -0.05433504195207
  H   -0.80831094224282     -1.67764352913901      0.47823778693959
