15
Coordinates from ORCA-job run
  C   0.89508330081922      0.21304154415857     -0.38432072269051
  C   -0.60589810183321      0.26625195064408     -0.75653339520420
  Br  1.84675909259788     -0.63395817118825     -1.98149987176121
  H   -0.67587908726513      0.73873680864337     -1.74116084115993
  C   1.45519499644925      1.56201428541763     -0.31725973743467
  N   1.89490686031236      2.65060441141680     -0.25717760704387
  N   1.10777291471851     -0.46486476877977      0.82934169783970
  H   0.82556406440111     -1.43521864786781      0.78542975993649
  H   2.06241918644093     -0.39484929270779      1.15708053855065
  C   -1.29002436797367      1.12966091665127      0.21180725726675
  N   -1.86905671203568      1.80341728953192      0.97976584303358
  C   -1.27693042866269     -1.10912185492342     -0.79490779066986
  H   -1.33603996432126     -1.54401073409111      0.20426632044634
  H   -2.29748370890287     -1.00071882121600     -1.16503150818051
  H   -0.73738804474477     -1.78098491568947     -1.46279994292874
