15
Coordinates from ORCA-job run
  C   0.90058785450396      0.09147782193264     -0.48090113244342
  C   -0.61368817947990      0.18286585615336     -0.79867909695266
  Br  1.77519394988951     -1.04512848228156     -1.82063075530542
  H   -0.71214648324732      0.63936523768027     -1.78955884974536
  C   1.51067361862041      1.42357310326161     -0.63102248479596
  N   1.99112291826640      2.49596528612453     -0.69037519413745
  N   1.10097412787795     -0.51003290856828      0.81300638506840
  H   0.69345894058303      0.08440188352008      1.53038974348419
  H   2.09049637998967     -0.61476328782896      1.00631644531325
  C   -1.20201307731596      1.09868768358634      0.18528605425319
  N   -1.65540156224070      1.79722256484061      1.01421073577036
  C   -1.33491254210181     -1.16647190066126     -0.76161821306965
  H   -2.40501246788243     -1.00892434014727     -0.90688176670490
  H   -0.96721372268582     -1.81205669403559     -1.55817344807895
  H   -1.17111975477702     -1.65718182357652      0.19663157734436
