15
Coordinates from ORCA-job run
  C   0.89786630308830      0.16952651934052     -0.44775152798099
  C   -0.61488412331919      0.21656732520756     -0.76842365805241
  Br  1.76059606541355     -0.93469988409993     -1.93288579735475
  H   -0.71309000081608      0.53913211588355     -1.80958947667916
  C   1.49762185052909      1.49441235560223     -0.60010475553670
  N   1.97671503859107      2.56250491971868     -0.70735961140964
  N   1.14073131777036     -0.32800874825324      0.84565070754002
  H   2.10979722901398     -0.24176362985500      1.12378585159612
  H   0.83231903064794     -1.28509197026065      0.95542605290070
  C   -1.23640980120633      1.23842471870506      0.08084014177777
  N   -1.78635047106520      2.04718787145516      0.73107753353680
  C   -1.32375122896537     -1.12612251006761     -0.57382783053638
  H   -1.35390868044999     -1.40346173982243      0.48126611872633
  H   -0.83004824316639     -1.90833240277872     -1.15104416348050
  H   -2.35520428606569     -1.04127494077522     -0.91905958504721
