15
Coordinates from ORCA-job run
  C   0.88847554888156      0.22447929126970     -0.42666005835027
  C   -0.62668766659138      0.24249583417168     -0.74047061948195
  Br  1.79112875630553     -0.66035995369489     -2.03045565493385
  H   -0.74298565403709      0.68282227832204     -1.73571444219850
  C   1.42749382844345      1.58365056345581     -0.42575938808842
  N   1.85071744752654      2.68032589444453     -0.41759961595819
  N   1.15916749139943     -0.40947527097720      0.79951332565299
  H   2.12560989314382     -0.31653366341767      1.08465027892730
  H   0.89080126127149     -1.38476562475861      0.79698269375204
  C   -1.28724811569331      1.12599818655246      0.22635002712248
  N   -1.85103498126093      1.81219727231856      0.99475723346262
  C   -1.27571907469336     -1.14355458396648     -0.70813310920757
  H   -2.31001120499972     -1.06467027844377     -1.04618376481966
  H   -0.74826476039801     -1.83033888406548     -1.37044228820095
  H   -1.29344276929804     -1.54327106121068      0.30716538232192
