15
Coordinates from ORCA-job run
  C   0.96593579531195      0.25864022918430     -0.51212969560400
  C   -0.50966203265456     -0.01142865276346     -0.92299455787136
  Br  1.85169801337779      1.12260733067971     -2.04673681245021
  H   -0.46447323084330     -0.64030625082572     -1.82061099579263
  C   0.99615751283598      1.19395608324323      0.61435071443624
  N   0.98340911707663      1.89812417447285      1.55529822629375
  N   1.73372388738581     -0.90423051589389     -0.16900867531288
  H   1.66765056949004     -1.61639115684134     -0.88639547447347
  H   1.46635127613622     -1.27681613436138      0.73369087192761
  C   -1.19330770207719      1.23310709293717     -1.27543338605928
  N   -1.77195056182505      2.22828923522748     -1.50868075520003
  C   -1.28157724414957     -0.73602799335570      0.18476700577791
  H   -1.30641862572239     -0.13627369034846      1.09720740799126
  H   -0.82843753358491     -1.70453601875829      0.40049732489185
  H   -2.31009924075738     -0.90871373259648     -0.13582119855473
