15
Coordinates from ORCA-job run
  C   0.97355191958452      0.24031461113341     -0.50430233336620
  C   -0.49971537620759     -0.02192114029601     -0.92815175153462
  Br  1.89146998452312      1.04950747193244     -2.05006601098742
  H   -0.45072734405087     -0.67714997851586     -1.80653095959119
  C   1.00027878919846      1.20715316385509      0.59530306480356
  N   0.97597611945189      1.94360025240153      1.51096893962178
  N   1.72095421113377     -0.92222180091370     -0.11804449867843
  H   1.43789638450137     -1.26462718452321      0.79177845671703
  H   1.65384154527574     -1.65418435092531     -0.81509248742475
  C   -1.16237606468998      1.21976907981860     -1.32771932411297
  N   -1.73600946897041      2.20468047845668     -1.61138525664037
  C   -1.29664840720544     -0.70335739948069      0.18921784428907
  H   -2.32259730333389     -0.87275023863732     -0.14121559857185
  H   -0.85906978758340     -1.67050803354789      0.44031303719977
  H   -1.32682520162729     -0.07630493075774      1.08292687827659
