15
Coordinates from ORCA-job run
  C   0.85000445172172      0.20477496562684     -0.22120126674801
  C   -0.55778790580969     -0.29057988575603     -0.61622580608086
  Br  0.97793386019165      2.14666857250110     -0.44184120721899
  H   -0.51820913749346     -1.38443549869735     -0.50783895063653
  C   1.07064849171052     -0.06957589909558      1.20846907503193
  N   1.26898372391382     -0.36233015361015      2.33081244425402
  N   1.82696477844695     -0.39437616206599     -1.09503654371503
  H   1.82454030258987     -1.40308265088002     -0.97601241184253
  H   2.75655823939389     -0.04439479995420     -0.89269063927607
  C   -0.80671530357151      0.00092386058861     -2.02887348280410
  N   -1.08646590098510      0.23310378014433     -3.14515326802623
  C   -1.68823706492066      0.24548311409239      0.26386012347563
  H   -1.77801266706347      1.32675806370291      0.15964059635956
  H   -1.50724269111612      0.00028306296032      1.31193117389132
  H   -2.63196317700842     -0.21022036955721     -0.03983983666409
