15
Coordinates from ORCA-job run
  C   0.98102195607190      0.23191436231072     -0.47418982903926
  C   -0.48048330054608     -0.01972841690100     -0.94318812502469
  Br  1.95402073562064      1.02731948689099     -1.99244788375642
  H   -0.41002810639984     -0.67786102578266     -1.81797273897558
  C   0.98082086806660      1.20169820045976      0.62323351412775
  N   0.93251249691923      1.93736294438607      1.53871100559945
  N   1.70682215634199     -0.93509753515975     -0.06047264596862
  H   1.66037592231391     -1.66687552747784     -0.75940166376834
  H   1.38681907883241     -1.27567857898991      0.83784961604436
  C   -1.11950201269194      1.22638045717130     -1.36713531106400
  N   -1.67327825592327      2.21569408983099     -1.67413036457304
  C   -1.31788208493633     -0.69083819090473      0.15056144744514
  H   -0.89740759953364     -1.66134146085675      0.41758510762541
  H   -2.33454242531079     -0.85188866459107     -0.21134225920361
  H   -1.37026942882479     -0.06106014038614      1.04134013053144
