15
Coordinates from ORCA-job run
  C   0.85863154144500      0.08229579450624     -0.16124474395886
  C   -0.58582436198846     -0.35299339707677     -0.49931226206620
  Br  1.07161375823876      2.03366653389198     -0.66066288961015
  H   -0.63384334980496     -1.39799542731399     -0.16705362245467
  C   1.05577198671658      0.03871070970193      1.28764746552610
  N   1.19512118327824     -0.02432190132822      2.45293571110209
  N   1.79226867709457     -0.76463767940175     -0.80136516559579
  H   1.69539968240572     -0.72970699129675     -1.81054754520091
  H   2.74655568123287     -0.54486003824243     -0.54410560902451
  C   -0.75103605314218     -0.35111351498462     -1.95352004182870
  N   -0.87017264601861     -0.35537623634923     -3.12192302145378
  C   -1.68635443580555      0.45004269925339      0.19308597508438
  H   -1.52929229530587      0.44900757732731      1.27338511085133
  H   -2.65293535662297     -0.01227745583653     -0.01415363320144
  H   -1.70690401172315      1.47855932714942     -0.16416572816889
