15
Coordinates from ORCA-job run
  C   0.91582741243196      0.16812540128766     -0.55229144553682
  C   -0.56142420897936     -0.01324411947724     -0.95923275959405
  Br  1.89826301754803      0.92806900804428     -2.06420939006371
  H   -0.54190251328613     -0.64183650870451     -1.85573653501404
  C   1.02468309315005      1.12461139101499      0.56050027246631
  N   1.10160406514666      1.81457926704686      1.51041305404671
  N   1.49456472911947     -1.12931633871474     -0.26677366314286
  H   2.50390647105761     -1.04983947125158     -0.20895734064607
  H   1.15953434643707     -1.45678297964738      0.63423349331285
  C   -1.16362660963867      1.27644765901294     -1.30043148748506
  N   -1.68782032986732      2.29805146547328     -1.54664720505439
  C   -1.37686260754307     -0.70152089090130      0.14187455610826
  H   -1.32847547528565     -0.13830419232282      1.07684158903556
  H   -2.42298899650579     -0.76125271406382     -0.16179503032209
  H   -1.01728239378491     -1.71878697679661      0.30121189188941
