15
Coordinates from ORCA-job run
  C   0.84983658252555      0.20365671097229     -0.22014788985126
  C   -0.56177806739762     -0.27324986615775     -0.62328212867338
  Br  0.96791927157022      2.15571254956811     -0.32442500940179
  H   -0.51814677439336     -1.37132495547048     -0.57534175268112
  C   1.09323118627101     -0.15756289257510      1.18653155358836
  N   1.31218313351332     -0.52021941159719      2.28422094598091
  N   1.81601005380997     -0.33704655751511     -1.14288422860994
  H   1.81736610496010     -1.35121961406166     -1.08671959917919
  H   2.74750931691320      0.00241759483581     -0.93150415330494
  C   -0.82986393734873      0.09335153813001     -2.01475363879372
  N   -1.12091849713717      0.37642042403711     -3.11626491341794
  C   -1.68170693290971      0.20944115355372      0.30004142281244
  H   -2.62783715381483     -0.23311280952071     -0.01515131388573
  H   -1.48532294838295     -0.09163129264673      1.33066164293584
  H   -1.77648133817900      1.29436742844765      0.25601906248149
