13
Coordinates from ORCA-job run
  C   0.76055723089013      0.10166307804302     -0.55743882079083
  C   -0.70948951768972      0.00888687895484     -0.16670987337542
  F   1.29162333154928      1.26014607301209     -0.12833032838902
  H   -1.04734687444431     -1.02351722779116     -0.29176449831431
  H   0.87614537967065      0.01320520651760     -1.64020439046036
  N   1.53453342167878     -1.06824506557146      0.02227125395634
  O   2.55442650320846     -0.82636619276308      0.64071654811415
  O   1.05714482478040     -2.16186140047254     -0.25455797976702
  C   -1.51061171978622      0.92498445824429     -0.96551186165321
  N   -2.12265693300346      1.64184468931485     -1.66561441713597
  N   -0.85960119447622      0.31946552708137      1.31583267621613
  O   -1.75369874973455      1.08064328002051      1.65067144109896
  O   -0.06902570264322     -0.26984930459035      2.04064025050056
