13
Coordinates from ORCA-job run
  C   0.43089726110173     -0.80919867753017     -0.10499231248334
  C   -0.50799366894244      0.38728331389504     -0.07288355936683
  F   -0.17495941860739     -1.80907687030390     -0.78210540414565
  H   -0.80463015522264      0.64289502154890     -1.09247430650963
  H   0.74029725961487     -1.14144488687387      0.88393593554355
  N   1.66533736392956     -0.38723771145704     -0.86019465535395
  O   2.66562330745594     -0.17590781734281     -0.18242267185133
  O   1.53782997026299     -0.26721218676767     -2.07294888787608
  C   0.08276229147490      1.52347801212507      0.61904497336431
  N   0.56442367571346      2.44160643557485      1.17069914864278
  N   -1.76940084713167     -0.03664457835011      0.65659116508638
  O   -2.82748782428034      0.19691104628681      0.08997644499543
  O   -1.60269921536899     -0.56645110080510      1.74777412995435
