13
Coordinates from ORCA-job run
  C   0.30304075658059     -0.83303232358761     -0.58421970138796
  C   -0.73921240810108      0.23588603935765     -0.26266112123996
  F   0.45462119603642     -0.91451109506243     -1.92106543104480
  H   -1.61730539038216      0.02090710592728     -0.87991742587061
  H   0.01883931766239     -1.79957817639920     -0.16793604610682
  N   1.62125151684202     -0.44937472892316      0.04699901748791
  O   1.52885510290182     -0.16842113058995      1.23758041864026
  O   2.62306316615896     -0.47126038049901     -0.64741858669785
  C   -0.25211047393668      1.57977516291996     -0.53146753337336
  N   0.13111898638555      2.65785944688488     -0.79560144755900
  N   -1.22622574207712      0.09135406473323      1.17085483342230
  O   -1.57609619076130     -1.04264400642317      1.47029027763399
  O   -1.27183983730941      1.09304002166152      1.86456274609591
