12

C	0.0	0.0	0.0
C	-0.248678	0.025743	-1.521174
Cl	1.762066	0.0	0.0
H	0.396142	0.825609	-1.89978
H	-0.418683	0.811603	0.585476
H	0.188514	-0.904866	-1.897708
N	-0.401489	-1.284996	0.670392
O	-0.516206	-1.228251	1.886981
O	-0.453678	-2.294247	-0.022705
C	-1.524088	0.189269	-2.230431
N	-2.220821	0.203947	-3.179698
Cl	-3.063197	0.0	0.0
