12

C	0.0	0.0	0.0
C	-0.417511	-0.128712	-1.463426
Cl	1.76013	0.0	0.0
H	-1.490097	-0.336129	-1.511253
H	-0.409325	0.864813	0.511277
H	0.150889	-0.947275	-1.910559
N	-0.415806	-1.215756	0.788442
O	-0.527198	-1.056184	1.996125
O	-0.508141	-2.273896	0.17851
C	-0.107156	1.099499	-2.188716
N	0.162852	2.069563	-2.792138
Cl	-3.2389	0.0	0.0
