12

C	0.0	0.0	0.0
C	-0.560044	0.437912	-1.335807
Cl	1.765041	0.0	0.0
H	-0.220109	-0.247788	-2.113309
H	-0.371893	0.589569	0.832812
H	-1.659222	0.370765	-1.23402
N	-0.407549	-1.426293	0.29435
O	-0.477552	-2.195265	-0.656673
O	-0.556245	-1.710743	1.474629
C	-0.161511	1.801964	-1.65219
N	0.152044	2.901304	-1.92036
Cl	-3.459943	0.0	0.0
