12

C	0.0	0.0	0.0
C	-0.568778	-0.231133	-1.383762
Cl	1.761355	0.0	0.0
H	-1.65096	-0.394372	-1.242781
H	-0.377548	0.92122	0.43455
H	-0.454763	0.699759	-1.946943
N	-0.404307	-1.093079	0.965157
O	-0.596697	-2.209214	0.502919
O	-0.435565	-0.771981	2.146515
C	0.057003	-1.311874	-2.135282
N	0.525419	-2.16066	-2.79702
Cl	-3.453951	0.0	0.0
