12

C	0.0	0.0	0.0
C	-0.586363	-0.016176	-1.394459
Cl	1.750007	0.0	0.0
H	-0.482081	0.98921	-1.812929
H	-0.375701	0.838304	0.581156
H	-1.666864	-0.201021	-1.263686
N	-0.39599	-1.237896	0.781474
O	-0.383053	-1.126532	2.001583
O	-0.618889	-2.256792	0.141902
C	0.030815	-0.968888	-2.308024
N	0.512645	-1.686899	-3.102032
Cl	-3.489815	0.0	0.0
