12

C	0.0	0.0	0.0
C	-0.269939	-0.131393	-1.514221
Cl	1.763474	0.0	0.0
H	0.337507	0.65311	-1.974782
H	-0.417675	0.871018	0.490179
H	0.187797	-1.079978	-1.805382
N	-0.410916	-1.204596	0.804023
O	-0.476452	-2.2786	0.220517
O	-0.528884	-1.020932	2.008393
C	-1.565497	-0.061957	-2.199392
N	-2.235691	-0.016935	-3.168428
Cl	-3.06498	0.0	0.0
