16

C	-0.385426	-0.055374	-1.471122
C	0.0	0.0	0.0
Cl	-0.291253	1.662698	-2.199607
H	1.095063	0.0	0.0
H	-0.308751	-0.971617	0.407082
N	0.519488	-0.934841	-2.126163
H	1.480069	-0.746239	-1.841043
H	0.442404	-0.868036	-3.133522
N	-1.780679	-0.421011	-1.6605
H	-2.030899	-0.292365	-2.635393
H	-1.828667	-1.41662	-1.462255
C	-0.613417	1.128328	0.8067
H	-0.449755	0.952475	1.872888
H	-0.153314	2.082801	0.552952
H	-1.687992	1.197294	0.621085
Cl	3.54627	0.0	0.0
