16

C	-0.380365	0.064143	-1.479024
C	0.0	0.0	0.0
Cl	-0.109237	-1.661459	-2.144677
H	1.093246	0.0	0.0
H	-0.36721	-0.920792	0.460302
N	-1.724336	0.481866	-1.694792
H	-1.915885	0.453446	-2.689254
H	-2.364963	-0.136358	-1.213006
N	0.471761	0.903456	-2.285297
H	0.340228	1.854599	-1.956523
H	1.439228	0.648584	-2.091008
C	-0.474641	1.222437	0.781951
H	-1.562657	1.276908	0.863633
H	-0.128338	2.14644	0.312953
H	-0.045099	1.192531	1.786
Cl	3.538451	0.0	0.0
