16

C	-0.57483	-0.006924	-1.405188
C	0.0	0.0	0.0
Cl	0.053573	-1.486844	-2.315403
H	1.090974	0.0	0.0
H	-0.318002	0.956229	0.436533
N	-2.0201	-0.056909	-1.356922
H	-2.378082	-0.088402	-2.305853
H	-2.320161	-0.909235	-0.897508
N	-0.095315	1.120715	-2.150819
H	-0.350751	1.965942	-1.655119
H	-0.497933	1.136983	-3.080793
C	-0.493678	-1.136183	0.89069
H	-1.560452	-1.060781	1.125718
H	-0.296932	-2.105189	0.427103
H	0.056508	-1.112106	1.833205
Cl	3.673177	0.0	0.0
