16

C	-0.379321	0.091571	-1.466824
C	0.0	0.0	0.0
Cl	-0.205111	-1.774472	-2.213021
H	1.093257	0.0	0.0
H	-0.311816	0.967216	0.411244
N	-1.728222	0.457625	-1.70543
H	-1.91248	0.491692	-2.701471
H	-2.337017	-0.244799	-1.306129
N	0.527488	0.908797	-2.138309
H	0.441144	0.859155	-3.14437
H	1.483794	0.709546	-1.8503
C	-0.586987	-1.134417	0.819701
H	-0.310201	-0.995763	1.867968
H	-1.681776	-1.165853	0.768461
H	-0.198625	-2.096842	0.490739
Cl	3.516142	0.0	0.0
