16

C	-0.37679	-0.096653	-1.466145
C	0.0	0.0	0.0
Cl	-0.190255	1.767897	-2.221035
H	1.093259	0.0	0.0
H	-0.31205	-0.965578	0.414886
N	0.528063	-0.920955	-2.134891
H	0.44284	-0.875913	-3.141375
H	1.484568	-0.721176	-1.849076
N	-1.72866	-0.456786	-1.702192
H	-2.332207	0.2535	-1.302932
H	-1.91107	-0.489068	-2.699408
C	-0.587001	1.137318	0.815359
H	-0.303147	1.006739	1.86356
H	-1.682758	1.162191	0.770864
H	-0.204748	2.099935	0.477827
Cl	3.513351	0.0	0.0
