13

C	-0.437877	0.052764	-1.441994
C	0.0	0.0	0.0
F	-1.825139	0.260673	-1.517815
H	1.094856	0.0	0.0
H	0.049401	0.903877	-1.920629
H	-0.204477	-0.869855	-1.967995
N	-0.44884	-1.346793	0.57159
O	-1.057653	-1.381141	1.63462
O	-0.147642	-2.335877	-0.096941
N	-0.472219	1.072064	0.801646
H	-1.277442	1.535567	0.410627
H	0.273535	1.713393	1.022453
Cl	3.321345	0.0	0.0
