13

C	-0.537163	-0.014289	-1.414878
C	0.0	0.0	0.0
F	-0.310386	-1.234771	-2.028871
H	1.089413	0.0	0.0
H	-0.024715	0.763325	-1.985551
H	-1.618402	0.156562	-1.407429
N	-0.556987	-1.217605	0.691744
O	0.209252	-2.057451	1.145904
O	-1.7887	-1.269362	0.754758
N	-0.433535	1.154969	0.736903
H	-1.286229	1.563472	0.3805
H	0.312435	1.833417	0.781879
Cl	3.386395	0.0	0.0
