15

C	0.0	0.0	0.0
C	-0.204138	0.012281	-1.546529
Br	2.020379	0.0	0.0
H	0.404059	-0.768789	-1.993284
H	-0.281943	-1.004468	0.314776
N	-0.578405	0.94957	0.827854
H	-1.63346	0.647793	0.687529
H	-0.445575	1.870682	0.430543
N	0.245793	1.272268	-2.217834
O	0.764548	1.129488	-3.325177
O	0.053929	2.349097	-1.661815
N	-1.585994	-0.276565	-2.094702
O	-1.867646	-1.46651	-2.120942
O	-2.216301	0.64215	-2.594293
F	-2.686177	0.0	0.0
