15

C	0.0	0.0	0.0
C	-0.43783	0.256721	-1.454944
Br	1.944049	0.0	0.0
H	0.369122	0.004225	-2.140135
H	-0.275515	-1.032653	0.217679
N	-0.517135	0.999521	0.873159
H	-1.556628	0.796794	0.72596
H	-0.261453	0.743003	1.821308
N	-0.66618	1.719631	-1.710273
O	-1.753194	2.232052	-1.51241
O	0.349325	2.302486	-2.100918
N	-1.558884	-0.61909	-1.942785
O	-1.417409	-1.805883	-1.677306
O	-2.337663	-0.15333	-2.760288
F	-2.625236	0.0	0.0
