15

C	0.0	0.0	0.0
C	-0.629043	-0.080799	-1.374925
Br	1.945233	0.0	0.0
H	-1.736341	-0.171978	-1.10028
H	-0.249206	-0.957208	0.46495
N	-0.545501	1.152842	0.657021
H	-1.569501	0.952525	0.595193
H	-0.269423	1.121081	1.632274
N	-0.15131	-1.269642	-2.12117
O	-0.297131	-2.347023	-1.548312
O	0.343419	-1.119601	-3.237031
N	-0.450614	1.107257	-2.250067
O	-1.341496	1.274266	-3.084198
O	0.542356	1.816535	-2.120216
F	-2.826863	0.0	0.0
