15

C	0.0	0.0	0.0
C	-0.266929	-0.113859	-1.512616
Br	1.948916	0.0	0.0
H	0.297763	0.660572	-2.026709
H	-0.314031	-0.913951	0.502844
N	-0.517564	1.234282	0.484507
H	-0.271257	1.301948	1.467498
H	-1.559871	0.985658	0.413251
N	-1.668611	0.023782	-2.088405
O	-2.244266	-0.997715	-2.429481
O	-1.995468	1.171956	-2.345997
N	0.2294	-1.420443	-2.053656
O	0.695231	-1.383547	-3.193667
O	0.113581	-2.425344	-1.361699
F	-2.623629	0.0	0.0
