12

C	0.0	0.0	0.0
C	-0.442727	-0.187787	-1.454202
Br	2.026512	0.0	0.0
H	-0.106513	-1.163589	-1.815805
H	-0.27288	0.994994	0.349057
H	-1.540621	-0.179118	-1.418924
N	-0.493826	-0.96912	0.913501
H	-0.39095	-1.897854	0.518969
H	-1.49787	-0.778752	1.003703
C	0.033459	0.845528	-2.364139
N	0.406511	1.679269	-3.100967
Cl	-3.514003	0.0	0.0
