12

C	0.0	0.0	0.0
C	-0.475688	0.278652	-1.433931
Br	1.956346	0.0	0.0
H	-0.14909	-0.538202	-2.086205
H	-0.291749	0.83087	0.64246
H	-1.57455	0.27749	-1.386548
N	-0.506533	-1.211314	0.566498
H	-0.369625	-1.973492	-0.089663
H	-1.517043	-1.064291	0.663649
C	-0.005816	1.544382	-1.985094
N	0.359401	2.566443	-2.43338
Cl	-3.545416	0.0	0.0
