12

C	0.0	0.0	0.0
C	-0.457163	0.241496	-1.440439
Br	2.026267	0.0	0.0
H	-0.146197	-0.594415	-2.073877
H	-0.267406	0.852672	0.622296
H	-1.554846	0.257597	-1.382437
N	-0.494825	-1.190793	0.597804
H	-1.497729	-1.031327	0.739807
H	-0.399704	-1.965281	-0.05162
C	0.017227	1.486991	-2.032487
N	0.377941	2.488444	-2.528801
Cl	-3.523473	0.0	0.0
