12

C	0.0	0.0	0.0
C	-0.20904	-0.099965	-1.549917
Br	1.961597	0.0	0.0
H	0.314545	-1.009496	-1.864765
H	-0.323516	0.970227	0.372382
H	0.33849	0.72946	-2.007402
N	-0.529778	-1.02514	0.820624
H	-1.542602	-0.845776	0.858567
H	-0.387665	-1.928017	0.381182
C	-1.506948	-0.141275	-2.238849
N	-2.286577	-0.201375	-3.116891
Cl	-3.433279	0.0	0.0
