12

C	0.0	0.0	0.0
C	-0.298045	-0.255889	-1.505027
Br	1.955526	0.0	0.0
H	0.516838	0.174306	-2.086532
H	-0.256661	1.026252	0.280418
H	-0.245592	-1.338268	-1.641916
N	-0.531475	-1.042447	0.81836
H	-0.39755	-0.801031	1.794859
H	-1.54918	-0.992971	0.651783
C	-1.487726	0.258125	-2.195593
N	-2.179544	0.67135	-3.050769
Cl	-3.467387	0.0	0.0
