12

C	0.0	0.0	0.0
C	-0.501489	-0.184638	-1.428936
Br	1.949246	0.0	0.0
H	-0.18884	-1.170494	-1.783051
H	-0.261554	1.00396	0.348973
H	-1.599358	-0.155037	-1.372132
N	-0.508366	-1.078441	0.799788
H	-0.290402	-0.898291	1.773737
H	-1.529885	-1.023968	0.706307
C	-0.033973	0.843657	-2.351127
N	0.331246	1.668347	-3.102887
Cl	-3.563052	0.0	0.0
