12

C	0.0	0.0	0.0
C	-0.472861	0.275838	-1.4356
Br	1.956686	0.0	0.0
H	-1.571121	0.280782	-1.386278
H	-0.291503	0.832175	0.64029
H	-0.149999	-0.544866	-2.084677
N	-0.510025	-1.208441	0.56724
H	-1.520072	-1.060317	0.667557
H	-0.376488	-1.972679	-0.087208
C	0.002382	1.537649	-1.992386
N	0.371156	2.557376	-2.442742
Cl	-3.544058	0.0	0.0
