12

C	0.0	0.0	0.0
C	-0.214938	-0.15488	-1.540085
Br	1.961241	0.0	0.0
H	0.27149	-1.096207	-1.820621
H	-0.32723	0.980723	0.340457
H	0.361105	0.633923	-2.032658
N	-0.526203	-0.996299	0.858903
H	-1.536162	-0.803915	0.903193
H	-0.405557	-1.912294	0.43941
C	-1.517343	-0.160954	-2.219535
N	-2.286469	-0.194136	-3.108789
Cl	-3.440559	0.0	0.0
