12

C	0.0	0.0	0.0
C	-0.531971	-0.269523	-1.397633
Br	2.010494	0.0	0.0
H	-1.629161	-0.174288	-1.29641
H	-0.270945	1.002947	0.322662
H	-0.302515	-1.298851	-1.691985
N	-0.507642	-0.949131	0.889846
H	-0.168019	-1.885773	0.733875
H	-0.475983	-0.682507	1.85876
C	-0.010378	0.641133	-2.408919
N	0.40652	1.372803	-3.225854
Cl	-3.75098	0.0	0.0
