15

C	-0.140223	-0.082313	-1.519099
C	0.0	0.0	0.0
Cl	-0.250548	1.635626	-2.099736
H	1.088986	0.0	0.0
H	-0.489237	0.839291	0.478419
N	0.936732	-0.728316	-2.167881
H	1.769143	-0.529168	-1.576238
H	0.757296	-1.724792	-2.154903
N	-1.476705	-0.705878	-1.937134
O	-2.460523	-0.347721	-1.298584
O	-1.478304	-1.501103	-2.868153
N	-0.455701	-1.228602	0.65385
O	-0.404656	-2.284927	0.016032
O	-0.824311	-1.146506	1.824907
F	2.585645	0.0	0.0
