15

C	-0.206785	0.181783	-1.497318
C	0.0	0.0	0.0
Cl	-1.787813	0.926723	-1.881932
H	1.091031	0.0	0.0
H	-0.342723	0.901498	0.505659
N	0.862436	0.980622	-2.032559
H	0.672073	1.950599	-1.809531
H	1.713455	0.690316	-1.505891
N	-0.106884	-1.171452	-2.241255
O	1.0246	-1.630123	-2.268426
O	-1.106175	-1.669436	-2.744211
N	-0.636085	-1.131056	0.671309
O	-0.680002	-2.218484	0.094727
O	-1.054317	-0.936088	1.816118
F	2.580836	0.0	0.0
