15

C	-0.161042	0.191071	-1.511909
C	0.0	0.0	0.0
Cl	-1.706699	1.048691	-1.967132
H	1.091076	0.0	0.0
H	-0.430346	0.849133	0.521487
N	0.951364	0.903186	-1.929294
H	1.085602	0.894855	-2.928022
H	1.796889	0.614852	-1.380222
N	-0.314187	-1.204745	-2.237502
O	0.67717	-1.596797	-2.844068
O	-1.379318	-1.794918	-2.135135
N	-0.556343	-1.223121	0.579581
O	-0.091118	-2.297916	0.205736
O	-1.413206	-1.102423	1.459666
F	2.624936	0.0	0.0
