15

C	-0.144237	0.192495	-1.501974
C	0.0	0.0	0.0
Cl	-1.710331	0.985912	-2.03276
H	1.090171	0.0	0.0
H	-0.493149	-0.889644	0.365903
N	0.966749	0.820522	-2.014035
H	1.079808	0.686167	-3.007508
H	1.80481	0.600184	-1.427974
N	-0.359721	-1.255848	-2.1328
O	-1.061337	-2.067194	-1.539681
O	0.181284	-1.446071	-3.217905
N	-0.488896	1.144026	0.778181
O	-0.151546	2.274847	0.436977
O	-1.184531	0.889495	1.767497
F	2.618506	0.0	0.0
