15

C	-0.582424	-0.000981	-1.392248
C	0.0	0.0	0.0
Cl	0.382846	-0.937537	-2.557688
H	1.085217	0.0	0.0
H	-0.388828	0.85879	0.546894
N	-1.923954	-0.44264	-1.445028
H	-2.322369	-0.263593	-2.357448
H	-2.469559	0.007946	-0.719809
N	-0.474814	1.464917	-1.938159
O	-1.236887	1.740443	-2.865267
O	0.335929	2.227292	-1.432366
N	-0.487403	-1.191119	0.713589
O	-1.232929	-1.012837	1.689131
O	-0.116637	-2.294199	0.321149
F	2.519679	0.0	0.0
