15

C	-0.46064	-0.009421	-1.422545
C	0.0	0.0	0.0
Cl	-2.377528	0.138087	-1.473604
H	1.091054	0.0	0.0
H	-0.40271	-0.844412	0.546337
N	0.175294	0.880882	-2.247661
H	-0.234744	0.982182	-3.162153
H	0.392695	1.742363	-1.767738
N	-0.31801	-1.419237	-2.018738
O	-0.259343	-1.476592	-3.241021
O	-0.305512	-2.374373	-1.25463
N	-0.425702	1.210554	0.700443
O	-0.827246	1.090866	1.858627
O	-0.293998	2.302106	0.133596
F	2.490978	0.0	0.0
