15

C	-0.114851	0.121898	-1.51793
C	0.0	0.0	0.0
Cl	-1.715913	0.681187	-2.109324
H	1.090379	0.0	0.0
H	-0.499489	-0.860696	0.429642
N	0.924056	0.873068	-2.122368
H	1.772455	0.621761	-1.578072
H	0.733303	1.843407	-1.901481
N	0.001076	-1.346312	-2.016099
O	0.906453	-1.617164	-2.789408
O	-0.830803	-2.134466	-1.571987
N	-0.465768	1.197676	0.696762
O	-1.036443	1.036114	1.77756
O	-0.233742	2.303358	0.202657
F	2.579513	0.0	0.0
