13

C	-0.542992	0.01194	-1.425554
C	0.0	0.0	0.0
F	-0.012334	-1.091507	-2.103108
H	1.092526	0.0	0.0
H	-0.335929	0.907873	0.508231
N	-1.967794	-0.002785	-1.445969
H	-2.304362	-0.812235	-0.935814
H	-2.302217	-0.049052	-2.401201
C	-0.089283	1.217531	-2.153178
N	0.204354	2.190037	-2.740896
C	-0.527973	-1.16289	0.70372
N	-1.019086	-2.086406	1.23728
Cl	3.309758	0.0	0.0
