13

C	-0.33426	-0.037649	-1.499169
C	0.0	0.0	0.0
F	-0.047398	1.230399	-1.976914
H	1.095484	0.0	0.0
H	-0.390832	0.903785	0.470002
N	0.448681	-0.972	-2.247497
H	1.413533	-0.891753	-1.928491
H	0.127231	-1.916285	-2.079307
C	-1.776776	-0.275635	-1.749075
N	-2.92511	-0.437256	-1.924197
C	-0.498213	-1.190718	0.67323
N	-0.916556	-2.153946	1.199307
Cl	3.28323	0.0	0.0
