13

C	-0.416097	0.042007	-1.462906
C	0.0	0.0	0.0
F	-1.805182	0.100714	-1.57668
H	1.090902	0.0	0.0
H	-0.352243	-0.923856	0.46464
N	0.135342	1.198725	-2.082661
H	1.117026	1.295977	-1.825297
H	0.040963	1.153907	-3.091581
C	-0.038358	-1.236514	-2.127903
N	0.289886	-2.209384	-2.699559
C	-0.535682	1.141046	0.730919
N	-0.971334	2.018785	1.376517
Cl	3.354788	0.0	0.0
