13

C	-0.333788	0.065396	-1.50018
C	0.0	0.0	0.0
F	-0.124104	1.385105	-1.87165
H	1.090155	0.0	0.0
H	-0.39367	0.868915	0.530248
N	0.501641	-0.759224	-2.316645
H	0.215601	-1.728749	-2.258664
H	1.4613	-0.67817	-1.97602
C	-1.757596	-0.240768	-1.78195
N	-2.884996	-0.485027	-1.998173
C	-0.486586	-1.239988	0.587086
N	-0.893587	-2.246845	1.033948
Cl	3.300736	0.0	0.0
