16
Coordinates from ORCA-job run
  C   -0.48593641454434      0.07064782327700     -0.36346120026222
  C   0.71725691467392     -0.61294513316392      0.27897303256356
  H   -0.24902876039370      0.23114442207162     -1.43088483445332
  H   0.89796489621602     -1.55668101637187     -0.24870715592033
  H   0.45239183934610     -0.86107642389632      1.31257544596833
  N   -0.76370554037062      1.32743742842188      0.33753374909784
  H   -0.03705266984948      2.00383494488872      0.13442040941190
  H   -1.63103345413029      1.72112454011294     -0.01060917569004
  C   -1.72184786203296     -0.81255691576192     -0.27865639519679
  H   -2.57567572496729     -0.34776697284990     -0.78164017089933
  H   -1.98877334898764     -0.97077882316504      0.76918488638165
  H   -1.54462237535883     -1.78245180846254     -0.74942433584196
  C   1.98539532106351      0.23565700200343      0.25938394159108
  H   2.84500001782090     -0.33176313294128      0.62361936177445
  H   1.88228274060844      1.11337376301464      0.90099060466925
  H   2.21838442090627      0.57380030282255     -0.75529816319407
