16
Coordinates from ORCA-job run
  C   -0.48254439053014      0.25338418861165     -0.52001467670590
  C   0.80723389058273      0.47343539761673      0.27907855031159
  H   -0.20217384526537     -0.00939262192550     -1.54879311227677
  H   1.33678412552943      1.32712685684467     -0.16197969992439
  H   0.53213792257403      0.77375270782355      1.29889589397071
  N   -1.32227707946371      1.45173094940748     -0.61503938179421
  H   -0.77739969137407      2.21846281001118     -0.99529657557918
  H   -1.60403946423170      1.72977137138270      0.32015028755021
  C   -1.32940857946112     -0.87718726294845      0.04714271626849
  H   -2.26260334950010     -0.95169978961462     -0.51327018479000
  H   -0.81568068865650     -1.83873142780103     -0.00180187845234
  H   -1.57598426948684     -0.67901367647513      1.09657606643473
  C   1.74046215587747     -0.73431216765018      0.32161354011400
  H   1.94555225973160     -1.10284906616411     -0.68783012584890
  H   2.69770288221983     -0.47634225921999      0.78090567871051
  H   1.31123812145445     -1.55613600989893      0.89766290201145
