16
Coordinates from ORCA-job run
  C   -0.48694213077049      0.23998963490865     -0.65595739316306
  C   0.98848964343005     -0.16252212557180     -0.59279943082134
  H   -0.74732747474717      0.32335054397556     -1.71821226697196
  H   1.10740969295544     -1.13938740339456     -1.07602347278298
  H   1.55078027202738      0.56312967712822     -1.18808038592442
  N   -0.64870334713076      1.58506953417543     -0.09175397390962
  H   -0.61704489467283      1.53097801983644      0.92068199542439
  H   -1.56734495935438      1.94127795367780     -0.33069227369941
  C   -1.41036108380583     -0.80510756234010     -0.02649287165034
  H   -2.45773124918256     -0.52215107130294     -0.16534643989481
  H   -1.26592922860866     -1.79411076238905     -0.47258111997110
  H   -1.23177733163076     -0.88948665823282      1.04920951858842
  C   1.57369820276395     -0.21026306559007      0.81620733165563
  H   1.52607898647982      0.77073283245419      1.29437955222601
  H   2.62683999261541     -0.49944474812569      0.78299688896141
  H   1.05986490963140     -0.93305479920927      1.45446434193317
