16
Coordinates from ORCA-job run
  C   0.99483379855579      0.13168684655730     -0.03241347293853
  C   -0.36686671087127     -0.49633997928198     -0.37978378809806
  Br  2.31461205172443     -1.41845676265164      0.10734927626107
  H   -0.25631541798059     -1.06147807006664     -1.30526886153485
  N   0.96063607963747      0.97132840193172      1.09338786355172
  H   0.62289459616215      0.48035118333855      1.91211441470202
  H   1.85068254620921      1.41840104006869      1.26972905702718
  C   1.45310150473281      0.88068107893327     -1.20307099661126
  N   1.78497533493896      1.50164561932653     -2.14419028040570
  C   -1.47878073924390      0.53565849512980     -0.47788310083992
  H   -1.61802612035376      1.04143091999699      0.47627533406731
  H   -2.40657968543817      0.04102980422113     -0.77298357753109
  H   -1.22635178572175      1.27887317892897     -1.23600635567101
  N   -0.76072271569887     -1.51979919195968      0.64329819550457
  O   -0.70188056520231     -1.18965366770720      1.82737812652708
  O   -1.16621217145020     -2.59635889676581      0.22106816598945
