16
Coordinates from ORCA-job run
  C   0.80418809602681      0.45496239823694      0.08216244086206
  C   -0.48818844949724     -0.38904212712553      0.08383325062825
  Br  0.56231964930517      2.15994920593786     -0.84400879842576
  H   -0.21972118423289     -1.33534563279680      0.56342640436737
  N   1.80448124887505     -0.29792739114080     -0.64987728057304
  H   2.62884451072578      0.27429983518989     -0.79577631702992
  H   2.07690642744468     -1.10953386994312     -0.10178890656944
  C   1.22287473860854      0.78472966357908      1.45348543788319
  N   1.64248778639158      0.99649777939006      2.53214267354145
  C   -1.09614093863143     -0.61297551842153     -1.28158315569717
  H   -1.91084677604498     -1.33563826193334     -1.20192539210983
  H   -0.33269262051665     -1.00340633907508     -1.95344505018018
  H   -1.49416160900434      0.31654333462787     -1.68250384692846
  N   -1.48992411398602      0.21622952548524      1.02729990949940
  O   -2.23866534996419      1.08190892717144      0.58348593117528
  O   -1.46976141549986     -0.20025152918219      2.18507269955679
