19

C	-0.478467	-0.047612	-1.427505
C	0.0	0.0	0.0
Br	-2.453014	0.208508	-1.563189
H	1.093713	0.0	0.0
N	0.187923	1.03207	-2.308217
O	1.369318	0.795039	-2.53859
O	-0.454744	1.981722	-2.735309
C	-0.121405	-1.373465	-2.076229
H	-0.740052	-2.16911	-1.662762
H	0.936951	-1.570278	-1.875844
H	-0.292599	-1.321769	-3.153267
C	-0.416427	-1.193782	0.827143
H	0.066306	-2.089989	0.433497
H	-0.048722	-1.047056	1.842224
H	-1.501168	-1.329167	0.859992
N	-0.356453	1.25786	0.650924
O	-0.067414	2.293646	0.037878
O	-0.81975	1.239901	1.802224
H	2.499349	0.0	0.0
