19

C	-0.396239	-0.004228	-1.464599
C	0.0	0.0	0.0
Br	0.295815	-1.639129	-2.298365
H	1.091401	0.0	0.0
N	-1.91359	-0.065839	-1.654056
O	-2.501718	-1.056643	-1.232787
O	-2.45417	0.905118	-2.18268
C	0.205072	1.180568	-2.185033
H	1.279851	1.160868	-1.967577
H	-0.224511	2.111002	-1.811858
H	0.023428	1.117767	-3.257985
C	-0.495905	-1.105506	0.906564
H	-0.195621	-2.068536	0.492854
H	-1.575312	-1.09128	1.05024
H	0.014202	-0.985649	1.866975
N	-0.464828	1.312459	0.560164
O	0.368187	2.181358	0.802346
O	-1.682257	1.436256	0.756715
H	2.727679	0.0	0.0
