19

C	-0.372894	0.008888	-1.477559
C	0.0	0.0	0.0
Br	0.155233	-1.710005	-2.273733
H	1.091428	0.0	0.0
N	-1.89777	0.096605	-1.603598
O	-2.573268	-0.901668	-1.37262
O	-2.353868	1.21608	-1.844494
C	0.301549	1.09161	-2.287518
H	1.373013	1.006467	-2.082278
H	0.096685	0.946508	-3.34989
H	-0.040049	2.073727	-1.977614
C	-0.507207	-1.145751	0.845016
H	-1.593682	-1.220419	0.870996
H	-0.140807	-0.997435	1.861864
H	-0.082289	-2.075399	0.469536
N	-0.393701	1.292125	0.606657
O	0.21767	2.304739	0.246587
O	-1.259972	1.293631	1.496054
H	2.584009	0.0	0.0
