19

C	-0.531137	0.075739	-1.427874
C	0.0	0.0	0.0
Br	0.639023	1.082107	-2.660877
H	1.088379	0.0	0.0
N	-0.513764	-1.362541	-1.954264
O	0.565205	-1.87643	-2.214442
O	-1.602101	-1.938482	-2.012385
C	-1.935703	0.629136	-1.572309
H	-2.286462	0.505637	-2.597643
H	-2.613533	0.10295	-0.896983
H	-1.912283	1.686312	-1.32207
C	-0.360379	-1.264651	0.755334
H	0.063149	-2.130176	0.243823
H	0.115072	-1.200937	1.733406
H	-1.436669	-1.400169	0.891415
N	-0.371702	1.178418	0.738056
O	-0.27477	2.277911	0.157384
O	-0.609509	1.074302	1.960645
H	2.404637	0.0	0.0
