16

C	-0.120436	-0.134145	-1.527252
C	0.0	0.0	0.0
F	-1.35661	-0.667945	-1.93302
H	1.097389	0.0	0.0
C	-0.083214	1.212842	-2.167676
N	0.025267	2.259252	-2.693074
N	0.939124	-0.980603	-1.952664
H	1.782193	-0.747883	-1.385393
H	1.121692	-0.880393	-2.943911
C	-0.495639	-1.214868	0.622903
N	-0.897827	-2.164622	1.187239
C	-0.615866	1.249763	0.610483
H	-1.677595	1.347673	0.366307
H	-0.515021	1.213681	1.695796
H	-0.087638	2.135644	0.254601
F	2.639765	0.0	0.0
