16

C	-0.112615	0.060635	-1.536014
C	0.0	0.0	0.0
F	-0.032993	-1.269959	-2.026239
H	1.097749	0.0	0.0
C	-1.421876	0.55098	-2.03598
N	-2.461485	0.955024	-2.408319
N	0.947468	0.869557	-1.986681
H	1.803273	0.611099	-1.446786
H	1.068898	0.800858	-2.988016
C	-0.608696	-1.188557	0.557556
N	-1.119316	-2.116817	1.067657
C	-0.487129	1.277105	0.677299
H	-1.567508	1.422668	0.57272
H	-0.238733	1.241522	1.740475
H	0.036003	2.125518	0.23383
F	2.638237	0.0	0.0
