16

C	-0.422717	-0.0482	-1.459975
C	0.0	0.0	0.0
F	0.122687	1.088503	-2.092058
H	1.095244	0.0	0.0
C	0.165168	-1.211191	-2.163945
N	0.567293	-2.125607	-2.77967
N	-1.836885	-0.085221	-1.647457
H	-2.263539	0.668396	-1.123519
H	-2.062794	0.01879	-2.630032
C	-0.512143	-1.154134	0.710484
N	-0.924609	-2.062819	1.334104
C	-0.397109	1.306639	0.686822
H	-1.476187	1.437109	0.838733
H	0.090255	1.328355	1.66346
H	-0.00057	2.139207	0.104917
F	2.526999	0.0	0.0
