16

C	-0.426156	-0.067273	-1.457322
C	0.0	0.0	0.0
F	0.111286	1.065231	-2.104946
H	1.095249	0.0	0.0
C	0.168723	-1.238196	-2.140287
N	0.604778	-2.181976	-2.684375
N	-1.840774	-0.113443	-1.640926
H	-2.269015	0.64814	-1.128423
H	-2.069896	-0.026788	-2.625013
C	-0.515492	-1.142261	0.726733
N	-0.924056	-2.042861	1.363863
C	-0.393391	1.317036	0.669684
H	0.021871	2.138937	0.08677
H	0.078048	1.341188	1.653884
H	-1.473016	1.461285	0.803325
F	2.527299	0.0	0.0
