14

C	0.0	0.0	0.0
C	-0.314948	-0.148621	-1.529538
Cl	1.793915	0.0	0.0
H	0.08754	0.762599	-1.990576
H	0.28875	-0.983072	-1.897876
N	-0.564152	1.136876	0.660943
H	-1.55836	0.952398	0.816969
H	-0.49126	1.943963	0.050081
C	-0.405927	-1.224967	0.700181
N	-0.712311	-2.225085	1.234664
N	-1.672766	-0.336864	-1.940861
H	-2.077363	-1.172368	-1.535734
H	-2.290634	0.403093	-1.626847
Br	-4.282662	0.0	0.0
