17

C	-0.378182	0.008118	-1.474846
C	0.0	0.0	0.0
F	0.139034	1.151429	-2.015371
H	1.102539	0.0	0.0
C	0.113173	-1.188496	-2.243333
H	-0.110453	-1.053476	-3.303702
H	1.195069	-1.248646	-2.098977
H	-0.362301	-2.098798	-1.879644
N	-1.891903	0.136179	-1.609652
O	-2.537476	-0.839206	-1.23616
O	-2.35279	1.171427	-2.073222
C	-0.46061	-1.20526	0.683613
N	-0.772678	-2.174091	1.268956
N	-0.562224	1.19731	0.641217
H	-0.072012	1.985662	0.22961
H	-0.276878	1.174744	1.614785
Br	3.439262	0.0	0.0
