17

C	-0.474	-0.019238	-1.468653
C	0.0	0.0	0.0
F	0.183056	-1.016306	-2.121317
H	1.095272	0.0	0.0
C	-1.959852	-0.204698	-1.681264
H	-2.540396	0.539698	-1.138813
H	-2.23192	-1.201565	-1.3333
H	-2.189869	-0.122826	-2.745615
N	-0.053877	1.28864	-2.123668
O	0.954399	1.293425	-2.812343
O	-0.784946	2.255208	-1.896481
C	-0.485787	-1.243545	0.61437
N	-0.922373	-2.229328	1.080638
N	-0.405332	1.149151	0.794681
H	0.362795	1.808006	0.799772
H	-1.218629	1.609928	0.415117
Br	3.413982	0.0	0.0
