17

C	-0.433987	0.154312	-1.468727
C	0.0	0.0	0.0
F	-1.736275	0.599658	-1.518268
H	1.093212	0.0	0.0
C	0.461754	1.082152	-2.245969
H	1.492155	0.727625	-2.187037
H	0.408126	2.074884	-1.798128
H	0.123385	1.142454	-3.28299
N	-0.429364	-1.205652	-2.144391
O	-1.498438	-1.669918	-2.524351
O	0.674815	-1.728112	-2.247532
C	-0.556491	-1.226198	0.582566
N	-1.032954	-2.195774	1.043766
N	-0.377688	1.150171	0.80837
H	-1.226996	1.583024	0.473539
H	0.385893	1.814655	0.819357
Br	3.444771	0.0	0.0
