17

C	-0.363544	0.004753	-1.479285
C	0.0	0.0	0.0
F	0.131475	1.163756	-2.00793
H	1.102576	0.0	0.0
C	0.172075	-1.173073	-2.245764
H	1.253412	-1.199575	-2.089797
H	-0.277487	-2.098691	-1.88957
H	-0.045131	-1.041727	-3.308162
N	-1.877541	0.094403	-1.636993
O	-2.359626	1.126876	-2.08398
O	-2.500231	-0.907882	-1.297137
C	-0.456517	-1.211075	0.677633
N	-0.766103	-2.182668	1.25993
N	-0.581049	1.188066	0.638275
H	-0.10973	1.987358	0.225569
H	-0.299317	1.174238	1.613394
Br	3.455187	0.0	0.0
