14

C	-0.444589	-0.020278	-1.454379
C	0.0	0.0	0.0
F	-0.408597	-1.332847	-1.937798
H	1.090373	0.0	0.0
H	0.238138	0.576042	-2.062599
H	-1.470204	0.343132	-1.574155
C	-0.479965	-1.165716	0.832041
H	-0.146671	-2.08876	0.356948
H	-0.036055	-1.106494	1.825122
H	-1.571491	-1.185384	0.929885
N	-0.390771	1.274025	0.576913
O	-0.467793	2.250953	-0.192534
O	-0.529892	1.363051	1.805049
H	2.619013	0.0	0.0
