14

C	-0.531554	-0.132102	-1.401519
C	0.0	0.0	0.0
F	0.015796	0.78112	-2.288329
H	1.090458	0.0	0.0
H	-1.620451	-0.008884	-1.43352
H	-0.262717	-1.130798	-1.761238
C	-0.380639	-1.202304	0.847091
H	-0.019105	-1.050711	1.862294
H	0.126276	-2.081572	0.442171
H	-1.461868	-1.38244	0.87075
N	-0.465127	1.234409	0.644242
O	-0.239644	1.368576	1.853172
O	-1.002449	2.109751	-0.05064
H	2.67744	0.0	0.0
