14

C	-0.47836	0.009148	-1.439978
C	0.0	0.0	0.0
F	-0.354767	-1.274901	-1.978149
H	1.090379	0.0	0.0
H	-1.531747	0.296495	-1.521734
H	0.136781	0.680934	-2.039358
C	-0.448232	-1.192819	0.81079
H	-0.093433	-2.09512	0.311765
H	-1.537878	-1.244626	0.916256
H	0.005724	-1.145046	1.799762
N	-0.383145	1.25423	0.62352
O	-0.563538	2.235558	-0.122862
O	-0.389259	1.331771	1.861444
H	2.612388	0.0	0.0
