14

C	-0.364536	-0.079797	-1.450024
C	0.0	0.0	0.0
F	-1.734298	-0.332687	-1.646117
H	1.094192	0.0	0.0
H	0.191201	-0.908268	-1.896808
H	-0.122449	0.849945	-1.960224
C	-0.470215	-1.178563	0.822333
H	-0.036986	-1.13188	1.820426
H	-1.558717	-1.218155	0.904043
H	-0.114903	-2.093229	0.340707
N	-0.416157	1.278984	0.59277
O	-0.742048	1.293299	1.787172
O	-0.320183	2.301796	-0.095378
H	2.661612	0.0	0.0
