17

C	0.0	0.0	0.0
C	-0.616107	-0.01805	-1.394534
Cl	1.797476	0.0	0.0
H	-1.723448	0.064818	-1.104816
C	-0.392805	1.178822	0.785492
N	-0.568635	2.062694	1.53904
C	-0.468911	-1.241567	0.7599
H	-0.104897	-2.130827	0.248218
H	-1.563112	-1.173689	0.734497
H	-0.083636	-1.205963	1.781194
N	-0.307746	-1.216254	-2.094824
H	0.604496	-1.149262	-2.530141
H	-0.993851	-1.363232	-2.821849
N	-0.198252	1.220419	-2.16607
O	0.338657	1.065222	-3.266514
O	-0.444698	2.313913	-1.668209
F	-2.838672	0.0	0.0
