17

C	0.0	0.0	0.0
C	-0.630797	0.120204	-1.408552
Cl	1.79326	0.0	0.0
H	-1.667961	0.435809	-1.142838
C	-0.374578	1.158004	0.826732
N	-0.562635	2.049619	1.568122
C	-0.493925	-1.261975	0.699108
H	-0.129141	-2.145221	0.171472
H	-0.114129	-1.280019	1.722414
H	-1.590159	-1.168234	0.668594
N	-0.706067	-1.069236	-2.187623
H	-1.494842	-1.596285	-1.832152
H	0.142722	-1.621807	-2.152137
N	0.098146	1.188003	-2.166767
O	-0.063927	2.346368	-1.77721
O	0.830565	0.854668	-3.09826
F	-2.836327	0.0	0.0
