17

C	0.0	0.0	0.0
C	-0.612097	0.038486	-1.396433
Cl	1.797551	0.0	0.0
H	-1.718874	0.103128	-1.109765
C	-0.397819	1.148686	0.825812
N	-0.563172	2.011508	1.606235
C	-0.468618	-1.272296	0.707008
H	-1.562927	-1.20527	0.684289
H	-0.102378	-2.138461	0.158324
H	-0.083419	-1.279767	1.728981
N	-0.287004	-1.123151	-2.149613
H	0.623466	-1.021599	-2.581353
H	-0.972725	-1.247826	-2.881062
N	-0.196353	1.315408	-2.105085
O	-0.529262	2.38272	-1.596368
O	0.431018	1.214937	-3.1654
F	-2.836511	0.0	0.0
