16

C	0.0	0.0	0.0
C	-0.525043	-0.236267	-1.413094
Cl	1.803578	0.0	0.0
H	-0.093802	-1.182996	-1.759718
H	-1.612523	-0.333394	-1.225581
C	-0.397605	1.327204	0.488083
N	-0.588485	2.412738	0.894046
C	-0.507602	-1.07626	0.947307
H	-1.604711	-0.962644	0.881578
H	-0.126662	-0.917911	1.959722
H	-0.173088	-2.053384	0.585623
C	-0.233876	0.889943	-2.392572
H	-0.775254	1.791827	-2.097263
H	0.833147	1.127467	-2.453496
H	-0.576015	0.612226	-3.394071
F	-2.867496	0.0	0.0
