16

C	0.0	0.0	0.0
C	-0.49597	-0.273255	-1.418434
Cl	1.803689	0.0	0.0
H	-1.579409	-0.406896	-1.256
H	-0.017086	-1.203799	-1.746698
C	-0.406887	1.333611	0.457054
N	-0.582528	2.426991	0.848726
C	-0.486389	-1.067854	0.966195
H	-0.127656	-0.864733	1.978095
H	-0.104905	-2.03982	0.642551
H	-1.583813	-0.994766	0.887721
C	-0.225719	0.856238	-2.402008
H	0.826425	1.15983	-2.412148
H	-0.496937	0.548151	-3.41523
H	-0.834958	1.724745	-2.14508
F	-2.824116	0.0	0.0
