15

C	0.0	0.0	0.0
C	-0.498571	-0.009521	-1.46774
Br	1.902626	0.0	0.0
H	0.04992	-0.799505	-1.993609
N	-0.530943	1.23282	0.803933
O	0.223864	1.855398	1.518914
O	-1.747422	1.421866	0.685034
N	-0.603722	-1.211441	0.671999
O	-0.46826	-2.272807	0.011464
O	-0.622536	-1.157741	1.940521
C	-0.219095	1.286431	-2.086242
N	0.006632	2.333241	-2.571242
C	-1.943153	-0.313759	-1.549104
N	-3.078431	-0.619835	-1.710626
H	-1.556653	0.0	0.0
