15

C	0.0	0.0	0.0
C	-0.560378	0.003612	-1.44516
Br	1.895394	0.0	0.0
H	-1.656145	-0.115102	-1.369767
N	-0.556157	1.245786	0.769558
O	0.170492	1.907801	1.476688
O	-1.767256	1.428449	0.592351
N	-0.652763	-1.144798	0.761069
O	-0.597993	-2.253393	0.15059
O	-0.527312	-1.034913	2.016272
C	-0.088333	-1.064486	-2.309404
N	0.224364	-1.824985	-3.141543
C	-0.321573	1.306885	-2.048577
N	-0.235739	2.358119	-2.565317
H	-1.551376	0.0	0.0
