15
Coordinates from ORCA-job run
  C   0.71863806990464     -0.01707658669840      0.19368720616468
  C   -0.56795406292230     -0.02371887460698     -0.28577868007189
  N   0.99882730276402      0.01724794336546      1.57569796001415
  H   1.53319165374731     -0.80115583710531      1.84507162896693
  H   1.57786577031988      0.82033115020961      1.79272405084272
  N   1.85957702606994      0.00210594197236     -0.70049880125084
  O   2.97834216658516      0.06563855431668     -0.18088625577734
  O   1.68301774027732     -0.03967618282072     -1.92922475033258
  C   -1.72038973000953     -0.00279622901418      0.67681178260512
  H   -1.36571051122185      0.07236188043902      1.69956877065490
  H   -2.37333532918745      0.84741847342111      0.45495637800502
  H   -2.31182098060858     -0.91540484800313      0.56155779504289
  N   -0.92749299292132     -0.12899326770351     -1.58981463841935
  H   -1.87403745571721      0.11077816063365     -1.82854468655693
  H   -0.20871866708002     -0.00706027840568     -2.28532775988748
