15
Coordinates from ORCA-job run
  C   0.69976977076348      0.08811619253734      0.21068033381319
  C   -0.57219669774154     -0.02530082553077     -0.23958193597418
  N   1.08168878060208      0.45390397515800      1.51387753997021
  H   1.62550466763265     -0.27381675677748      1.96198346318552
  H   1.61237172886350      1.31671918293788      1.51642369496798
  N   1.79782791820873     -0.15839434983522     -0.74649124448253
  O   2.55540070973340     -1.09900802933797     -0.48528110688261
  O   1.91069890104887      0.58941375298193     -1.72142111368536
  C   -1.73672350600909      0.13590641538040      0.68582416720321
  H   -1.39729584531104      0.42832719400260      1.67641374548415
  H   -2.29388148211926     -0.80385648671678      0.76158112957122
  H   -2.41631214430733      0.89744191669470      0.29297284676873
  N   -0.90566724846642     -0.22255381605684     -1.57584051533161
  H   -1.78036663412898     -0.71281700157281     -1.69278408840475
  H   -0.18181891876906     -0.61508136386498     -2.16035691620316
