15
Coordinates from ORCA-job run
  C   0.81145667242268     -0.03386376960878      0.12258149431982
  C   -0.48910786235627      0.00789471616436     -0.31496745800517
  N   1.19958353947414      0.07917354346245      1.45924258443448
  H   1.14343311706339     -0.75706973834249      2.01846142668323
  H   0.85795982970920      0.89185741870308      1.94441936812289
  N   1.92199346858241     -0.15248648883783     -0.82075982218367
  O   1.65575653109109     -0.22428000143720     -2.03365575731863
  O   3.06551475063609     -0.19560133689658     -0.38047543311310
  C   -1.57273048042550      0.13018906447178      0.72437163490960
  H   -1.39983955320040     -0.55401700784144      1.55457430188585
  H   -1.60459721694302      1.14465703634226      1.13130482666818
  H   -2.55414136967111     -0.08358283241935      0.29621362426102
  N   -0.91707564896902      0.05979049861432     -1.60412785575923
  H   -1.88195648830118     -0.15584360246666     -1.78240352962079
  H   -0.23724928911250     -0.15781749990791     -2.31577940528449
