15
Coordinates from ORCA-job run
  C   0.79784728612884     -0.04686196928429      0.14437425003129
  C   -0.54741437618139     -0.13961851201478     -0.03743191139485
  N   1.63250002636791     -1.12182531964917      0.43377273509730
  H   1.18204482404791     -1.90558980746747      0.87410203754907
  H   2.34807904570890     -1.35390468315359     -0.23519794015977
  N   1.49675980456025      1.22402918453636      0.08218163338546
  O   2.70607767687941      1.15792920555780     -0.14968553706758
  O   0.86766028425611      2.27590359209885      0.22305915379934
  C   -1.52114208807559      1.00281346024603     -0.08385747939999
  H   -1.24907518062546      1.73232138337374     -0.84646546057165
  H   -2.52544584833990      0.62787608039415     -0.29484996006643
  H   -1.54224862639042      1.53957006912216      0.86479964106802
  N   -1.11185523289694     -1.41779268516019     -0.05745404231005
  H   -0.50450118389896     -2.12711006895168     -0.44508144415230
  H   -2.02928641154068     -1.44673992964792     -0.47426567580785
