15
Coordinates from ORCA-job run
  C   0.72534614772807     -0.01053735680527      0.16756667493323
  C   -0.63602056699823      0.00700408272748     -0.01000091407605
  N   1.61757866414034      0.31030587625519     -0.87682023496411
  H   2.19126450658337      1.10442884822050     -0.61563511026997
  H   2.25546554540603     -0.46095341171979     -1.03708298943602
  N   1.31869425417420     -0.40321075753812      1.43032343679584
  O   2.55223523033067     -0.44003193817003      1.48319417901647
  O   0.58938838318892     -0.68769254718347      2.39467541894571
  C   -1.20703386823496      0.38247099557195     -1.34726676221308
  H   -1.84907837159398     -0.42437025785522     -1.71503634280754
  H   -0.41490540205666      0.56850378340679     -2.06509174155518
  H   -1.82522133596381      1.27857778061559     -1.24348832490501
  N   -1.56410664112426     -0.21625438166859      0.95391283038177
  H   -1.24831169159771     -0.60713823036726      1.82722817573215
  H   -2.50529485398199     -0.40310248548974      0.65452170442179
