15
Coordinates from ORCA-job run
  C   0.75610123036501     -0.04969611267424      0.20260843791226
  C   -0.60406822186937      0.02004445744778      0.06412176159533
  N   1.66873510303865     -0.18457557682347     -0.85954783632534
  H   2.50339584675241      0.36297544868737     -0.69757373065791
  H   1.25750127942106      0.03463577445692     -1.75333272728447
  N   1.39157612309547     -0.12420341447413      1.48453155955725
  O   2.62731511480859     -0.08781076695544      1.50290943922563
  O   0.69345780075362     -0.19966438335378      2.51092599663696
  C   -1.17388936804022      0.12956362017781     -1.32424717304534
  H   -2.23892442658152      0.36353382878584     -1.28722721011329
  H   -1.04682602761731     -0.80068689140643     -1.88658958883367
  H   -0.69103583667301      0.93242058595890     -1.88741838942828
  N   -1.51787328264295      0.04817287100796      1.08468054551834
  H   -1.17084078425802     -0.20903500034895      1.99538253150559
  H   -2.45362455055242     -0.23567444048613      0.85077638373694
