15
Coordinates from ORCA-job run
  C   0.72186187822814     -0.10950872490243      0.18788777105469
  C   -0.61661239162792     -0.15351981915422     -0.08608846206311
  N   1.40196417902321     -1.29912179024691      0.53688149460551
  H   2.23814960179584     -1.39336714224133     -0.02829710266489
  H   1.71166583476324     -1.26267799735664      1.50252113367211
  N   1.49577888734292      1.11027631870994      0.11114106464643
  O   2.71744260523102      0.99248988134183      0.26652335978282
  O   0.92932673675096      2.18579885097326     -0.10486526765707
  C   -1.48485058554755      1.00148824449575     -0.48785554137695
  H   -1.07414177039655      1.52526078797104     -1.34960480095640
  H   -2.49254413940278      0.64988334158263     -0.71930138149387
  H   -1.54586366846025      1.73333945568162      0.31776710090341
  N   -1.26135618317213     -1.34637015963399      0.09556774392321
  H   -2.10074447800408     -1.49667311181703     -0.43849888529755
  H   -0.64107650652409     -2.13829813540353      0.19722177292166
