15
Coordinates from ORCA-job run
  C   0.77170418345870     -0.09291112820116      0.21082544996472
  C   -0.54782011860781     -0.17347558282256     -0.04961043934212
  N   1.59571264828887     -1.16665496895876      0.56925781442161
  H   2.54209614446524     -1.02524220879080      0.23583314771252
  H   1.21781215331755     -2.01558688388514      0.15991730624748
  N   1.45782293490897      1.19570728369522      0.24666737533351
  O   2.41111121701334      1.31674030451023     -0.52752780439030
  O   1.05106826443825      2.06119275666107      1.01966143012449
  C   -1.39977960032521      0.97280772039143     -0.50459861019926
  H   -1.00617144900607      1.92917385819870     -0.16181536569374
  H   -2.41392719986892      0.87022474068223     -0.10992572373816
  H   -1.46483918570649      1.00451023359603     -1.59740995224317
  N   -1.10132546345935     -1.48151825855381     -0.02846553976635
  H   -2.05450207134681     -1.49767217861229     -0.35925681416451
  H   -1.05796245757027     -1.89729568791039      0.89444772573328
