15
Coordinates from ORCA-job run
  C   0.80112435713856     -0.05554908172719      0.13205734506494
  C   -0.53073314441311     -0.14154110805939     -0.13140734922853
  N   1.65610655747064     -1.14654065927289      0.26822108814385
  H   1.34235619040514     -1.98562663995314     -0.18945778222424
  H   2.08710170219166     -1.28788442225036      1.16759551387165
  N   1.47547012421745      1.22264507370774      0.26966318431152
  O   0.96651635446367      2.23769797078395     -0.21247510290722
  O   2.52466399956073      1.20575564932495      0.91723312934440
  C   -1.43012010679731      0.98771531971013     -0.54511053292336
  H   -2.46355794067699      0.63849531491404     -0.60634547860417
  H   -1.38008818852980      1.81823093973838      0.15861484812064
  H   -1.13925378552016      1.38687150579205     -1.51716114488315
  N   -1.10837803211371     -1.41398917924767     -0.14897326181905
  H   -2.11286107868635     -1.40248828052717     -0.06529189341160
  H   -0.68834700871041     -2.06279240293343      0.50283743714432
