15
Coordinates from ORCA-job run
  C   0.72421061582050     -0.10825334525784      0.17977777913850
  C   -0.60290163197973     -0.16488862211162     -0.14377120638463
  N   1.40428582888014     -1.29414984834023      0.54243537906969
  H   1.90802514350343     -1.14698778288465      1.40971948590420
  H   2.10084750868766     -1.53297211897983     -0.15580083947010
  N   1.47157329503421      1.12985417845546      0.20332809529345
  O   2.62813464270284      1.06131647313218      0.63695073940967
  O   0.94439901959480      2.17434431810258     -0.19095984902008
  C   -1.47867830983863      0.99002135291255     -0.52906177590301
  H   -1.14137859670019      1.43116536345827     -1.46707417762464
  H   -1.43857401027119      1.78328642448476      0.21578785489172
  H   -2.51048916975152      0.65350943806390     -0.65059116607979
  N   -1.18780038823625     -1.39967335635210     -0.20319050744199
  H   -0.63908827091544     -2.13679045013438      0.21829938111411
  H   -2.18356567653064     -1.44078202454906     -0.06584919289711
