15
Coordinates from ORCA-job run
  C   0.73029294273215     -0.13811189103138      0.12217120981096
  C   -0.61312117968065     -0.14163952441175     -0.13467677166314
  N   1.41393981084842     -1.36372641902081      0.27785337285683
  H   1.97047371849146     -1.34778943736194      1.12563409686983
  H   2.06874925043117     -1.50901426801126     -0.48324667412235
  N   1.49543408061185      1.08327835025646      0.26382467886034
  O   0.92014102232014      2.17600393786540      0.22608560309289
  O   2.70753954137943      0.94854494455755      0.46504727691151
  C   -1.49017283803055      1.05996361268336     -0.32162172060753
  H   -2.50608902973601      0.75080611165997     -0.57484469840937
  H   -1.50369574125962      1.67498058803217      0.57834340667470
  H   -1.10977480814521      1.69800174763070     -1.11829829927039
  N   -1.22005544789594     -1.35479703089599     -0.31179910261617
  H   -0.65894269487164     -2.13714457364662     -0.00298494321329
  H   -2.20571862719499     -1.39735614830585     -0.11248743517483
