15
Coordinates from ORCA-job run
  C   0.73567184830687     -0.09520505406243      0.13523923498545
  C   -0.60910119867366     -0.17411433516352     -0.09857316045525
  N   1.50197105981285     -1.28167407666714      0.20016205739713
  H   2.31731032978004     -1.19630864333886     -0.39597059292189
  H   1.85010539027912     -1.43085720606819      1.14155495266969
  N   1.42943282516765      1.16359594452703      0.29774936719826
  O   0.78990520800071      2.21905838430558      0.33145662100065
  O   2.66147603817195      1.09981481773385      0.38902290051000
  C   -1.56519983448428      0.97584002764429     -0.21246291703142
  H   -1.63051177728424      1.51568352904027      0.73228431667129
  H   -1.23015211473926      1.69748237963636     -0.95588111143958
  H   -2.55954658579103      0.61079673128400     -0.47813260729752
  N   -1.16883581230158     -1.42034953736448     -0.15942623278484
  H   -0.49681965692130     -2.17028006065178     -0.24904288907153
  H   -2.02470571932385     -1.51248290085498     -0.67997993943045
