15
Coordinates from ORCA-job run
  C   0.71560796091029     -0.10455116357488      0.21324287856157
  C   -0.60877524600310     -0.16083400075800     -0.12076087234987
  N   1.40819627141307     -1.29837858769671      0.52139235471243
  H   2.27110489489475     -1.33931683022308     -0.00889120572430
  H   1.67304764764282     -1.31443616844519      1.50084830278358
  N   1.46394054538880      1.13310691078672      0.23874946786530
  O   2.68017053549182      1.03184124149325      0.44085780263750
  O   0.88276160265453      2.20727119282886      0.05807352974168
  C   -1.48694417657880      0.99680846351041     -0.49219515127989
  H   -2.47578826977101      0.63759669502178     -0.78503422196417
  H   -1.05356255686439      1.57798260682314     -1.30467346666285
  H   -1.59804989503512      1.68010122218535      0.34987123851223
  N   -1.23171547597339     -1.37619572781185     -0.03722491650381
  H   -2.04326795999738     -1.51181041924659     -0.61638399315471
  H   -0.59572587817289     -2.15818543489321      0.04312825282531
