15
Coordinates from ORCA-job run
  C   0.73320189167117     -0.12036161653669      0.12808722726954
  C   -0.61748292276607     -0.15283288397237     -0.08051292564001
  N   1.40691194863790     -1.30126030637267      0.51716381148619
  H   1.98832883249745     -1.11256821360940      1.32575115928965
  H   2.03195241327013     -1.61412346914986     -0.21844491432378
  N   1.51600965366981      1.08911074903260     -0.00175285295721
  O   0.98719022940118      2.12207074185620     -0.42324599162731
  O   2.70366437559476      1.00954377518147      0.33509127278456
  C   -1.48883760726090      1.00223974608687     -0.47540086421525
  H   -1.36461404049154      1.84316210999487      0.20507653591410
  H   -1.21774945681525      1.36576868232090     -1.46670065337678
  H   -2.53629788409207      0.69362337637832     -0.48926158043225
  N   -1.24103153455203     -1.36775315270669     -0.00263210305940
  H   -0.68018162750852     -2.09198510264882      0.42529369973972
  H   -2.22206427125603     -1.36363443585471      0.22048817914824
