15
Coordinates from ORCA-job run
  C   0.71131663055863      0.09724558468248      0.19325673277590
  C   -0.56105457725358     -0.08773339785869     -0.28834819159485
  N   0.95652589702614      0.47090054642289      1.53103128053558
  H   1.56650734340105     -0.20716930197183      1.97317249210190
  H   1.44672364141753      1.35780630190638      1.56263900443947
  N   1.87586167320801     -0.11127893988955     -0.64559991747405
  O   2.98194664799542      0.04077063097870     -0.11735277947053
  O   1.73040700814266     -0.42991716717989     -1.83705739360573
  C   -1.73604900932887      0.11139458249630      0.62568319284266
  H   -1.40398259577967      0.31722941520021      1.63800213575734
  H   -2.36602078490354     -0.78363969158985      0.62060675942738
  H   -2.34338095787949      0.94764226587843      0.26777138053218
  N   -0.88880047625999     -0.37364440620493     -1.57235786959289
  H   -0.15014481570792     -0.64784034616854     -2.19981915133690
  H   -1.82185562463640     -0.70076607670211     -1.75162767533746
