15
Coordinates from ORCA-job run
  C   0.70072798371093      0.12251299389032      0.22079588774927
  C   -0.54272130603767     -0.12175207750772     -0.30823166539174
  N   0.86721872411282      0.68055293760526      1.50532711043128
  H   1.37359336276988      1.55678067227584      1.44391413539021
  H   1.43185740443292      0.06587292977503      2.08047251441305
  N   1.91037378825650     -0.21824124151004     -0.50111261320919
  O   1.83413841804239     -0.70676713874188     -1.64049118328462
  O   2.98406941887081     -0.00338636336884      0.07059276376838
  C   -1.77002691480271      0.21580586563511      0.48900170545611
  H   -1.50044761823435      0.58770378684232      1.47205975347697
  H   -2.35412009858011      0.97374252877828     -0.04044764272681
  H   -2.39763489166086     -0.67467118562239      0.59619661487893
  N   -0.79546047332913     -0.58703050025368     -1.55678478245187
  H   -0.02256932099626     -0.95791620226467     -2.08605040812573
  H   -1.71999847655514     -0.93320700553295     -1.74524219037423
