15
Coordinates from ORCA-job run
  C   0.73209890259871     -0.11617649481960      0.13811858875780
  C   -0.59918249111084     -0.15107180716922     -0.17079599010006
  N   1.47073343025674     -1.32149509383959      0.17512912485980
  H   2.15507648715730     -1.34367836532277     -0.57377429900342
  H   1.99319765804847     -1.37596989196572      1.04202147179514
  N   1.42884899240670      1.10997138169120      0.46023033947452
  O   2.60143556939120      0.98911587994739      0.83538452124384
  O   0.84608424025834      2.19368774954759      0.35906815584068
  C   -1.53226448431739      1.02118467748540     -0.23750343111928
  H   -1.50991755228300      1.59815034589421      0.68570645257261
  H   -1.23516237834690      1.70344269597505     -1.03406837194530
  H   -2.55098806439473      0.67842502488885     -0.43072451611871
  N   -1.13329833576095     -1.35677287438518     -0.53403742608710
  H   -0.54331824923669     -2.14958084930280     -0.32052614183262
  H   -2.12234372466696     -1.47823237862481     -0.39522847833787
