15
Coordinates from ORCA-job run
  C   0.73520438113727     -0.12096397294551      0.11468728844644
  C   -0.62042924119116     -0.15122897650364     -0.05803676904996
  N   1.45028035994931     -1.33488235870619      0.23457691417146
  H   1.83211571174008     -1.43425396490810      1.16947632727905
  H   2.24144102169473     -1.32995164360639     -0.39907222358031
  N   1.49185056296317      1.11159885858852      0.15175725737910
  O   0.90230110082777      2.19621667117265      0.13531910353558
  O   2.72297902848211      0.99594942746601      0.19158065545933
  C   -1.52752415185437      1.03205640643103     -0.22106581243325
  H   -1.52874217136105      1.64233300490341      0.68223251553868
  H   -2.54786300916568      0.69715022224151     -0.41953265439921
  H   -1.19189832553553      1.67992452371543     -1.02937708370503
  N   -1.23918785376803     -1.37038839361979     -0.00122489037744
  H   -2.11616373732893     -1.45788239766928     -0.48687380614731
  H   -0.60536367658968     -2.15567740655966     -0.06544682211713
