15
Coordinates from ORCA-job run
  C   0.75130462899263     -0.05697348774547      0.16132903128291
  C   -0.61200038837874     -0.09323837247563      0.04952184386012
  N   1.63039332531761      0.16675582256060     -0.91458998171717
  H   1.23134463576569      0.77200393390432     -1.61659460778815
  H   2.50629675342144      0.54103045455693     -0.57441848325865
  N   1.42663154896575     -0.33157177928570      1.39479756441889
  O   2.64594894158477     -0.11820469084249      1.43141391347632
  O   0.77803066531085     -0.74919481975040      2.36876715577662
  C   -1.21651993419202      0.24499606498521     -1.28466936735490
  H   -2.30367721023507      0.30770905426784     -1.21524424200760
  H   -0.97160679128078     -0.52589487548671     -2.02163590122536
  H   -0.85432555949882      1.20299747708797     -1.66730395221910
  N   -1.49148476242547     -0.54562102455431      1.00293443471748
  H   -1.10461035862784     -0.66611069138427      1.92705536877030
  H   -2.41572549472001     -0.14768306583789      0.95963722326830
