15
Coordinates from ORCA-job run
  C   0.72473922963430     -0.11470820119323      0.17350649665948
  C   -0.59908910312792     -0.15746568914023     -0.16567514349249
  N   1.42961584979388     -1.32246667147980      0.38346092507002
  H   1.92438964669400     -1.28114320836256      1.26719575573330
  H   2.13540056562329     -1.45254858983621     -0.33387462307683
  N   1.44721519131755      1.12568376083927      0.35264321440914
  O   0.89542314794671      2.20119810437728      0.10145009611589
  O   2.60890387270676      1.02590470709450      0.76600487607951
  C   -1.49836016344530      1.01829051755584     -0.40745830114602
  H   -1.16281749749107      1.58565888872410     -1.27564613957521
  H   -1.48423809481122      1.70793780930386      0.43504888101581
  H   -2.52076308541523      0.67766096843136     -0.58446598188613
  N   -1.15633481026160     -1.38649133020051     -0.38747107024696
  H   -0.59344629665944     -2.16022476677569     -0.06111568161326
  H   -2.15163845250470     -1.46628629933800     -0.26460330404625
