15
Coordinates from ORCA-job run
  C   0.72632113804879     -0.11461053238567      0.16721154562327
  C   -0.59974619207460     -0.15773132163336     -0.16250313814854
  N   1.43465493351594     -1.32220185678064      0.36628001833255
  H   2.13207257523804     -1.45008633839326     -0.35964421662706
  H   1.93978584420160     -1.28191185577876      1.24416750405362
  N   1.44764116461218      1.12618099178468      0.34902056172950
  O   2.61129495114599      1.02623447569491      0.75686411436712
  O   0.89306273949724      2.20204642847683      0.10549845606106
  C   -1.50256159619303      1.01747616603008     -0.39320820954900
  H   -1.17385173871057      1.58890398418462     -1.26132359427707
  H   -2.52561604795256      0.67569097597307     -0.56389392033329
  H   -1.48344237912579      1.70386015326249      0.45190183298225
  N   -1.15694090136443     -1.38692054876840     -0.38383509220203
  H   -2.15137668564050     -1.46816514748017     -0.25500654803195
  H   -0.59129780519830     -2.16076557418643     -0.06252931398045
