15
Coordinates from ORCA-job run
  C   0.73480684095375     -0.07600416299602      0.09183720529212
  C   -0.63542085556044     -0.01634960743285      0.02748729496849
  N   1.55032201906823      0.35369471765189     -0.97606883618052
  H   2.18516595402137      1.07724393903277     -0.65821194407505
  H   2.13120315654868     -0.41096861830733     -1.30147407394323
  N   1.41715416263211     -0.54327284039312      1.28218223225647
  O   2.65199930489984     -0.51485651231151      1.26815313797573
  O   0.75850580021044     -0.94439348899315      2.25583144878042
  C   -1.29999535010553      0.50796479336531     -1.21294603387010
  H   -0.56061204695963      0.84005647108368     -1.93431208940239
  H   -1.95814498811311      1.34389666799814     -0.95506082703384
  H   -1.91806867346425     -0.27731751451824     -1.65707160136316
  N   -1.49358811620515     -0.47033765010365      0.97498562090709
  H   -2.44972715657742     -0.16580444781476      0.91711573721301
  H   -1.11360005134887     -0.70355174626117      1.87855272847496
