15
Coordinates from ORCA-job run
  C   0.74199750210886     -0.11680083482687      0.06781111765195
  C   -0.62208197952080     -0.15323875904389     -0.02330913376330
  N   1.46516174418659     -1.32785035023475      0.16683444310593
  H   2.21589001121434     -1.33547025428940     -0.51421694523850
  H   1.90522367646893     -1.40765233381318      1.07771955698305
  N   1.49516253075081      1.11746235083598      0.05313813996453
  O   2.72716216141083      1.00503443362530      0.03879315688150
  O   0.90254347093361      2.20063916410155      0.04632601188305
  C   -1.54169804291795      1.02429940942483     -0.15102710139155
  H   -1.25203088650050      1.66235459500390     -0.98433014628428
  H   -1.49481740610276      1.64661141980687      0.74293971068861
  H   -2.57047004467824      0.68507505594357     -0.28903807452711
  N   -1.23056607523277     -1.37201626446995      0.08785407023433
  H   -2.14170307073842     -1.47102668622719     -0.32641011531356
  H   -0.60077359138254     -2.15842094583679      0.00691530912537
