15
Coordinates from ORCA-job run
  C   0.73675446356542     -0.12170246485660      0.10739843762339
  C   -0.61957344674931     -0.15157677792095     -0.06175662599145
  N   1.45853111938988     -1.33646600457917      0.16729737220570
  H   2.24396314013065     -1.29902959399087     -0.47244117163273
  H   1.84974660238249     -1.47344788249473      1.09355239962995
  N   1.48676175282001      1.11158817014853      0.19607110324685
  O   0.89083129185687      2.19215030034940      0.23789677587203
  O   2.71874725206789      1.00144004866886      0.21907354685161
  C   -1.53352404817277      1.03273304695419     -0.16894202363098
  H   -2.55149633916299      0.70172925025322     -0.38512849747781
  H   -1.20096166683802      1.72162311762391     -0.94387910989503
  H   -1.53888912680857      1.59842201029101      0.76296310304807
  N   -1.23095657422884     -1.37490085467584     -0.05849599074759
  H   -2.11325527586185     -1.44705979904229     -0.53645833702422
  H   -0.59467914439087     -2.15450256672868     -0.15615098207780
