15
Coordinates from ORCA-job run
  C   0.72467703941387     -0.13718174008610      0.10346531425201
  C   -0.62113463851123     -0.16770188819495     -0.01857560293780
  N   1.48591813018259     -1.32285590942151      0.24308288307402
  H   1.77217382978107     -1.45595744343421      1.20747127855400
  H   2.31453158026647     -1.28312802540097     -0.33863641662833
  N   1.45869543427107      1.12718593479770      0.16237160106201
  O   1.09886996539403      2.00871729948282      0.94520233456319
  O   2.46577781672935      1.18989255056361     -0.54999842286606
  C   -1.49339419526562      1.03155017539959     -0.23403938469116
  H   -2.46712399126837      0.87560641915831      0.23525014582207
  H   -1.05413202115131      1.92989517707451      0.19272653425644
  H   -1.64640310689142      1.19612623052861     -1.30463821631825
  N   -1.26983639301677     -1.38753856912428      0.00984956498614
  H   -0.64718736580581     -2.17279318782905     -0.12417230646395
  H   -2.12143208412792     -1.43081702351406     -0.52735930666433
