15
Coordinates from ORCA-job run
  C   0.73664699081036     -0.12258246143687      0.10322783593357
  C   -0.61225009054131     -0.14959827270338     -0.11836666019656
  N   1.45441720441239     -1.33864198501691      0.17982435348731
  H   2.09119649185814     -1.42616469379925     -0.60540988030746
  H   2.02868915007102     -1.34527399034398      1.01513045802081
  N   1.47677445041954      1.10763335583288      0.27961299713283
  O   2.67343720188365      0.98772532208289      0.56939600613747
  O   0.90582473210335      2.19416472970016      0.14622519441326
  C   -1.52663389406684      1.03555198208629     -0.21189941351778
  H   -1.26789380718603      1.65301894035384     -1.07217152916990
  H   -2.56153783422473      0.70290142354948     -0.31683574383442
  H   -1.43603446865650      1.67545253314969      0.66440828252020
  N   -1.19028194046281     -1.36575825578807     -0.35683015587020
  H   -0.60176445674370     -2.15480559858608     -0.12641513600818
  H   -2.17058972967654     -1.45462302908066     -0.14889660874095
