15
Coordinates from ORCA-job run
  C   0.73191242646952     -0.08494071741397      0.02056049809475
  C   -0.61190308632901     -0.09412845119280     -0.18774386962703
  N   1.50512355416301     -1.24771618857646      0.07616781910447
  H   1.12863988489923     -1.92616230781788      0.72383792559603
  H   2.46633142708806     -1.03965450811085      0.30324612816548
  N   1.51383758706670      1.14777790233685      0.19216031929366
  O   2.59003950122497      1.03109534212673      0.78805568679305
  O   1.10235889612005      2.19835041929840     -0.29305508776772
  C   -1.55628318306919      1.07350770701996     -0.17455941657582
  H   -1.91840448827352      1.28319239535559      0.83869037891496
  H   -1.10143637626726      1.98085296952177     -0.55865972296069
  H   -2.41625988084464      0.80665267931350     -0.78824737329468
  N   -1.21092085142371     -1.35546869073796     -0.45808305459784
  H   -1.70080627845848     -1.76529192824066      0.32787716218499
  H   -0.52022913236572     -2.00806662288221     -0.81024739332361
