15
Coordinates from ORCA-job run
  C   0.72720181238158     -0.12711108563267      0.15335800147704
  C   -0.61141602343463     -0.14875929080812     -0.12318507054376
  N   1.45361568988708     -1.33999906157052      0.17632821998926
  H   2.28719515618804     -1.25058920000955     -0.39346234142653
  H   1.77108097097033     -1.54850291022927      1.11732147700656
  N   1.45557723100510      1.09857717801033      0.39925262814710
  O   0.84824229852340      2.17081830427182      0.47410917002199
  O   2.68225581578774      0.99011651402199      0.51658410537096
  C   -1.52590291444182      1.03695251327196     -0.20776908175959
  H   -1.14211730650586      1.78460855093510     -0.90014559868958
  H   -1.60755331299998      1.52849455863595      0.76179592612672
  H   -2.52160233558896      0.72023697644892     -0.52536071748018
  N   -1.20961590496769     -1.37122290618462     -0.26208321015860
  H   -2.04807304098254     -1.40745233773579     -0.81712151626240
  H   -0.55888813582178     -2.13716780342553     -0.37262199181900
