18

C	-0.407116	0.04218	-1.480835
C	0.0	0.0	0.0
Br	0.196132	-1.658947	-2.346182
H	1.090898	0.0	0.0
C	-1.862012	0.03332	-1.630348
N	-3.03465	0.079486	-1.728657
C	0.236598	1.162766	-2.295328
H	1.307043	1.15385	-2.077746
H	0.060288	0.992678	-3.360214
H	-0.178183	2.128634	-2.003577
C	-0.533058	-1.1752	0.784591
H	-1.620839	-1.247999	0.752155
H	-0.225771	-1.066211	1.823816
H	-0.086243	-2.090151	0.399947
N	-0.38947	1.262815	0.652093
O	0.167212	2.303304	0.268266
O	-1.18392	1.224251	1.60842
H	2.606024	0.0	0.0
