18

C	-0.396816	0.049926	-1.483107
C	0.0	0.0	0.0
Br	0.196413	-1.666185	-2.316672
H	1.090874	0.0	0.0
C	-1.849372	0.073529	-1.649169
N	-3.018576	0.149373	-1.752429
C	0.288052	1.168209	-2.262025
H	1.355906	1.120957	-2.0313
H	0.114772	1.035323	-3.331562
H	-0.099487	2.136922	-1.946255
C	-0.557675	-1.165925	0.78268
H	-0.04897	-2.073843	0.466759
H	-1.635347	-1.283053	0.666898
H	-0.347648	-1.012311	1.839872
N	-0.417986	1.277296	0.623873
O	-1.352889	1.268503	1.437403
O	0.227204	2.289406	0.331544
H	2.657405	0.0	0.0
