18

C	-0.367853	-0.015464	-1.461699
C	0.0	0.0	0.0
Br	-2.368904	-0.01314	-1.740566
H	1.094697	0.0	0.0
C	0.126584	1.133025	-2.223221
N	0.551903	1.936331	-2.969287
C	0.197072	-1.27203	-2.118316
H	1.264253	-1.303972	-1.866038
H	-0.300588	-2.164269	-1.739647
H	0.067601	-1.224821	-3.200088
C	-0.377415	-1.238828	0.780621
H	-1.446499	-1.462135	0.725172
H	-0.095231	-1.08163	1.819578
H	0.202148	-2.086786	0.41221
N	-0.422509	1.21825	0.683128
O	-0.626848	2.235476	0.005633
O	-0.448062	1.206594	1.921653
H	2.511267	0.0	0.0
