18

C	-0.445123	0.006952	-1.465117
C	0.0	0.0	0.0
Br	0.361916	-1.580142	-2.35451
H	1.090891	0.0	0.0
C	-1.890024	-0.169126	-1.606552
N	-3.051679	-0.300858	-1.738148
C	0.04639	1.24265	-2.211057
H	1.117475	1.345024	-2.02002
H	-0.149182	1.140704	-3.279569
H	-0.468627	2.130008	-1.838204
C	-0.512421	-1.152649	0.833465
H	-0.131404	-1.03289	1.85074
H	-0.101104	-2.081734	0.437972
H	-1.601052	-1.208622	0.8688
N	-0.460403	1.285825	0.589781
O	0.279915	2.265359	0.475549
O	-1.55949	1.311122	1.163749
H	2.714377	0.0	0.0
