18

C	-0.353405	-0.033091	-1.467336
C	0.0	0.0	0.0
Br	-2.35074	0.076446	-1.749954
H	1.096396	0.0	0.0
C	0.202731	1.066637	-2.259359
N	0.633957	1.806271	-3.066449
C	0.138106	-1.333946	-2.093506
H	1.203307	-1.416958	-1.84725
H	0.003931	-1.307098	-3.176059
H	-0.405979	-2.187102	-1.690036
C	-0.410085	-1.212554	0.800101
H	-1.485992	-1.402349	0.763618
H	-0.114581	-1.054189	1.835534
H	0.137904	-2.082962	0.437307
N	-0.414604	1.244859	0.639924
O	-0.330749	2.285459	-0.02653
O	-0.725364	1.224515	1.840464
H	2.513029	0.0	0.0
