11
Coordinates from ORCA-job run
  C   -0.84204410562326     -1.08607330852158     -0.55369722028023
  C   0.03649684799983     -0.17189900327387     -0.10534676866111
  H   -0.51919914937836     -2.05491056131261     -0.92105120576593
  H   -1.90031245652738     -0.86539503489207     -0.59022570207683
  N   1.42725150097152     -0.34415909328162     -0.15400603612160
  H   1.90878440037497      0.05841168299945      0.63693023546396
  H   1.70762569996925     -1.30370966158804     -0.29714078423489
  C   -0.38097364125752      1.17973851033499      0.39662166150724
  H   -1.46392650744037      1.29555793758167      0.36364869198410
  H   0.07942809618973      1.96601724894578     -0.20757456888287
  H   -0.05413068527841      1.32742128300790      1.43184169706814
