11
Coordinates from ORCA-job run
  C   -0.88083715824761     -1.16243294050684     -0.26259329623172
  C   0.02909366466353     -0.19165737670310     -0.06684739445906
  H   -1.93767987809242     -0.93351694163491     -0.28805655561988
  H   -0.58711249646804     -2.19353733084536     -0.43115899286847
  N   1.41359484169926     -0.39726121922141     -0.15358783048929
  H   1.94173382753989      0.15533421991599      0.50617728459087
  H   1.67855808730430     -1.37039581311882     -0.10231847692294
  C   -0.34859235797676      1.24408954699447      0.15547781981212
  H   0.08105067407089      1.87284666894506     -0.62894374044128
  H   0.03988902236483      1.60381695821733      1.11464273738128
  H   -1.43069822685785      1.37171422795760      0.15920844524838
