11
Coordinates from ORCA-job run
  C   -0.92571590210191     -1.12798322584571     -0.25827460149086
  C   0.01365166443140     -0.17908721154120     -0.09821384417742
  H   -0.67765727216995     -2.11758992212505     -0.62840204803538
  H   -1.96553400998893     -0.91932351751141     -0.04584487593741
  N   1.35387982930063     -0.34359938999360     -0.47741085797983
  H   1.61354908044016     -1.30894829664697     -0.62105122138717
  H   2.00448251562316      0.11591132071911      0.14323065129764
  C   -0.30063371493848      1.20162510158613      0.39987119573849
  H   -1.36028497331434      1.30596360115404      0.63124993146116
  H   0.26964888450607      1.42614944000836      1.30799009036907
  H   -0.02538610178780      1.94588210019630     -0.35214441985829
