11
Coordinates from ORCA-job run
  C   -0.92769442547123     -1.04088858534116     -0.50083269672920
  C   0.01633657313460     -0.15835311905301     -0.12885406055538
  H   -1.97449775624647     -0.84492994262705     -0.31157555658382
  H   -0.67743072630305     -1.95451245086467     -1.03046010990414
  N   1.37277700398655     -0.28811855863599     -0.46091311415538
  H   1.99468250920947      0.03871743293732      0.26440335056556
  H   1.62473270193740     -1.21977315960223     -0.75835709961003
  C   -0.30284977356993      1.11936674982628      0.59134759613668
  H   -1.37276001649012      1.21143497676415      0.77603392612001
  H   0.03161111064342      1.97787266300007      0.00283226335212
  H   0.21409279916936      1.16118399359629      1.55637550136357
