11
Coordinates from ORCA-job run
  C   -0.83031107919571     -1.09483991950737     -0.55482957980241
  C   0.03863366418653     -0.17310387133757     -0.10297379753456
  H   -0.49838208714690     -2.06575626277162     -0.90835211772254
  H   -1.88872044439038     -0.87847387784100     -0.60846780012274
  N   1.43049470118906     -0.33966877621278     -0.13147933014073
  H   1.89965255491570      0.07271592365673      0.66180171471451
  H   1.71791964431760     -1.29878180465071     -0.26270948598840
  C   -0.39098025072171      1.18166523427233      0.38031437782786
  H   -0.07862310865250      1.34076451928592      1.41830087869481
  H   -1.47385628159209      1.29260381830532      0.33186540031116
  H   0.07417268709041      1.96387501680077     -0.22547026023695
