15

C	0.0	0.0	0.0
C	-0.509001	-0.044582	-1.4325
F	1.382053	0.0	0.0
H	-1.617347	-0.110896	-1.277824
N	-0.54919	1.137976	0.63863
H	-0.337028	1.096236	1.631382
H	-1.588179	0.972632	0.535062
C	-0.33437	-1.29649	0.67294
N	-0.532181	-2.277339	1.288354
N	0.001268	-1.224265	-2.115641
H	-0.520199	-1.371219	-2.969911
H	0.975288	-1.086248	-2.356473
C	-0.178327	1.211011	-2.12186
N	0.091157	2.137223	-2.794785
H	-2.928043	0.0	0.0
