15

C	0.0	0.0	0.0
C	-0.325961	-0.345674	-1.499936
F	1.398595	0.0	0.0
H	0.480904	0.188271	-2.014919
N	-0.531602	1.281282	0.305094
H	-0.291593	1.511969	1.2658
H	-1.560041	1.126909	0.276707
C	-0.352928	-1.067137	0.969285
N	-0.5067	-1.883845	1.800699
N	-1.584531	0.055551	-2.075501
H	-2.333038	-0.098433	-1.354573
H	-1.543954	1.062717	-2.192781
C	-0.072506	-1.778194	-1.732941
N	0.15234	-2.911505	-1.94251
H	-3.089135	0.0	0.0
