15

C	0.0	0.0	0.0
C	-0.339067	0.004914	-1.538722
F	1.375233	0.0	0.0
H	0.518874	0.528689	-1.983158
N	-0.529793	1.10897	0.710684
H	-0.548411	1.897371	0.0688
H	-1.526719	0.877209	0.852134
C	-0.394609	-1.257154	0.675238
N	-0.545615	-2.277831	1.235729
N	-1.54499	0.760276	-1.799207
H	-2.315438	0.411832	-1.148455
H	-1.83457	0.618164	-2.760531
C	-0.285741	-1.363923	-2.095885
N	-0.222237	-2.423252	-2.602571
H	-3.164702	0.0	0.0
