16

C	0.0	0.0	0.0
C	-0.45971	0.125882	-1.487881
Cl	1.846956	0.0	0.0
H	0.402575	0.474195	-2.067046
C	-0.36211	1.263606	0.776739
H	0.028937	2.167368	0.300601
H	-1.45421	1.267389	0.810082
H	0.063604	1.193167	1.78144
N	-0.492883	-1.216289	0.551357
H	-1.528014	-1.033532	0.469471
H	-0.245005	-1.238858	1.536608
C	-1.515395	1.122038	-1.742898
N	-2.109697	2.008106	-2.239422
C	-0.843869	-1.166029	-2.067056
N	-1.100003	-2.15694	-2.641489
F	-2.703415	0.0	0.0
