16

C	0.0	0.0	0.0
C	-0.329218	0.192989	-1.515463
Cl	1.838325	0.0	0.0
H	0.373169	-0.465066	-2.039498
C	-0.414107	1.170163	0.880506
H	-1.504977	1.180493	0.825059
H	-0.086197	0.961648	1.90371
H	0.030834	2.112906	0.556608
N	-0.519172	-1.278739	0.369739
H	-1.553494	-1.060021	0.329532
H	-0.272945	-1.437064	1.343262
C	-0.039167	1.564422	-1.955901
N	0.212901	2.651212	-2.324693
C	-1.655534	-0.203799	-2.035295
N	-2.429615	-0.547348	-2.852721
F	-2.74812	0.0	0.0
