16

C	0.0	0.0	0.0
C	-0.586507	0.20311	-1.42327
Cl	1.791059	0.0	0.0
H	-1.699498	0.192332	-1.125935
C	-0.422842	1.178095	0.872121
H	-1.514075	1.196373	0.858215
H	-0.052933	0.992137	1.880613
H	6.6e-05	2.112473	0.499696
N	-0.490547	-1.214018	0.59213
H	-0.247554	-2.002801	-7.5e-05
H	-1.517378	-1.072246	0.559927
C	-0.289526	-0.919418	-2.300304
N	-0.064162	-1.850175	-2.981606
C	-0.210186	1.46032	-2.053802
N	0.084682	2.483974	-2.55132
F	-2.851762	0.0	0.0
