16

C	0.0	0.0	0.0
C	-0.319573	0.09366	-1.52363
Cl	1.838201	0.0	0.0
H	0.343592	-0.645007	-1.987901
C	-0.413001	1.225888	0.801067
H	0.029608	2.143352	0.408052
H	-0.079139	1.093421	1.834672
H	-1.505025	1.236413	0.74992
N	-0.522271	-1.250009	0.451074
H	-1.554597	-1.035548	0.387283
H	-0.290613	-1.343401	1.435291
C	0.054795	1.403417	-2.070754
N	0.363188	2.443095	-2.520891
C	-1.668102	-0.255191	-2.023739
N	-2.448252	-0.583837	-2.8428
F	-2.749494	0.0	0.0
