16

C	0.0	0.0	0.0
C	-0.601532	0.046939	-1.415842
Cl	1.786347	0.0	0.0
H	-1.715129	0.050523	-1.122726
C	-0.420355	1.261226	0.758141
H	-0.044685	1.194803	1.783044
H	-1.512822	1.257686	0.748887
H	-0.017287	2.167862	0.300516
N	-0.500042	-1.22357	0.57697
H	-1.524626	-1.065714	0.559102
H	-0.197303	-1.265926	1.545298
C	-0.278792	-1.134601	-2.207091
N	-0.037083	-2.053419	-2.897935
C	-0.261682	1.259569	-2.146995
N	0.000148	2.250718	-2.721694
F	-2.864545	0.0	0.0
