16

C	0.0	0.0	0.0
C	-0.325432	0.014101	-1.543667
Cl	1.796902	0.0	0.0
H	0.331691	0.767276	-1.993849
C	-0.448542	1.313266	0.621197
H	-1.541654	1.284315	0.604467
H	-0.072339	1.350548	1.645287
H	-0.053797	2.16548	0.061308
N	-0.530671	-1.09181	0.733991
H	-1.561278	-0.910205	0.637633
H	-0.29289	-1.966505	0.275836
C	-1.684909	0.360803	-2.011999
N	-2.480627	0.71178	-2.807165
C	0.052446	-1.275424	-2.132713
N	0.348499	-2.318841	-2.583569
F	-2.777959	0.0	0.0
