16

C	0.0	0.0	0.0
C	-0.328648	0.100314	-1.540394
Cl	1.795296	0.0	0.0
H	0.360953	-0.604021	-2.023618
C	-0.451908	1.221686	0.779404
H	-0.150265	1.081151	1.819136
H	-1.541842	1.233292	0.694931
H	0.005296	2.132216	0.389829
N	-0.536105	-1.178909	0.592761
H	-1.566525	-0.967706	0.5321
H	-0.328911	-1.98369	0.007312
C	-0.006004	1.420147	-2.092002
N	0.270089	2.471464	-2.537592
C	-1.664794	-0.316451	-2.018916
N	-2.43716	-0.737934	-2.802467
F	-2.781462	0.0	0.0
