15

C	-0.446118	-0.034154	-1.457834
C	0.0	0.0	0.0
Cl	-0.062066	1.551114	-2.241768
H	1.100186	0.0	0.0
H	-0.337462	-0.945066	0.443679
C	0.324386	-1.1227	-2.193697
H	0.057246	-2.096841	-1.774238
H	1.390557	-0.947233	-2.022376
H	0.093855	-1.116528	-3.260794
C	-1.895134	-0.216645	-1.581164
N	-3.044708	-0.432779	-1.693922
N	-0.614691	1.113039	0.727474
H	-0.009638	1.917225	0.593872
H	-0.561086	0.895061	1.715588
H	3.008502	0.0	0.0
