15

C	-0.471878	-0.050263	-1.456948
C	0.0	0.0	0.0
Cl	-0.15133	1.557284	-2.21856
H	1.092578	0.0	0.0
H	-0.375915	0.914323	0.473296
C	0.289696	-1.121274	-2.221902
H	0.006376	-1.132258	-3.276684
H	1.357027	-0.915183	-2.104668
H	0.064396	-2.086175	-1.764793
C	-1.921209	-0.263934	-1.528163
N	-3.081413	-0.450509	-1.563781
N	-0.423154	-1.231262	0.66761
H	0.374843	-1.588326	1.181222
H	-1.17787	-1.061942	1.317466
H	2.954711	0.0	0.0
