15

C	-0.5805	0.077026	-1.412556
C	0.0	0.0	0.0
Cl	0.001951	-1.333485	-2.381214
H	1.097634	0.0	0.0
H	-0.34585	0.900011	0.523948
C	-2.104512	0.037615	-1.418583
H	-2.416149	-0.860825	-0.888147
H	-2.48842	0.917363	-0.893252
H	-2.492049	0.032918	-2.43929
C	-0.128279	1.294399	-2.090589
N	0.117197	2.304719	-2.637883
N	-0.51824	-1.200517	0.679259
H	-0.572543	-0.98957	1.66948
H	0.213681	-1.900798	0.593417
H	2.944742	0.0	0.0
