15

C	-0.42931	0.062594	-1.457815
C	0.0	0.0	0.0
Cl	-2.252853	0.240956	-1.580551
H	1.099791	0.0	0.0
H	-0.368078	-0.926728	0.456772
C	0.230046	1.233179	-2.162458
H	-0.077933	2.144804	-1.651765
H	1.313048	1.109911	-2.051143
H	-0.051967	1.273724	-3.215719
C	-0.122906	-1.197063	-2.141278
N	0.105109	-2.197412	-2.714861
N	-0.400601	1.213834	0.706509
H	0.403969	1.530035	1.235414
H	-1.165388	1.033388	1.345289
H	2.886933	0.0	0.0
