15

C	-0.417765	-0.027118	-1.45875
C	0.0	0.0	0.0
Cl	-2.219249	0.299602	-1.610715
H	1.094843	0.0	0.0
H	-0.321642	0.968118	0.406899
C	0.344526	1.031926	-2.235864
H	0.089416	1.011698	-3.297494
H	1.414189	0.843217	-2.081352
H	0.105563	2.016171	-1.827991
C	-0.212116	-1.352032	-2.045317
N	-0.028305	-2.395709	-2.551376
N	-0.496674	-1.146158	0.743652
H	-1.237772	-0.8839	1.376913
H	0.273877	-1.523252	1.283423
H	2.914525	0.0	0.0
