15

C	-0.382493	-0.052668	-1.496398
C	0.0	0.0	0.0
Cl	-0.09026	1.577224	-2.21577
H	1.094013	0.0	0.0
H	-0.401968	0.915617	0.44202
C	0.479977	-1.07188	-2.229423
H	0.292091	-1.049307	-3.305006
H	1.525705	-0.839231	-2.000505
H	0.25463	-2.071906	-1.850427
C	-1.809715	-0.337432	-1.67062
N	-2.947357	-0.621873	-1.759433
N	-0.416542	-1.168273	0.75694
H	-1.329637	-1.518246	0.491834
H	0.27673	-1.898362	0.657323
H	2.973915	0.0	0.0
