15

C	-0.514147	-0.007227	-1.444596
C	0.0	0.0	0.0
Cl	0.145098	-1.467054	-2.28061
H	1.09274	0.0	0.0
H	-0.371523	-0.914032	0.479136
C	-2.035562	-0.092832	-1.54762
H	-2.373504	-0.99157	-1.027152
H	-2.354854	-0.142754	-2.590388
H	-2.500643	0.782949	-1.08631
C	-0.057968	1.180053	-2.17359
N	0.199681	2.161661	-2.766664
N	-0.385983	1.187744	0.752933
H	-1.26545	1.592708	0.462693
H	0.348339	1.877034	0.642411
H	2.912994	0.0	0.0
