11
Coordinates from ORCA-job run
  C   0.93893447172699     -0.00813763253820      0.18970152063350
  C   -0.59868193173533     -0.18048835755773      0.23761438367259
  Cl  1.60127148216812     -0.69824534816224     -1.30345127133957
  H   -0.95167254031319      0.27984964620734      1.17007338353312
  H   1.37244276405738     -0.56323728022962      1.02556223843341
  C   1.28264248003481      1.40465152745464      0.31422299363094
  N   1.53857898285824      2.54400342032542      0.44176017591168
  C   -0.95180796064423     -1.60301510057679      0.26747101682610
  N   -1.22064233219624     -2.74443578824190      0.31943218729567
  C   -1.24597155718675      0.50320552846489     -0.88553900138486
  N   -1.76509385876979      1.06684938485418     -1.77484762721256
