11
Coordinates from ORCA-job run
  C   0.89252543005849      0.03091487447338      0.30371776563033
  C   -0.48080294478005     -0.31792375427145     -0.32438984679025
  Cl  2.06005164014737     -1.24985824309601     -0.08632411170138
  H   -0.33964719609965     -0.42111743788562     -1.40700118481861
  H   0.79523814940559      0.06841320274063      1.39117352267657
  C   1.35729825581478      1.31972152773345     -0.19786012632768
  N   1.71358264252718      2.35823290187564     -0.61549508185672
  C   -1.43968609424982      0.76129150470183     -0.06575664419834
  N   -2.18895847094685      1.63884042289642      0.15204929186931
  C   -0.98411388407935     -1.58744523322739      0.20878649130586
  N   -1.38648752779767     -2.60206976594087      0.64109992421091
