11
Coordinates from ORCA-job run
  C   0.84888707576660      0.09722375232014      0.39885644150138
  C   -0.42441175971876     -0.35965078478071     -0.35729583736109
  Cl  2.11756249188683     -1.13250670823759      0.21125557795843
  H   -0.15584467536027     -0.50745329465651     -1.41019243677870
  H   0.62721295189738      0.18207546180797      1.46532148806805
  C   1.30178918010832      1.38431368411154     -0.11762705579612
  N   1.65392868241630      2.41983760112060     -0.54585339367900
  C   -1.46076224102580      0.67390102927672     -0.26675701268682
  N   -2.27617116917693      1.51518786138511     -0.18553838270237
  C   -0.91877326156975     -1.62898371207940      0.18476432877001
  N   -1.31341727522390     -2.64394489026786      0.62306628270623
