11
Coordinates from ORCA-job run
  C   1.00673901966753     -0.10846718013341     -0.12468018273433
  C   -0.46943534252975     -0.52998623201405     -0.31991347835093
  Cl  1.73945266539162      0.20019430178044     -1.71337245595020
  H   -0.47680121980533     -1.38235778135212     -1.00963711252341
  H   1.54678545041341     -0.94425699757446      0.32651363716003
  C   1.10923806832638      1.06333427742778      0.73735506643058
  N   1.17793659381360      1.99966035268200      1.44335839347264
  C   -1.25779891512026      0.55446410434925     -0.91161518274437
  N   -1.88530253835526      1.42243820888922     -1.39220347574650
  C   -1.03584543095087     -0.95622085674712      0.96395435701118
  N   -1.45496835085106     -1.31880219730753      1.99924043397530
