18

C	0.0	0.0	0.0
C	-0.474278	-0.125063	-1.498758
Br	1.987889	0.0	0.0
H	0.434996	-0.08784	-2.102981
N	-0.584307	1.019242	0.707496
H	-1.617974	0.834137	0.563073
H	-0.366424	0.919582	1.692804
N	-0.203282	-1.404199	0.78578
O	-0.773226	-1.327689	1.868694
O	0.253638	-2.436912	0.311538
N	-1.269365	1.059192	-1.835229
H	-2.153384	0.901057	-1.329174
H	-1.467185	0.990214	-2.828711
C	-1.222115	-1.423416	-1.836296
H	-1.569497	-1.325798	-2.871667
H	-0.600399	-2.315053	-1.768574
H	-2.091838	-1.478407	-1.179764
F	-2.89402	0.0	0.0
