18

C	0.0	0.0	0.0
C	-0.499206	0.103809	-1.449896
Br	1.994781	0.0	0.0
H	-1.537731	-0.234689	-1.338617
N	-0.613353	0.91787	0.823022
H	-1.667348	0.692617	0.606432
H	-0.40365	0.692542	1.78943
N	-0.262584	-1.477149	0.531596
O	-0.372505	-1.598693	1.745591
O	-0.325276	-2.408104	-0.266449
N	0.303551	-0.661661	-2.412649
H	0.221426	-1.641407	-2.171095
H	-0.145169	-0.541961	-3.315012
C	-0.512797	1.562372	-1.880698
H	-0.823592	1.621987	-2.930524
H	-1.223596	2.12202	-1.276418
H	0.482826	2.005447	-1.789888
F	-2.83467	0.0	0.0
