15

C	0.0	0.0	0.0
C	-0.467395	0.183871	-1.45958
Br	1.947385	0.0	0.0
H	0.402176	0.14432	-2.124077
H	-0.309273	-0.993482	0.317729
C	-0.471277	1.068648	0.968834
H	-0.097385	2.052391	0.677177
H	-0.103904	0.836312	1.970536
H	-1.56356	1.066172	0.969022
C	-1.12569	1.454597	-1.737207
N	-1.453494	2.546385	-2.022315
N	-1.281691	-0.989185	-1.997996
O	-1.911081	-0.767213	-3.020599
O	-1.101516	-2.07749	-1.473346
Br	-3.623537	0.0	0.0
