16

C	-0.008285	0.002739	0.007933
C	-0.494065	0.060092	-1.474403
F	1.383314	0.028275	-0.014577
H	-1.598127	0.141644	-1.340929
N	-0.463697	1.087304	0.815338
H	-1.488427	0.996727	0.738956
H	-0.193265	1.97371	0.404582
N	-0.476346	-1.256918	0.491713
H	-1.501907	-1.144224	0.414065
H	-0.251276	-1.269019	1.482625
C	-0.097031	-1.109785	-2.241445
N	0.182868	-2.048457	-2.889262
N	0.040679	1.284145	-2.14196
O	-0.472366	2.355637	-1.815845
O	0.966333	1.170348	-2.943969
F	-2.79811	0.007775	-0.062505
