16

C	-0.004376	-0.001579	-0.006541
C	-0.503448	-0.412354	-1.403213
F	1.379883	-0.00417	0.047806
H	-1.603167	-0.40236	-1.283602
N	-0.454356	1.346573	0.20411
H	-0.129381	1.635872	1.121761
H	-1.481254	1.22341	0.241636
N	-0.482869	-1.031682	0.875278
H	-1.507585	-0.874573	0.846683
H	-0.141157	-0.819448	1.807936
C	0.031254	-1.697045	-1.827144
N	0.433396	-2.72848	-2.217928
N	-0.12346	0.622117	-2.419661
O	-1.018869	1.344234	-2.846442
O	1.059019	0.678429	-2.75016
F	-2.797754	0.013979	0.08499
