14

C	0.0	0.0	0.0
C	-0.526838	0.201741	-1.419335
F	1.387749	0.0	0.0
H	-1.627442	0.194213	-1.349872
H	-0.202405	-0.626554	-2.055744
C	-0.481335	1.066814	0.958924
H	-0.071298	0.871333	1.951719
H	-1.573026	1.048752	0.988386
H	-0.125785	2.039754	0.611337
C	-0.385995	-1.350078	0.463955
N	-0.56146	-2.441138	0.859863
C	-0.04327	1.455113	-1.989428
N	0.352201	2.456783	-2.45671
Cl	-3.656904	0.0	0.0
