14

C	0.0	0.0	0.0
C	-0.194565	-0.040507	-1.539271
F	1.390405	0.0	0.0
H	0.247419	-0.990062	-1.865773
H	0.481588	0.746581	-1.894938
C	-0.43842	1.27018	0.694099
H	-1.520322	1.288582	0.80683
H	0.045277	1.326082	1.674132
H	-0.09667	2.108513	0.084456
C	-0.436843	-1.234376	0.673877
N	-0.587082	-2.253107	1.237773
C	-1.445371	0.132408	-2.281865
N	-2.16343	0.126484	-3.21142
Cl	-3.380927	0.0	0.0
