14

C	0.0	0.0	0.0
C	-0.507848	0.237449	-1.420933
F	1.387686	0.0	0.0
H	-0.172673	-0.576097	-2.071279
H	-1.607936	0.239178	-1.375646
C	-0.471049	1.058671	0.973439
H	-1.561775	1.091663	0.97037
H	-0.054254	2.020667	0.664174
H	-0.105843	0.818935	1.974003
C	-0.388362	-1.35703	0.43839
N	-0.558292	-2.455223	0.816515
C	0.005	1.50122	-1.944111
N	0.441902	2.514095	-2.344175
Cl	-3.638806	0.0	0.0
