14

C	0.0	0.0	0.0
C	-0.541986	-0.233647	-1.404144
F	1.387379	0.0	0.0
H	-0.308332	0.640472	-2.019649
H	-1.638314	-0.308596	-1.306929
C	-0.482604	1.321283	0.562523
H	-1.574545	1.319291	0.589084
H	-0.117659	2.12941	-0.07735
H	-0.081203	1.455454	1.568814
C	-0.376073	-1.124714	0.88449
N	-0.567833	-2.046046	1.58582
C	0.025568	-1.420536	-2.035465
N	0.495177	-2.355447	-2.567737
Cl	-3.663389	0.0	0.0
