14

C	0.0	0.0	0.0
C	-0.247829	0.198502	-1.516731
F	1.390586	0.0	0.0
H	0.094962	1.215926	-1.736617
H	0.469043	-0.478944	-1.995062
C	-0.516283	1.101029	0.887604
H	-1.60995	1.087242	0.849802
H	-0.128013	2.056025	0.522951
H	-0.169685	0.939456	1.911376
C	-0.40153	-1.341743	0.456719
N	-0.560207	-2.434829	0.855715
C	-1.517285	-0.013765	-2.211736
N	-2.295263	-0.136044	-3.08541
Cl	-3.595112	0.0	0.0
