15

C	-0.316796	0.057747	-1.47684
C	0.0	0.0	0.0
Br	-2.262851	0.1811	-1.827719
H	1.103272	0.0	0.0
H	-0.04138	-0.887926	-1.941537
N	0.332837	1.234645	-2.001149
H	0.310596	1.216256	-3.013117
H	1.308194	1.199991	-1.699624
N	-0.416292	-1.313963	0.598573
O	-0.377791	-2.309287	-0.124615
O	-0.69035	-1.32458	1.793892
N	-0.571942	1.087436	0.741313
H	0.059044	1.333092	1.49404
H	-0.63073	1.879277	0.110665
Cl	3.285769	0.0	0.0
