15

C	-0.463819	-0.103376	-1.451075
C	0.0	0.0	0.0
Br	-0.247227	1.705692	-2.338116
H	1.091065	0.0	0.0
H	-1.538678	-0.263513	-1.529761
N	0.263166	-1.139273	-2.062878
H	0.065097	-1.229306	-3.048542
H	1.262215	-1.025365	-1.905781
N	-0.450575	-1.336457	0.602697
O	0.374439	-2.210635	0.824501
O	-1.662181	-1.432183	0.833433
N	-0.527344	1.092926	0.7348
H	-1.482204	0.913985	1.016094
H	0.055031	1.274469	1.540575
Cl	3.350432	0.0	0.0
