15

C	-0.600863	-0.035359	-1.3988
C	0.0	0.0	0.0
Br	0.056777	1.522734	-2.383376
H	1.094119	0.0	0.0
H	-1.684019	0.133094	-1.323653
N	-0.224891	-1.222314	-2.12903
H	-0.733202	-2.002419	-1.728952
H	-0.484505	-1.124683	-3.101632
N	-0.456092	-1.259372	0.725618
O	0.185179	-1.600936	1.706201
O	-1.495545	-1.813687	0.335749
N	-0.472297	1.094446	0.807854
H	-1.164171	1.651554	0.326783
H	0.314985	1.675251	1.059363
Cl	3.374035	0.0	0.0
