15

C	-0.602611	0.003766	-1.395808
C	0.0	0.0	0.0
Br	0.139082	1.508327	-2.383561
H	1.089238	0.0	0.0
H	-1.674562	0.217495	-1.326238
N	-0.299862	-1.240201	-2.07764
H	-1.093487	-1.860644	-2.000579
H	-0.084877	-1.080145	-3.049772
N	-0.449313	-1.312206	0.639525
O	0.283777	-1.837336	1.46601
O	-1.59664	-1.699246	0.369333
N	-0.469454	1.091095	0.796467
H	0.145281	1.234628	1.58504
H	-1.423189	0.955788	1.105921
Cl	3.414415	0.0	0.0
