15

C	-0.48788	0.190226	-1.431878
C	0.0	0.0	0.0
Br	-0.018145	-1.43937	-2.511859
H	1.094613	0.0	0.0
H	0.149882	0.955505	-1.874451
N	-1.85436	0.564136	-1.532915
H	-2.105984	0.765562	-2.490978
H	-2.439105	-0.175781	-1.164845
N	-0.537304	-1.288397	0.571203
O	-1.745224	-1.503106	0.409058
O	0.216902	-2.007087	1.209978
N	-0.448154	1.057891	0.864773
H	0.330863	1.65938	1.090644
H	-1.207949	1.573746	0.445106
Cl	3.352783	0.0	0.0
