15

C	-0.451146	-0.10078	-1.456436
C	0.0	0.0	0.0
Br	-0.354689	1.70112	-2.29015
H	1.100175	0.0	0.0
H	-1.506542	-0.369414	-1.523747
N	0.343951	-1.004016	-2.233775
H	1.323498	-0.889013	-1.981342
H	0.051412	-1.9472	-2.011184
N	-0.382455	-1.300233	0.688895
O	-1.018754	-2.165445	0.081175
O	-0.028449	-1.393143	1.858637
N	-0.615246	1.034135	0.803417
H	-0.726491	1.858765	0.229559
H	0.033025	1.265561	1.543482
Cl	3.322786	0.0	0.0
