15

C	-0.463812	-0.08201	-1.438816
C	0.0	0.0	0.0
Br	-2.609715	-0.125858	-1.356595
H	1.093568	0.0	0.0
H	-0.293219	-1.050422	-1.894206
N	0.002207	0.970648	-2.187033
H	-0.292381	0.989316	-3.149336
H	-0.064073	1.865559	-1.72628
N	-0.414714	-1.298166	0.692494
O	-0.189827	-2.332263	0.065601
O	-0.902112	-1.244781	1.813639
N	-0.419024	1.136626	0.70561
H	-1.331578	1.508093	0.510168
H	0.306071	1.784783	0.951327
Cl	3.283042	0.0	0.0
