15

C	-0.37195	-0.028041	-1.487571
C	0.0	0.0	0.0
Br	-0.293606	1.924536	-2.189551
H	1.092545	0.0	0.0
H	-1.419588	-0.254634	-1.673732
N	0.493249	-0.907885	-2.125326
H	1.467608	-0.754757	-1.86948
H	0.364629	-0.989429	-3.121876
N	-0.48917	-1.334809	0.518898
O	0.323656	-2.159834	0.910431
O	-1.715306	-1.480327	0.528826
N	-0.536828	1.003945	0.857276
H	-1.431194	1.339206	0.529095
H	0.115964	1.771362	0.904576
Cl	3.361121	0.0	0.0
