15

C	-0.628333	-0.09212	-1.382926
C	0.0	0.0	0.0
Br	0.356244	-1.305845	-2.623048
H	1.092579	0.0	0.0
H	-0.468692	0.885011	-1.831754
N	-2.029247	-0.363849	-1.298633
H	-2.472249	-0.201066	-2.193182
H	-2.165465	-1.335732	-1.046733
N	-0.390659	-1.217588	0.843644
O	-0.617021	-2.287654	0.277349
O	-0.430579	-1.055668	2.061232
N	-0.440868	1.214387	0.606894
H	0.118448	1.404187	1.426983
H	-1.41931	1.156894	0.857441
Cl	3.315399	0.0	0.0
