15

C	-0.592066	-0.035123	-1.405107
C	0.0	0.0	0.0
Br	-0.103399	-1.581443	-2.487705
H	1.098188	0.0	0.0
H	-0.117673	0.80243	-1.925735
N	-2.037932	0.029251	-1.326744
H	-2.422295	0.086627	-2.262141
H	-2.259136	0.89384	-0.841711
N	-0.473055	-1.197691	0.798601
O	0.030175	-2.281047	0.531546
O	-1.344223	-1.019367	1.655209
N	-0.443593	1.234629	0.612732
H	0.341918	1.624884	1.119384
H	-1.178582	1.019881	1.277456
Cl	3.318586	0.0	0.0
