15

C	-0.514709	-0.174114	-1.409385
C	0.0	0.0	0.0
Br	-2.63228	-0.456071	-1.234069
H	1.097034	0.0	0.0
H	-0.248524	-1.126289	-1.852393
N	-0.199877	0.919188	-2.175608
H	-0.565794	0.911769	-3.112981
H	-0.349088	1.786078	-1.677592
N	-0.373847	-1.232655	0.804641
O	-0.083823	-2.316755	0.310489
O	-0.90955	-1.070392	1.897975
N	-0.447086	1.222599	0.573969
H	0.22556	1.535257	1.261533
H	-1.352258	1.107817	1.011524
Cl	3.268508	0.0	0.0
