15

C	-0.303657	0.016704	-1.498791
C	0.0	0.0	0.0
Br	-2.259626	0.196195	-1.787019
H	1.09774	0.0	0.0
H	-0.04608	-0.945013	-1.935241
N	0.379668	1.06588	-2.198192
H	0.257227	1.932231	-1.681272
H	1.374007	0.839699	-2.152725
N	-0.484848	-1.318225	0.574089
O	-1.189938	-1.3171	1.576727
O	-0.129248	-2.326837	-0.036816
N	-0.449045	1.098108	0.764101
H	-1.30801	1.521213	0.448734
H	0.285924	1.756921	0.963507
Cl	3.283086	0.0	0.0
