15

C	-0.35915	-0.092314	-1.474198
C	0.0	0.0	0.0
Br	-2.341904	-0.092808	-1.666478
H	1.104395	0.0	0.0
H	-0.045515	-1.053299	-1.873243
N	0.204046	0.980101	-2.235698
H	0.09888	1.827578	-1.685253
H	1.204489	0.795743	-2.298077
N	-0.438816	-1.264639	0.713918
O	-1.034027	-1.151938	1.785888
O	-0.156669	-2.33141	0.175904
N	-0.464297	1.196576	0.604162
H	0.102656	1.416879	1.411904
H	-1.432675	1.115462	0.884181
Cl	3.273632	0.0	0.0
