14
Coordinates from ORCA-job run
  C   0.92986403224685      0.02079390966535      0.17664281994734
  C   -0.43056959983915     -0.07071496674064      0.18063195787065
  N   1.76618487915051      0.01876156223148     -0.97038323470177
  H   1.29533334420108     -0.32213232711047     -1.79421428132243
  H   2.19323331963605      0.91728480193245     -1.15466892089993
  C   1.61082289186327      0.02081290011116      1.43542455129049
  N   2.11884049084680      0.05957936542241      2.49756098596033
  N   -1.15490912510604     -0.39345033883968      1.32365650834225
  H   -0.63465932483263     -0.33242732099415      2.18882661591131
  H   -2.05125579592535      0.06570936773472      1.38657625732826
  C   -1.24372024190625     -0.00921506825948     -1.07712655975619
  H   -2.19556160325495      0.49508020836053     -0.88731090002415
  H   -0.72770882799272      0.54230141555718     -1.86289313355309
  H   -1.47789443908744     -1.01338350907086     -1.44372266639307
