14
Coordinates from ORCA-job run
  C   0.93567831294390      0.11427877265642      0.01824247024793
  C   -0.40722273889574     -0.10572341313049     -0.03120042375965
  N   1.90182712807355     -0.92182065365305      0.08592874903673
  H   2.29901199081630     -1.08022429684051      1.00151654306373
  H   1.58370534257934     -1.78056918474406     -0.33826259649065
  C   1.45043955270830      1.44477394834517     -0.07528543821494
  N   1.87807017460320      2.54105384220188     -0.11375463788226
  N   -0.91173150865448     -1.40092732257470      0.06059624766614
  H   -1.89485052324613     -1.44124400142337      0.28210160246719
  H   -0.36911860752905     -2.01192979134657      0.65461199498270
  C   -1.41527946416473      0.95951735538517     -0.32807539537184
  H   -1.95576958803058      0.71977647064125     -1.24906100165703
  H   -2.14932939057398      1.02601624768136      0.48150922630097
  H   -0.94643068062987      1.93502202680151     -0.44886734038902
