14
Coordinates from ORCA-job run
  C   0.84628793818050      0.08293441542153     -0.06712704036015
  C   -0.48694649602493     -0.13798352618712      0.10879647573227
  N   1.77567327386539     -0.85371542815297      0.50066391048250
  H   2.27232749102781     -0.44147498347686      1.28272752594440
  H   2.46515147962755     -1.13121424686861     -0.18773477786000
  C   1.32524580870829      1.22060372883639     -0.78205925175325
  N   1.77171592228360      2.13709341581886     -1.37363813678423
  N   -0.91141165586900     -1.18470980723192      0.88974566522721
  H   -0.18298662347606     -1.86493512259142      1.06344887652020
  H   -1.81585001837368     -1.56672092674405      0.66398355484527
  C   -1.55239895075892      0.76643130929621     -0.42525488713180
  H   -2.23914408750392      0.20477046173161     -1.06664445503313
  H   -1.13131064189725      1.58473788921742     -1.00773106949378
  H   -2.13535343978938      1.18418282093092      0.39982360966449
