14
Coordinates from ORCA-job run
  C   0.85024794262793      0.06206802362308     -0.01322761951252
  C   -0.49559604344168     -0.14813965111021      0.03205530415848
  N   1.72336355210364     -1.07675946299258      0.05488507623310
  H   2.21611988559592     -1.10040512414860      0.94083395257344
  H   2.41881228081105     -1.03396999015989     -0.68032826164315
  C   1.39696602916150      1.37574164793666     -0.11472346616023
  N   1.89922644025200      2.43763911112758     -0.21171750324714
  N   -0.98472636664914     -1.41554430979922      0.23102152875548
  H   -0.29033642043168     -2.13419724451832      0.07333231399888
  H   -1.89858550337046     -1.60268201385023     -0.14904289747943
  C   -1.50696897438042      0.95253082503676     -0.02861608076046
  H   -2.12571137073622      0.94115209528288      0.87270064117174
  H   -2.16922455779053      0.81130046877846     -0.88885725561230
  H   -1.03358689375190      1.92926562479361     -0.11731573247588
