14
Coordinates from ORCA-job run
  C   0.84908006958642      0.06284964581038     -0.01342440322608
  C   -0.49627447791315     -0.14733236650916      0.02920518563185
  N   1.72210478824633     -1.07363840233835      0.09476492946580
  H   2.43053820632882     -1.04533951294106     -0.62870817491852
  H   2.19946185145045     -1.07723347477486      0.98970124902165
  C   1.39951413308852      1.37228430138739     -0.14227690240113
  N   1.90787525283383      2.42952804769910     -0.25953985475989
  N   -0.98629238105496     -1.40933957563034      0.26334337506941
  H   -0.28831062315930     -2.12857991765184      0.12619956806570
  H   -1.89374179881989     -1.60752503051507     -0.12789985376748
  C   -1.50787376179859      0.95085553522283     -0.06366443073858
  H   -2.17455817374994      0.77920371241184     -0.91526660209719
  H   -2.12393186335629      0.96967744571738      0.83961334971663
  H   -1.03659122168224      1.92458959211177     -0.19104743506219
