14
Coordinates from ORCA-job run
  C   0.93391639940461      0.12187680560645      0.07825079844560
  C   -0.40756613367865     -0.09616667257062     -0.01182595583875
  N   1.85291265798093     -0.84237711642270      0.56546928555915
  H   2.32271247212520     -1.39301353389418     -0.14030569570644
  H   1.46012870088158     -1.41998286160836      1.29634345940243
  C   1.47391747424812      1.40292289243773     -0.25989375528177
  N   1.91571519155896      2.44856354126221     -0.57069070934481
  N   -0.94304658029149     -1.33297061966644      0.33832698186092
  H   -1.86460626885509     -1.49954911091235     -0.03392416000066
  H   -0.31964126230980     -2.11193662245572      0.18062073624201
  C   -1.40834114705064      0.97595314789259     -0.30582030687803
  H   -0.91901342206369      1.90944060345583     -0.58733116750058
  H   -2.02770355368544      1.15625502371337      0.57555085782790
  H   -2.06938452826462      0.67998452316219     -1.12577036878698
