14
Coordinates from ORCA-job run
  C   0.94071707147195      0.14766286074805      0.09982094593596
  C   -0.38976533430605     -0.13300797459787      0.21682395361135
  N   1.60525541443230      0.62909641163435     -1.06238848737855
  H   1.14917533335787      0.34615775020095     -1.91574777853363
  H   1.74619964283832      1.63104707941434     -1.05669983863878
  C   1.77956301187040     -0.11810577590411      1.22790680762402
  N   2.40725474324831     -0.34584539002167      2.19834790676779
  N   -0.95478369867753     -0.62300130739863      1.38532950152253
  H   -1.73988215479972     -1.24065979527308      1.24559645441683
  H   -0.29876805445507     -0.97990185772844      2.06647985748680
  C   -1.36649472953302      0.12188309462686     -0.89135049070432
  H   -1.58171773375712     -0.79444024471458     -1.45188841591222
  H   -2.30675658455776      0.48942386494201     -0.47406856435017
  H   -0.98999692713287      0.86769128407180     -1.59016185184760
