14
Coordinates from ORCA-job run
  C   0.84903767096989      0.02306359933039     -0.07508370171775
  C   -0.49781758907394     -0.12364821773613      0.07210835811765
  N   1.67609813078751     -1.14981155192849     -0.00954823196748
  H   2.31689003640160     -1.17608365847198     -0.79374758813620
  H   2.23134022488264     -1.15312698707201      0.83908118363478
  C   1.44205450658831      1.30416427793994     -0.28005104317034
  N   1.98027318252533      2.33655508935660     -0.46376435760124
  N   -1.02521229524803     -1.35633619416164      0.36927586364585
  H   -0.37479936026384     -2.11243395813028      0.19992057205506
  H   -1.96918652628508     -1.51956022548418      0.05725257073268
  C   -1.46349582329745      1.01809326803903      0.02896031044632
  H   -2.21145283467475      0.85101549367383     -0.75297139563137
  H   -1.99234222498336      1.09595813537156      0.98258992023984
  H   -0.96138709832882      1.96315092927333     -0.17402246064781
