14
Coordinates from ORCA-job run
  C   0.84922639262301      0.02211712625219     -0.08181867799602
  C   -0.49634688197232     -0.12223794758822      0.07827258513318
  N   1.67751420860502     -1.14841463847224      0.00246436533659
  H   2.32543466356272     -1.18189712249130     -0.77518858967424
  H   2.22318129547497     -1.14305670772252      0.85712619903663
  C   1.43920061784791      1.29962005670419     -0.31595946958758
  N   1.97392600322806      2.32892629401231     -0.52510387601755
  N   -1.02033523800506     -1.35002692047368      0.40102964929776
  H   -0.37205950530201     -2.10887620588933      0.23576244700258
  H   -1.96800707949638     -1.51791547495863      0.10307070578356
  C   -1.46403517341584      1.01703321069330      0.01663799904468
  H   -2.19495026489389      0.84804695399597     -0.78101977148112
  H   -0.96029119916362      1.96351031014297     -0.17567746117735
  H   -2.01245783909258      1.09317106579498      0.95940389529887
