14
Coordinates from ORCA-job run
  C   0.85053712641963      0.04458664273180      0.04415736266094
  C   -0.50015214146817     -0.13284810591642      0.01169618092721
  N   1.68280988279583     -1.08991144483646      0.33398869430166
  H   2.09947274659671     -1.00479724827296      1.25451649178196
  H   2.43766795165211     -1.15707879680484     -0.33820749566894
  C   1.44139233639210      1.32192356888692     -0.18841177747177
  N   1.98121457316601      2.35107105767183     -0.38542116565881
  N   -1.03969969040481     -1.35210419218234      0.34193428985264
  H   -1.92550130149257     -1.57221039811320     -0.08483058644217
  H   -0.35703244688428     -2.09860305734312      0.33125049977656
  C   -1.47270717719913      0.96724246729485     -0.27421998318052
  H   -0.96659774286155      1.91219959910893     -0.46704560591465
  H   -2.15188662818070      1.09588798233781      0.57287949693377
  H   -2.07851748853117      0.71664192543720     -1.15128640189789
