14
Coordinates from ORCA-job run
  C   0.92730325343876      0.15523599826190      0.07675033786348
  C   -0.39935066097297     -0.11981286165276     -0.05913452550122
  N   1.93919240754625     -0.83913899773992      0.10482486222967
  H   1.68608003282590     -1.66600149732314     -0.41585154285721
  H   2.28865579952044     -1.06852139527735      1.02479172375303
  C   1.38060110866041      1.51022994841825      0.12443763085925
  N   1.75633591470318      2.62345123943091      0.20106882356257
  N   -0.84318087131245     -1.43881657950241     -0.10694386819951
  H   -1.83223940471339     -1.54435541140249      0.05952383359660
  H   -0.29757830497091     -2.07737497344970      0.45442772167895
  C   -1.44340549037745      0.92130469736789     -0.31466283791338
  H   -2.22426151955742      0.87393453166807      0.45147731080751
  H   -1.91791175686072      0.74611153658684     -1.28518380997551
  H   -1.02024050792963      1.92475376461393     -0.31352565990423
