14
Coordinates from ORCA-job run
  C   0.96303971908581      0.00926108549858      0.08493826459023
  C   -0.36816729994689     -0.27069938967910     -0.03510692750097
  N   1.56527078335224      1.30176760622969      0.07201953653392
  H   1.74140791246669      1.65110863023028     -0.86049226139559
  H   1.04166718115761      1.98038993875235      0.60335312036214
  C   1.85457212467340     -1.09365372717384      0.28027363590998
  N   2.52376885751178     -2.05110038151656      0.43261827499503
  N   -0.86478920318278     -1.56154310297261     -0.03348014684300
  H   -1.79853002567531     -1.66179508625057      0.33268912124046
  H   -0.23132094130366     -2.27679551331597      0.29531744802519
  C   -1.40120296640113      0.79266696114616     -0.25118204219767
  H   -2.08121745610874      0.48743061586847     -1.05019651779843
  H   -0.94607088134959      1.74166088371485     -0.52729153536456
  H   -1.99742780427943      0.94830147946828      0.65454002944326
