14
Coordinates from ORCA-job run
  C   0.86593043446513      0.06738399499956      0.01716665839818
  C   -0.47436646016948     -0.11656761672972      0.19212231580430
  N   1.38418226749231      0.76701025271911     -1.11941212476286
  H   2.03402100368550      0.18330778606374     -1.63212201356867
  H   1.88243985163064      1.60044453950671     -0.83025641744733
  C   1.76250854999169     -0.45393484660019      1.00319694897562
  N   2.49086891394319     -0.89913109389355      1.81654877236196
  N   -1.00124935832690     -0.67973163549486      1.33422343118896
  H   -1.88890375036989     -1.14161581681742      1.21943485014002
  H   -0.35726819098438     -1.18177383789490      1.92867400924325
  C   -1.47987585220693      0.37470917888335     -0.80043692606688
  H   -0.97647095623585      0.84730018276548     -1.63955334230255
  H   -2.08803765022832     -0.45898744917454     -1.16729520410108
  H   -2.15377880268672      1.09158636166724     -0.32329095786291
