14
Coordinates from ORCA-job run
  C   0.86541418768073      0.05175634921057      0.05632153954305
  C   -0.48831754348242     -0.06046693754464      0.18224230267874
  N   1.47226174678893      0.46156218139282     -1.17397245155042
  H   2.13113224925865     -0.23678084471228     -1.49660715215015
  H   1.98049632589977      1.32938118490672     -1.05086936202984
  C   1.68417646082427     -0.24521668408548      1.19191013800618
  N   2.34627037844191     -0.50390250983932      2.13261053022109
  N   -1.09911236199696     -0.33566893700143      1.38665147923435
  H   -1.99342645443391     -0.79468845029240      1.32368384825963
  H   -0.50753040994548     -0.70019674374534      2.11971835927303
  C   -1.41744018329985      0.20985670509425     -0.95848875876930
  H   -2.09138517553694      1.03202807431517     -0.70241109890014
  H   -0.85021614232158      0.46493953933988     -1.84959545702277
  H   -2.03332307787714     -0.67260292703850     -1.16219391679345
