14
Coordinates from ORCA-job run
  C   0.86003359527459      0.10352418729257      0.06561679039003
  C   -0.47153619544077     -0.18336597320428      0.13916197663865
  N   1.41612557889260      0.79942282182500     -1.05498199292939
  H   2.09111367217749      0.21852805571889     -1.53809376663666
  H   1.89457861243504      1.63931919435490     -0.75230017110278
  C   1.71060249698644     -0.31884626603696      1.13618664341997
  N   2.39871788300402     -0.66434233158553      2.02915440898220
  N   -1.00787481449970     -0.95636505417952      1.14619572981472
  H   -1.97638727412911     -0.77967033769567      1.35898901636803
  H   -0.43205698153977     -1.09565991014717      1.96421465693819
  C   -1.43384373359481      0.23408702041054     -0.92743557711012
  H   -1.90915246447183     -0.64813926892996     -1.36498599928064
  H   -0.91422300637338      0.79282405300037     -1.70122968572391
  H   -2.22509736872082      0.85968380917683     -0.50049202976830
