14
Coordinates from ORCA-job run
  C   0.86681233092252      0.00791919169310      0.05563799325320
  C   -0.48991225064529     -0.06739930114976      0.17568637938442
  N   1.48611375556608      0.57604870729746     -1.10350256218845
  H   2.03127170665379      1.39271759932998     -0.85382164665982
  H   2.11366027093304     -0.09120954666775     -1.53581929796412
  C   1.67658915916701     -0.49158320980307      1.12462386619484
  N   2.33114822786422     -0.91713149756969      2.00819080966860
  N   -1.10805307643589     -0.49816390101411      1.32992791609254
  H   -0.52921059026302     -0.99364394521345      1.99303911748848
  H   -2.01946391929322     -0.90844377309526      1.20504387420843
  C   -1.41051743592367      0.41064545675632     -0.90200176053148
  H   -2.05160409965884      1.20853822814993     -0.51711087010388
  H   -2.06043114350489     -0.40638171494360     -1.23354840596749
  H   -0.83640293538183      0.77808770622991     -1.74834541287526
