14
Coordinates from ORCA-job run
  C   0.93934170719765      0.13286800370984      0.13880976342502
  C   -0.40822987192167     -0.07166786729521      0.20983072180220
  N   1.70173687125889      0.34833590256693     -1.04339562159200
  H   1.87671987134845      1.32679361888918     -1.23307281166111
  H   1.29475950200858     -0.09399792732050     -1.85297592359795
  C   1.68798594498376      0.06752976160296      1.35610853825744
  N   2.23886022125412      0.01366969135404      2.39595787654482
  N   -1.07214777063032     -0.29602564146004      1.40629319580904
  H   -0.48309995928155     -0.53045610279528      2.19332229166817
  H   -1.88068427381297     -0.89470494398727      1.33459030919065
  C   -1.29603788678951     -0.01252558714124     -0.99654150343184
  H   -1.52241053553655     -1.01570388478496     -1.37394935705884
  H   -0.83622812136987      0.55790951074476     -1.80242568065929
  H   -2.24056569870900      0.46897546591679     -0.73355179869632
