14
Coordinates from ORCA-job run
  C   0.91861505941555      0.10715301736946      0.06574429156228
  C   -0.41918183404487     -0.12262752380194     -0.03073459471034
  N   1.81634022841913     -0.95551995148650      0.32874700710942
  H   1.44355711395746     -1.80041303649461     -0.09154766610402
  H   2.73288976292022     -0.73659322662731     -0.04401647107332
  C   1.45518991175530      1.42695588491436      0.05024740679784
  N   1.93997160160824      2.49947191483270      0.01514617700178
  N   -0.83400419830067     -1.46411171427526      0.10332272900092
  H   -1.81189313877858     -1.61254920854658     -0.11036797576002
  H   -0.59766578227203     -1.87113398434608      1.00050039496181
  C   -1.45436471558391      0.93654977569443     -0.27245769818737
  H   -2.05244475877081      0.68454210054006     -1.15384961336091
  H   -2.13421439814805      0.99175298681504      0.58353597842638
  H   -1.00279485217698      1.91552296541223     -0.44326996566446
