14
Coordinates from ORCA-job run
  C   0.85017969703856      0.14347856856132      0.10560951472442
  C   -0.47975703826403     -0.15775497292896      0.14278110260338
  N   1.49477082609576      0.54205992402757     -1.10914985017189
  H   2.21704429249431     -0.12083418855056     -1.36492880585685
  H   1.93575736102383      1.44717670239263     -0.99822423900392
  C   1.60658262261628      0.04791889467267      1.31669600417358
  N   2.21456059866908     -0.02448018832387      2.32431180194517
  N   -1.09384213892535     -0.65854688879082      1.27039161828306
  H   -0.59009572977029     -0.56016745362157      2.14029433634998
  H   -2.07877262566720     -0.46340249581186      1.34987828132773
  C   -1.34971403432417     -0.06443677819008     -1.07048714096392
  H   -0.77086216864725      0.29104625322199     -1.91870522821872
  H   -2.18197100272186      0.62350192789099     -0.88711902703327
  H   -1.77488065961767     -1.04555930454945     -1.29934836815875
