14
Coordinates from ORCA-job run
  C   0.85016915669956      0.15247908548994      0.09419831825468
  C   -0.48789448720128     -0.10375247394687      0.16250392705227
  N   1.47245314164148      0.56759920891053     -1.12659922361897
  H   2.21361899053965     -0.07309192169978     -1.38475018839543
  H   1.88385152475620      1.48793710091358     -1.02351695534605
  C   1.63578837637098      0.00349023252360      1.28114832513424
  N   2.27186529461748     -0.13440641184036      2.26428433018947
  N   -1.12757881277442     -0.38728206603647      1.34991210863261
  H   -1.96193520483747     -0.94580939824634      1.26956201610269
  H   -0.53950391907235     -0.64675532356158      2.12907449282781
  C   -1.37959566299273      0.00279986768768     -1.03395053769660
  H   -1.87225934631769     -0.95646520605001     -1.22510948641219
  H   -0.79974450406868      0.28820651783591     -1.90754282565610
  H   -2.16023454736071      0.74605078802016     -0.85021430106843
