14
Coordinates from ORCA-job run
  C   0.86034299720871      0.07678987460372      0.09727599698010
  C   -0.48793383922786     -0.12633942947228      0.14487688237205
  N   1.51647685361337      0.47012775100518     -1.11270886928764
  H   2.18315702506851     -0.23484450649128     -1.40450085188613
  H   2.02450232999996      1.33604861421767     -0.97841776274082
  C   1.62320595501101     -0.11936908946213      1.29221608688113
  N   2.23660638138199     -0.27401784758679      2.28722462918156
  N   -1.12276181187556     -0.62082245596869      1.26366718980428
  H   -2.08981512407997     -0.35852367136143      1.36492655458330
  H   -0.60211266411914     -0.59107087778066      2.12863778569553
  C   -1.36445297630797      0.07470384421305     -1.05063393200718
  H   -2.14014751113546      0.81592984195975     -0.83053998061674
  H   -1.86525047142630     -0.86330373676331     -1.30578802959600
  H   -0.77181714411127      0.41569168888720     -1.89523569936346
