14
Coordinates from ORCA-job run
  C   0.92506336405289      0.17892099994035      0.17083507005532
  C   -0.41262614684366     -0.08981183227385      0.19532763027679
  N   1.71930015643024      0.42318295228334     -0.98451570609205
  H   1.35905899863990     -0.03468721852096     -1.80739946819899
  H   1.86357639222788      1.40794331293753     -1.16795677198965
  C   1.63222361723199      0.15901955861493      1.41442896623305
  N   2.14882118259279      0.13972964540808      2.47294312667347
  N   -1.10876876929043     -0.33621049699677      1.36973217516308
  H   -1.87853257519277     -0.98110485167792      1.27411038588982
  H   -0.53564634666158     -0.53697834642615      2.17787888617112
  C   -1.25821055974498     -0.08387959111789     -1.04244002413844
  H   -2.23187359158821      0.35808243169368     -0.81871360858622
  H   -0.79595022178501      0.49744739816589     -1.83917379523538
  H   -1.42643550006904     -1.10065396203027     -1.41405686622191
