14
Coordinates from ORCA-job run
  C   0.91713786224302      0.16018185527175      0.15139448280131
  C   -0.40346622830318     -0.11605131872769     -0.03367208890218
  N   1.86675678782969     -0.79501449849881      0.59921142095977
  H   1.46024155327409     -1.49645525336199      1.20037462425992
  H   2.43547903353138     -1.20753390698514     -0.12698041338294
  C   1.40573706285584      1.49139328765029     -0.03080275172666
  N   1.81907025790322      2.57865015444593     -0.21327626096702
  N   -0.88471138568884     -1.40854029992425      0.15188322505184
  H   -1.78779805521040     -1.57521266956627     -0.26477552094278
  H   -0.22158630223857     -2.13360771577599     -0.08239980607202
  C   -1.44435245952046      0.92830015452422     -0.28885501348397
  H   -1.00409634568088      1.91969220958311     -0.38626903227500
  H   -2.16563350268937      0.94825091209516      0.53389069575623
  H   -1.99377827830553      0.70294708926968     -1.20872356107649
