14
Coordinates from ORCA-job run
  C   0.92779347295621      0.10927407679065     -0.13317651556961
  C   -0.39974701375579     -0.06762985817836      0.11341245250883
  N   1.95742586374036     -0.33835322650272      0.73159734343986
  H   1.63322550692058     -0.44868873163657      1.68072995127410
  H   2.44976562564495     -1.16201600692112      0.41383266811905
  C   1.34893718228486      0.84925961792036     -1.28301367097813
  N   1.70442708912151      1.43306715026335     -2.24146292227601
  N   -0.81860545198894     -0.79683440474691      1.22855893412268
  H   -1.78905103469433     -1.06966040645682      1.18898624448309
  H   -0.22457034700255     -1.58541824801741      1.44356096847984
  C   -1.48334210714926      0.63320206154235     -0.64552765123376
  H   -1.09423599605139      1.13147142613875     -1.53176761740579
  H   -1.95664433573528      1.38853655069340     -0.00957123672138
  H   -2.25637845429091     -0.07621000088897     -0.95515894824277
