14
Coordinates from ORCA-job run
  C   0.84789441881453     -0.00533331667112     -0.06208829611851
  C   -0.50010971614992     -0.08924678003577      0.11634346464850
  N   1.70198313267970     -0.86812938405065      0.70652852243450
  H   2.22508913227846     -0.33188416005822      1.38905724489979
  H   2.36730088010009     -1.34147674340285      0.10681452485921
  C   1.41813827955805      0.92864475148227     -0.97836269938521
  N   1.93156675866842      1.67981254643833     -1.72795347564665
  N   -1.01736759805733     -0.91863145921748      1.08073244807760
  H   -0.34724379818397     -1.60047487835803      1.41058837556251
  H   -1.94228400089008     -1.27710974293040      0.90048844530033
  C   -1.47554569945352      0.78882371753191     -0.60461935877721
  H   -1.86167581013766      1.55027944386650      0.07767193882885
  H   -1.01785290108110      1.28169540368176     -1.46068292543239
  H   -2.32889307814565      0.20303060172374     -0.95551820925133
