14
Coordinates from ORCA-job run
  C   0.85107337430000      0.04622001360016      0.04616249990975
  C   -0.49957005408829     -0.13301274508505      0.01487190353775
  N   1.68388171427562     -1.08294228894589      0.35308063427572
  H   2.10314021223821     -0.98417238219106      1.27116515223491
  H   2.43585514553158     -1.16409795187667     -0.32049192379545
  C   1.43951816823580      1.31962512795710     -0.21250522848007
  N   1.97429566173285      2.34632825487178     -0.43474395447498
  N   -1.03782120092374     -1.34835258565342      0.36057500067141
  H   -1.92383637769216     -1.57517209217564     -0.06184380581937
  H   -0.35359416531422     -2.09354500110141      0.36245635667250
  C   -1.47333763892826      0.96179373250502     -0.28686606894284
  H   -2.14779391034420      1.10673056563745      0.56115770159451
  H   -0.96802825715896      1.90293668827933     -0.49899746274143
  H   -2.08378267186422      0.69566066417832     -1.15602080464242
