15

C	0.0	0.0	0.0
C	-0.204563	-0.153028	-1.552886
Br	1.940433	0.0	0.0
H	0.483706	0.57502	-1.987933
H	0.231745	-1.136815	-1.763969
N	-0.41629	1.346919	0.533241
O	-0.528909	1.451602	1.74594
O	-0.480007	2.262032	-0.277322
C	-0.509151	-1.079568	0.824345
N	-0.618795	-2.053406	1.478129
C	-1.524869	-0.029658	-2.298864
H	-1.979305	0.9421	-2.133978
H	-2.240072	-0.781324	-1.986955
H	-1.278723	-0.144675	-3.366339
F	-2.268049	0.0	0.0
