15

C	0.0	0.0	0.0
C	-0.388357	0.065313	-1.482243
Br	1.947189	0.0	0.0
H	-1.412991	0.429011	-1.456689
H	0.285458	0.766206	-1.978558
N	-0.403877	1.265185	0.740301
O	-0.533414	1.180601	1.952918
O	-0.456735	2.290992	0.077368
C	-0.471677	-1.169092	0.726364
N	-0.584944	-2.197892	1.285996
C	-0.343375	-1.30826	-2.133562
H	-0.585489	-1.216858	-3.197693
H	0.637256	-1.787506	-2.049995
H	-1.096213	-1.94538	-1.667523
F	-2.388007	0.0	0.0
