15

C	0.0	0.0	0.0
C	-0.385023	0.183279	-1.474501
Br	1.946756	0.0	0.0
H	-1.410336	0.543431	-1.426965
H	0.286577	0.926945	-1.909115
N	-0.406231	1.201753	0.835311
O	-0.463321	2.275494	0.252617
O	-0.527846	1.026042	2.038636
C	-0.483323	-1.220751	0.625418
N	-0.601717	-2.292207	1.098559
C	-0.333632	-1.132594	-2.234817
H	-1.096784	-1.802856	-1.835922
H	0.643731	-1.622562	-2.174273
H	-0.556667	-0.95445	-3.291734
F	-2.387494	0.0	0.0
