15

C	0.0	0.0	0.0
C	-0.383393	0.13771	-1.484372
Br	1.947044	0.0	0.0
H	-1.38034	0.568413	-1.459841
H	0.335794	0.80812	-1.960037
N	-0.404879	1.224689	0.797182
O	-0.514477	1.088349	2.006194
O	-0.468724	2.27931	0.181741
C	-0.476232	-1.203951	0.663759
N	-0.582971	-2.2677	1.157089
C	-0.434206	-1.218599	-2.171246
H	-0.622466	-1.08272	-3.241607
H	0.494794	-1.789741	-2.059352
H	-1.26319	-1.788051	-1.744962
F	-2.367358	0.0	0.0
