15

C	0.0	0.0	0.0
C	-0.205883	-0.163298	-1.550878
Br	1.940801	0.0	0.0
H	0.2425	-1.142888	-1.752853
H	0.475292	0.567217	-1.990424
N	-0.41254	1.351057	0.530879
O	-0.487452	2.25985	-0.284733
O	-0.50605	1.459504	1.744666
C	-0.513683	-1.075137	0.828019
N	-0.650659	-2.042354	1.487262
C	-1.528861	-0.062473	-2.294521
H	-2.245053	-0.795996	-1.947953
H	-1.279856	-0.214813	-3.356353
H	-1.976298	0.917134	-2.159538
F	-2.278948	0.0	0.0
