15

C	0.0	0.0	0.0
C	-0.205379	-0.214565	-1.545047
Br	1.941141	0.0	0.0
H	0.491398	0.48694	-2.008628
H	0.22134	-1.210555	-1.71534
N	-0.417105	1.36666	0.479188
O	-0.540353	1.516392	1.686286
O	-0.472272	2.250839	-0.365835
C	-0.50936	-1.046009	0.866911
N	-0.61744	-1.992625	1.559452
C	-1.522785	-0.103593	-2.296624
H	-1.282193	-0.268095	-3.358688
H	-1.961209	0.881611	-2.173625
H	-2.249465	-0.828056	-1.950329
F	-2.272204	0.0	0.0
