14

C	0.0	0.0	0.0
C	-0.322296	-0.380284	-1.479107
Br	1.960489	0.0	0.0
H	0.33146	0.238662	-2.107002
H	-0.299617	-0.809944	0.667947
H	0.022055	-1.414715	-1.602237
C	-0.620003	1.297887	0.447493
H	-0.323812	1.556856	1.466441
H	-0.341277	2.1178	-0.222049
H	-1.706022	1.108558	0.403563
N	-1.684946	-0.244299	-1.939727
H	-2.382765	-0.35219	-1.153647
H	-1.825776	0.71843	-2.227833
F	-3.320798	0.0	0.0
