19

C	-0.557329	0.057477	-1.433962
C	0.0	0.0	0.0
Cl	0.314239	-1.104371	-2.4619
H	1.093575	0.0	0.0
C	-2.037116	-0.235171	-1.536211
H	-2.191069	-1.258985	-1.203295
H	-2.608108	0.442355	-0.901604
H	-2.373325	-0.116904	-2.567148
N	-0.280713	1.454872	-1.984679
O	-1.231628	2.242212	-1.963299
O	0.85832	1.728935	-2.334727
N	-0.452556	-1.275411	0.589781
H	0.323638	-1.927414	0.524972
H	-0.618583	-1.128908	1.579375
C	-0.465452	1.171522	0.853668
H	-0.150573	2.130348	0.441104
H	-1.551267	1.180906	0.988488
H	0.010966	1.077981	1.832825
Br	3.621599	0.0	0.0
