19

C	-0.368111	0.071505	-1.502173
C	0.0	0.0	0.0
Cl	-2.119242	0.404801	-1.735713
H	1.095137	0.0	0.0
C	0.45576	1.090148	-2.258591
H	1.511589	0.931368	-2.026659
H	0.289722	0.998471	-3.33371
H	0.163812	2.091689	-1.945121
N	-0.113062	-1.30949	-2.101686
O	-0.974426	-2.175077	-1.967729
O	0.987934	-1.478708	-2.616423
N	-0.466526	-1.177019	0.707478
H	-1.406335	-1.425768	0.420966
H	0.143845	-1.959252	0.510719
C	-0.454271	1.249264	0.745581
H	0.029322	1.227724	1.722758
H	-1.537397	1.249803	0.892587
H	-0.162249	2.170844	0.239266
Br	3.584845	0.0	0.0
