19

C	-0.561807	0.147515	-1.420385
C	0.0	0.0	0.0
Cl	0.264039	-0.998799	-2.507946
H	1.097841	0.0	0.0
C	-2.05478	-0.075233	-1.533918
H	-2.381685	0.096992	-2.560258
H	-2.266349	-1.099815	-1.240353
H	-2.594228	0.60219	-0.875538
N	-0.221365	1.554825	-1.902057
O	-1.127239	2.387169	-1.812614
O	0.920787	1.784954	-2.268586
N	-0.488062	-1.292706	0.521702
H	0.086722	-2.013746	0.093643
H	-0.239975	-1.313418	1.505823
C	-0.461092	1.117437	0.923995
H	5.1e-05	0.954536	1.902098
H	-0.122493	2.09414	0.57743
H	-1.547226	1.131401	1.04737
Br	3.619755	0.0	0.0
