19

C	-0.36753	-0.026421	-1.509695
C	0.0	0.0	0.0
Cl	0.42857	1.313147	-2.351331
H	1.095465	0.0	0.0
C	0.029395	-1.321977	-2.185011
H	-0.190634	-1.279329	-3.253794
H	1.10547	-1.444434	-2.040535
H	-0.504524	-2.160268	-1.742795
N	-1.875063	0.168434	-1.617154
O	-2.344463	1.268466	-1.882151
O	-2.548425	-0.825857	-1.323845
N	-0.411713	-1.184722	0.735483
H	-1.358098	-1.460687	0.501404
H	0.220769	-1.950232	0.541859
C	-0.529418	1.24067	0.701419
H	-0.278004	2.156099	0.165586
H	-0.077033	1.275942	1.692566
H	-1.617499	1.190644	0.824087
Br	3.569561	0.0	0.0
