14

C	0.0	0.0	0.0
C	-0.366228	-0.089467	-1.501696
F	1.347744	0.0	0.0
H	0.550923	-0.497191	-1.934902
H	-0.400785	-0.840991	0.557988
N	-0.381911	1.234602	0.782735
O	-0.648837	2.272344	0.198521
O	-0.23694	1.095295	1.993092
N	-0.444368	1.256524	-2.200295
O	-1.496094	1.615075	-2.702527
O	0.626719	1.855564	-2.238081
C	-1.427995	-0.997134	-1.934683
N	-1.868105	-1.865565	-2.59853
Br	-3.184035	0.0	0.0
