13

C	-0.613248	-0.021817	-1.377841
C	0.0	0.0	0.0
Br	0.074876	1.380185	-2.518667
H	1.091693	0.0	0.0
H	-1.694122	0.089559	-1.343219
H	-0.326827	0.940269	0.45592
N	-0.399668	-1.337687	-2.079437
O	0.557982	-2.021635	-1.740957
O	-1.22113	-1.624322	-2.949348
N	-0.581103	-1.132647	0.739362
H	-0.653474	-0.878741	1.714861
H	0.087873	-1.892043	0.689929
Br	3.665957	0.0	0.0
