13

C	-0.608172	0.003781	-1.380163
C	0.0	0.0	0.0
Br	0.077381	1.433044	-2.490061
H	1.093952	0.0	0.0
H	-1.69069	0.106948	-1.346084
H	-0.32476	0.93276	0.472322
N	-0.384152	-1.297894	-2.108093
O	0.568893	-1.990297	-1.772525
O	-1.19467	-1.565937	-2.993898
N	-0.584635	-1.144372	0.716271
H	-0.674333	-0.904171	1.695738
H	0.0875	-1.901185	0.664804
Br	3.674887	0.0	0.0
