13

C	-0.605056	-0.038764	-1.387983
C	0.0	0.0	0.0
Br	0.140386	1.300205	-2.563134
H	1.095694	0.0	0.0
H	-1.677836	0.130567	-1.344602
H	-0.360744	-0.894427	0.519776
N	-0.443117	-1.406673	-1.990727
O	0.644533	-1.741651	-2.432662
O	-1.448315	-2.117762	-1.918771
N	-0.547345	1.185067	0.685767
H	-0.396443	1.051114	1.679421
H	0.0441	1.970761	0.432266
Br	3.659387	0.0	0.0
