13

C	-0.605946	-0.04821	-1.385953
C	0.0	0.0	0.0
Br	0.099384	1.31909	-2.55779
H	1.095643	0.0	0.0
H	-1.683226	0.096403	-1.345402
H	-0.354536	-0.896779	0.522217
N	-0.402674	-1.395944	-2.02335
O	0.743216	-1.79301	-2.183666
O	-1.43375	-2.018074	-2.301977
N	-0.551322	1.185458	0.678533
H	-0.400789	1.056736	1.672509
H	0.040062	1.969912	0.420804
Br	3.633192	0.0	0.0
