13

C	-0.432721	-0.042916	-1.443385
C	0.0	0.0	0.0
Br	-2.379325	-0.073231	-1.63742
H	1.095553	0.0	0.0
H	-0.05563	-0.922871	-1.956481
H	-0.355383	0.925447	0.461955
N	0.052756	1.14906	-2.212139
O	-0.079531	2.25085	-1.688946
O	0.535293	0.928533	-3.319249
N	-0.44333	-1.228618	0.654015
H	0.296984	-1.543581	1.267848
H	-1.274622	-1.062866	1.205668
Br	3.553096	0.0	0.0
