16

C	0.0	0.0	0.0
C	-0.571132	0.060117	-1.402313
Br	1.95043	0.0	0.0
H	-1.674246	0.16946	-1.155211
H	-0.237684	0.945447	0.492373
N	-0.545294	-1.161147	0.644127
H	-0.334178	-1.100132	1.635776
H	-1.574855	-0.990694	0.551823
C	-0.31058	-1.152665	-2.259352
H	0.746919	-1.236683	-2.519288
H	-0.892788	-1.10285	-3.179773
H	-0.608062	-2.031644	-1.688015
N	-0.165944	1.316207	-2.076028
O	-0.165296	2.351506	-1.405658
O	0.093132	1.283073	-3.283885
H	-2.972444	0.0	0.0
