16

C	0.0	0.0	0.0
C	-0.401343	0.000978	-1.488902
Br	2.028058	0.0	0.0
H	-0.002566	0.92766	-1.91823
H	-0.211321	0.95485	0.483203
N	-0.58609	-1.079379	0.695335
H	-0.185904	-1.199529	1.6188
H	-0.429195	-1.892827	0.064631
C	-1.895728	-0.102568	-1.882083
H	-2.413594	-0.967526	-1.469956
H	-1.741893	-0.342641	-2.965782
H	-2.523923	0.789299	-1.798023
N	0.265054	-1.096981	-2.223163
O	-0.012484	-2.297914	-1.659408
O	-0.045668	-0.912741	-3.534248
H	-2.129965	0.0	0.0
