16

C	0.0	0.0	0.0
C	-0.55762	0.047252	-1.412527
Br	1.949854	0.0	0.0
H	-1.6607	0.130782	-1.194435
H	-0.243657	0.948931	0.48295
N	-0.541846	-1.163136	0.641545
H	-0.279294	-1.147378	1.621956
H	-1.571701	-0.981454	0.59061
C	-0.232693	-1.148931	-2.271978
H	0.832183	-1.198618	-2.504737
H	-0.517974	-2.041406	-1.714777
H	-0.790476	-1.115011	-3.209047
N	-0.166002	1.326797	-2.057899
O	0.289398	1.305415	-3.205114
O	-0.362451	2.361386	-1.418805
H	-3.017852	0.0	0.0
