16

C	0.0	0.0	0.0
C	-0.295543	0.034137	-1.532011
Br	2.017117	0.0	0.0
H	0.550107	0.509252	-2.022002
H	-0.19905	1.005101	0.388067
N	-0.640948	-1.068221	0.664949
H	-0.564482	-0.925141	1.666622
H	-1.655963	-0.961342	0.434899
C	-1.57919	0.716378	-1.953906
H	-1.712986	0.59206	-3.034268
H	-1.482842	1.786049	-1.739133
H	-2.44837	0.345336	-1.386325
N	-0.251654	-1.369332	-2.067153
O	-1.277053	-2.04121	-2.013224
O	0.820423	-1.756233	-2.540675
H	-3.418302	0.0	0.0
