15
Coordinates from ORCA-job run
  C   0.76267034164849     -0.10818910045471     -0.26313877526233
  C   -0.60218782601852      0.17469988261989     -0.83784643974114
  F   1.70220134832614      0.02870997933681     -1.29079855385765
  H   -0.55460935795052      1.14646411033617     -1.32971193043615
  H   -0.75491452071514     -0.57311131249013     -1.62396227403432
  N   0.85370374426462     -1.32753116926045      0.41376588275221
  H   1.78049645245168     -1.47680661479471      0.78993401556026
  H   0.57016149539401     -2.09526381449045     -0.17884370131009
  N   1.21380712823243      0.98175190588080      0.71518053020361
  O   2.12671887503788      0.68133856678631      1.47757228965582
  O   0.68865200248811      2.08529461502023      0.61858752598717
  C   -1.72966181334422      0.12579223324792      0.18574207049203
  H   -1.76526509756811     -0.83943400026857      0.69076760187648
  H   -2.68868071349978      0.29267879385039     -0.30868281475928
  H   -1.60409205874706      0.90360592468050      0.93943457287337
