15
Coordinates from ORCA-job run
  C   0.70796709885116     -0.12435666186971     -0.36005073682823
  C   -0.72058046098200     -0.54245822359962     -0.05694887368654
  F   0.75089867556280      0.43539804833533     -1.59626406146843
  H   -0.71969962912959     -1.04864810917459      0.91146472064501
  H   -0.98500629752910     -1.28341934923043     -0.81913002007862
  N   1.73981013497796     -1.10282810502964     -0.27732722585427
  H   1.53375179592074     -1.87160193671596     -0.90290327274077
  H   1.81725212453589     -1.44510114422882      0.67135266370054
  N   1.08566438125967      0.96044714282762      0.64511619934906
  O   1.22876947582975      0.55976079437825      1.79806476256459
  O   1.17028807511230      2.11410093730696      0.25480672076097
  C   -1.71049285394414      0.61788954301622     -0.06682792598560
  H   -1.63787165174297      1.18485799301722     -0.99550981106228
  H   -1.52924790395717      1.30063249037072      0.76577899131044
  H   -2.73150296476531      0.24432658059646      0.02837786937411
