15
Coordinates from ORCA-job run
  C   0.69776160240079      0.04589316109767     -0.26303038473394
  C   -0.66373335744719      0.53564194725362      0.20455997796936
  F   0.76597005589492      0.16970690135311     -1.61368073660552
  H   -0.76879565700740      1.57359711179879     -0.12742017317714
  H   -0.66319375742253      0.53425649503403      1.29757048903029
  N   1.12932354660743     -1.26704982833452      0.07763647660495
  H   1.15049708121340     -1.38801139625439      1.08094413595099
  H   0.52427404164227     -1.95563571987666     -0.34918262876396
  N   1.73835525495417      0.99034200648052      0.33840443555996
  O   1.94514794115527      0.82837016372624      1.53825663448823
  O   2.24187924418094      1.83440301919567     -0.38621829710728
  C   -1.80153607145076     -0.31563791133496     -0.34676408054475
  H   -1.77022870931362     -0.35014952224226     -1.43670106322981
  H   -1.76157382208803     -1.33745272863104      0.03677776306539
  H   -2.76414739331964      0.10472630073419     -0.05115254850679
