16
Coordinates from ORCA-job run
  C   -0.74260569475492     -0.32272904945204      0.06818779648256
  C   0.73987215192629     -0.17400589293520     -0.29558953301333
  F   -1.08811689721837     -1.66347171054632     -0.14083431901386
  H   0.79514924011802     -0.32229024332921     -1.38547903992763
  C   -0.92528280065045     -0.03188577133682      1.50116417532151
  N   -1.08547312971137      0.25068395618435      2.62902062833078
  C   -1.65039621107536      0.53919915569996     -0.78115502506004
  H   -1.51469927228229      0.26996615432604     -1.83080115668506
  H   -1.39920574244837      1.58906243206567     -0.64226471746603
  H   -2.69065578894930      0.36452371989110     -0.50326972713882
  N   1.49525620406336     -1.15058177172274      0.47424649948823
  H   1.12619540109406     -2.08172521015521      0.32096417973669
  H   2.46391533625140     -1.14313400520701      0.17741119347387
  N   1.14205130097327      1.18580318789338     -0.01472588115570
  H   1.37030718130720      1.25537410777668      0.97197705193979
  H   1.96468872135684      1.43521094084737     -0.54785212531297
