16
Coordinates from ORCA-job run
  C   -0.73877087544500     -0.30071117933939      0.35819478429725
  C   0.79508718480530     -0.21253981363099      0.31222849175634
  F   -1.06767033545720     -1.66195336761518      0.42752414377904
  H   1.15428284398435     -0.60141748757395      1.27653990560630
  C   -1.21620367785397      0.32689654746714      1.60093281588775
  N   -1.61024887444686      0.80935377702814      2.59559645661125
  C   -1.42361945035074      0.29385830042686     -0.85336589851616
  H   -2.49513251026128      0.09835543073869     -0.79229303436132
  H   -1.01723391559383     -0.16397401918343     -1.75460146627706
  H   -1.26351477657875      1.37179666828244     -0.88239558178992
  N   1.16634049578405      1.18074606696878      0.22512518950351
  H   1.22567380324167      1.44643532920744     -0.75096126932650
  H   2.05879470697398      1.35589468745357      0.66515027073716
  N   1.25494321918500     -0.98495231839396     -0.83518670084362
  H   0.90955112870877     -1.93607084096790     -0.76938338774973
  H   2.26772103330450     -1.02271778086824     -0.82410471931430
