16
Coordinates from ORCA-job run
  C   -0.71917881350446     -0.23526207296719      0.09565148105163
  C   0.75722184624362      0.16598406381598      0.20168834011835
  F   -0.75064776520594     -1.40986352283629     -0.67638915597172
  H   0.80496728874979      1.07090458768413      0.81645924063625
  C   -1.24989321247062     -0.56930115535513      1.42804648448494
  N   -1.74072925431831     -0.78591710028508      2.47176847660965
  C   -1.59455619438467      0.79712515364978     -0.58057972336593
  H   -2.61393118937479      0.41645333189103     -0.65866780951170
  H   -1.19285124276378      1.01036031920115     -1.56896926757827
  H   -1.60461255474097      1.71868769720762      0.00494979501837
  N   1.22007881557203      0.52095263755952     -1.13362022875882
  H   2.16012736706231      0.89406057554513     -1.08310235189578
  H   1.24616429449415     -0.31224683461527     -1.71109923058009
  N   1.44564243648872     -0.88952493648940      0.92399459033270
  H   1.41513765135391     -1.74982416195699      0.38949648511089
  H   2.41506052679904     -0.64258858204899      1.07837287429952
