16
Coordinates from ORCA-job run
  C   -0.74078823548768     -0.27746513243847      0.13249654541753
  C   0.76170284465815      0.04375684194383      0.21307374824162
  F   -0.88598446419793     -1.50839187998992     -0.50065584926557
  H   0.86779171495127      0.87954528408148      0.92115504279464
  C   -1.26649597358352     -0.41470434216246      1.50286938087629
  N   -1.71621555120010     -0.47612865031246      2.58504573914819
  C   -1.53982586441197      0.74404717107318     -0.65031522599257
  H   -1.42711167020974      1.74072038486289     -0.21658890007422
  H   -1.18318193335262      0.74120215542857     -1.68019507865931
  H   -2.59662363843632      0.47557534944448     -0.63902086651305
  N   1.24911773630590      0.36539631316268     -1.12946719746744
  H   1.06793417072482      1.33583197792992     -1.36058654236025
  H   2.25206286431754      0.22987032560780     -1.15310224293720
  N   1.41060373413614     -1.10103017098710      0.79631578364098
  H   1.37418293746190     -1.87729363479343      0.14738181113894
  H   2.37383132832418     -0.90093199285094      1.03059385201143
