16
Coordinates from ORCA-job run
  C   -0.74148820359148     -0.25551487034822      0.03463888058074
  C   0.75707185508659      0.10060333962937      0.04987472955636
  F   -0.91864405517725     -1.32373678292410     -0.83652948378062
  H   0.84766962054565      1.04987658920726      0.60111848566754
  C   -1.15595838572434     -0.69746420252019      1.37953822664868
  N   -1.46201122569226     -0.99374226254070      2.47363766585396
  C   -1.60731292152967      0.89350916740184     -0.43892776808841
  H   -2.64295241838975      0.56015718432983     -0.51815122856863
  H   -1.55723029990377      1.72940357135671      0.26157883590263
  H   -1.24308390122778      1.21322972797259     -1.41413393879126
  N   1.15456517201920      0.35321515495968     -1.31560670047473
  H   1.24450378697737     -0.53870223695925     -1.78898409317654
  H   2.04758250608184      0.82788195012345     -1.34367877970336
  N   1.50683337070996     -1.00041889733664      0.64444403629518
  H   2.49694940955064     -0.79378056614401      0.58811427400149
  H   1.27350569026502     -1.12351686620764      1.62406685807699
