16
Coordinates from ORCA-job run
  C   -0.63112826989622      0.05863950856036      0.30603542902716
  C   0.79232452459936      0.10713404111775     -0.28703199834918
  F   -0.60136521488529     -0.89174317003369      1.33759195341974
  H   0.78183360381445      0.85411637399578     -1.08839256459087
  C   -0.93173878617089      1.36103616801960      0.92662218253754
  N   -1.14738301319197      2.41252441971586      1.40228772190574
  C   -1.70828922388031     -0.33684874467600     -0.67962930299458
  H   -1.76735102538939      0.39920784879492     -1.48403256558597
  H   -1.45522448832266     -1.30464133074037     -1.10797044408925
  H   -2.67406168474241     -0.38854837178759     -0.17429251809282
  N   1.05826839014824     -1.18954586157687     -0.87556569546529
  H   2.00680953752684     -1.17494356471716     -1.23197245452237
  H   1.02755812381131     -1.89180679800910     -0.14362838997393
  N   1.81065712286227      0.51352630855034      0.66990482608727
  H   1.72393814764293      1.49565537889746      0.90606618830530
  H   1.71415225607378     -0.02476220611127      1.52400763238145
