16
Coordinates from ORCA-job run
  C   -0.66201971064254     -0.21098323302744      0.17245761741420
  C   0.85072945274896      0.08418376063580      0.19968761770487
  F   -0.82214238979400     -1.41501963316875     -0.53220736019752
  H   0.98711655294250      1.00777373280196      0.77359893363248
  C   -1.16608633956128     -0.42102485533705      1.53858409261055
  N   -1.61971866041229     -0.52541980384728      2.61620356166592
  C   -1.48470426549815      0.84639875910439     -0.53310875026755
  H   -1.15914722990090      0.92878598591354     -1.57021974900251
  H   -1.37039582527000      1.81233977235279     -0.03645127549622
  H   -2.53848582160548      0.56626551395095     -0.51885864726842
  N   1.43112495872767      0.30185652219091     -1.11655089825895
  H   1.16031224316117      1.19397003334440     -1.51148158341354
  H   1.14946191352277     -0.43691162929031     -1.75113431889032
  N   1.48199900758609     -0.99667241159724      0.92141768414189
  H   2.48493577239426     -0.85935663666693      0.88805110243726
  H   1.27702034160125     -1.87518587735979      0.45901197318790
