16
Coordinates from ORCA-job run
  C   -0.65949625594827     -0.23870934421520      0.04927725832364
  C   0.80999025696780      0.22310442250418      0.12785308271441
  F   -0.67507277180977     -1.38134912973275     -0.76580310263217
  H   0.83484042622541      1.11064862322227      0.76969321128368
  C   -1.09895305456989     -0.65743649268287      1.39192396246233
  N   -1.43195512782586     -0.94319315325873      2.48088400132653
  C   -1.60838441857277      0.78201633102269     -0.53891092885056
  H   -1.25668764876406      1.05881453092838     -1.53081387783393
  H   -2.61445788864340      0.36368664857181     -0.59809293570502
  H   -1.63150536593831      1.67564959681149      0.08814439616527
  N   1.21081879083117      0.61464805098398     -1.20797812704436
  H   1.14637364488918     -0.19420093875948     -1.81743524993749
  H   2.18844168979726      0.87862550462429     -1.16877440921326
  N   1.70162093720233     -0.76331832321249      0.71977806033516
  H   1.55183235848667     -1.66703476434061      0.28450676698080
  H   1.53359442767249     -0.86195156246701      1.71474789162497
