16
Coordinates from ORCA-job run
  C   -0.77024785706899     -0.30627063963068      0.41150474852913
  C   0.76823336837717     -0.30709770506384      0.35813415814814
  F   -1.18769861322850     -1.61095765732506      0.63835299808451
  H   1.08732993925996     -0.78746254527770      1.28789027816133
  C   -1.22041436989523      0.49643194746116      1.56390338056511
  N   -1.62930317729861      1.10185404243127      2.48252465009298
  C   -1.42235074393061      0.17636141830675     -0.86915120766163
  H   -1.11667276562933     -0.47796676025132     -1.68628636367147
  H   -1.15237302399017      1.21193691790278     -1.08478639913432
  H   -2.50674971602924      0.11983266661405     -0.76784433558200
  N   1.22122732546655      1.07417726031030      0.39450550598071
  H   2.18891882051294      1.12445858942669      0.68585779304557
  H   1.15245556763600      1.49750578991488     -0.52367843434230
  N   1.20263524704583     -1.15461876369980     -0.74164997235767
  H   2.11799465653396     -1.53961363056536     -0.54875646245608
  H   1.26701534223832     -0.61957093055411     -1.59952033740204
