16
Coordinates from ORCA-job run
  C   -0.71860154115129     -0.00415344878934      0.31606345595297
  C   0.74864131080498      0.05351243034589     -0.15043799273541
  F   -0.85164903168722     -1.08516440845615      1.17913801800971
  H   0.78930288216271      0.80171661735462     -0.95789104374950
  C   -1.04151274709042      1.21865455998500      1.07533060098143
  N   -1.27033014505349      2.21676738694013      1.64945443219434
  C   -1.68662239073628     -0.19140776775528     -0.83361336583945
  H   -1.38716997093021     -1.07975598683721     -1.38760713754236
  H   -2.69659938638419     -0.31807517663964     -0.44138619681955
  H   -1.67105692692365      0.67540363002080     -1.49722194991702
  N   1.06783202508653     -1.22947282970280     -0.73230591089760
  H   1.91793588398622     -1.17086234416281     -1.27767504512582
  H   1.21002451081769     -1.89145507401643      0.02220960866485
  N   1.60438472349786      0.36587900145270      0.98819405826614
  H   2.57224233191085      0.34474796126181      0.69001623642981
  H   1.41517847168993      1.29266544899875      1.35473223212745
