16
Coordinates from ORCA-job run
  C   -0.63622059970399     -0.02587107917002      0.36034383391555
  C   0.81232735936265      0.15207955870670     -0.16397784688579
  F   -0.63777067288819     -1.06355473301745      1.28497962770123
  H   0.75123110563351      0.85252054966028     -1.01367603927931
  C   -1.06056108031490      1.20264153853102      1.05305674267037
  N   -1.36806658709675      2.21187436556590      1.56878612236318
  C   -1.62396702962205     -0.37723497083429     -0.73513729146660
  H   -1.31240469936058     -1.30417736247801     -1.21843404759729
  H   -2.61344280752201     -0.53028470971855     -0.30283497754001
  H   -1.68186664887490      0.41976119246627     -1.47889442622532
  N   1.40015872816379     -1.07387677280348     -0.65077252812310
  H   1.30486478702919     -1.79146855100401      0.05824286725130
  H   0.97209340144372     -1.38673406965042     -1.51106718786352
  N   1.64926357551064      0.60173568334394      0.92930749644860
  H   1.43445060560661      1.55315459437207      1.20092232059034
  H   2.61191056263329      0.55743476603005      0.62015533404035
