16
Coordinates from ORCA-job run
  C   -0.67179512740973     -0.25512701375540      0.44150200400680
  C   0.86963264189384     -0.18850113143658      0.30815788120895
  F   -0.96837872614937     -1.55035291316789      0.87498490164425
  H   1.25857917107039     -0.50568892756539      1.28853368178690
  C   -1.09244652881592      0.67565627333789      1.50228177599740
  N   -1.37108876590960      1.44826764069282      2.34195999395509
  C   -1.42478007259011      0.00970394310725     -0.84213189280821
  H   -1.16391228713514      0.99393195731969     -1.22969481775137
  H   -1.15943850897384     -0.75184084281076     -1.57638576870088
  H   -2.49916604758164     -0.04571434766577     -0.66249617518313
  N   1.24189816548692      1.15690457440893     -0.08390312596659
  H   1.06504462133285      1.81519207303754      0.66618517480091
  H   2.23737741765734      1.15756124719480     -0.27316770168767
  N   1.42114771044548     -1.08861517970898     -0.67413714388243
  H   1.14851125148957     -2.04358606363595     -0.48028585072531
  H   1.10781508518895     -0.82779128935220     -1.60140293669467
