16
Coordinates from ORCA-job run
  C   -0.68108249223934     -0.27285243887253      0.09999457470718
  C   0.82389296818066      0.09125581089429      0.13091835656818
  F   -0.82107145007014     -1.49195933031968     -0.55605525308499
  H   0.93272656363051      0.91715733419264      0.85163735775223
  C   -1.12328695748803     -0.47408060085760      1.49288502997778
  N   -1.43365863991476     -0.61085699406604      2.61699174761213
  C   -1.54706210579475      0.74565825975735     -0.61008665354036
  H   -2.59597293128502      0.45123441888397     -0.55808050504610
  H   -1.43590660592809      1.73339815298743     -0.15594145986924
  H   -1.24024650008653      0.77954237975971     -1.65549719818696
  N   1.24963839866788      0.42469636404135     -1.21709242093444
  H   1.02069275468842      1.38340053217702     -1.44717401862130
  H   2.25713628313400      0.32550150022191     -1.24114870598298
  N   1.65782157149137     -0.99769894140954      0.58831570982374
  H   1.52998165424348     -1.16417349200359      1.57843850969770
  H   1.40539748877033     -1.83922295538667      0.08289492912747
