16
Coordinates from ORCA-job run
  C   -0.78846401402372     -0.36804141686987      0.05462368313544
  C   0.68284669650090     -0.28660342204903     -0.38944871204047
  F   -1.24594536331826     -1.65458499108158     -0.17500552852669
  H   0.67788285078016     -0.53132110248718     -1.45676586072186
  C   -0.83715664904414     -0.11913924493911      1.51040892574043
  N   -0.79943482245489      0.10586736137588      2.66239762567792
  C   -1.69340975162078      0.59206455168449     -0.69119125979813
  H   -2.72730227480215      0.42088531387937     -0.38712262523756
  H   -1.40988551138811      1.62380528701639     -0.49795020659021
  H   -1.60322108063315      0.39361312272811     -1.76138868738157
  N   1.44211443220517     -1.32013752169933      0.28724657273649
  H   2.35054187012646     -1.42968793852073     -0.14537808415413
  H   1.58255808392780     -1.08194228724060      1.26321256083489
  N   1.11125232394655      1.10145738791139     -0.25632513016090
  H   1.26863811432629      1.31963643404647      0.72287507080247
  H   1.98998509547182      1.23712846624534     -0.74118834431613
