16
Coordinates from ORCA-job run
  C   -0.73370871527935     -0.33583148105425      0.09023161408218
  C   0.73683789637388     -0.16386942714971     -0.30891299998016
  F   -1.05613236685968     -1.68696071751282     -0.08825312661012
  H   0.77149792515910     -0.33036438620273     -1.39703770649915
  C   -0.89213571115428     -0.02449729178013      1.52174138216008
  N   -1.03865169128980      0.27079992215860      2.64824691252107
  C   -1.67771672396158      0.49227224434882     -0.75324950645976
  H   -2.70764693059884      0.30337678228222     -0.44754622801703
  H   -1.56126869261263      0.20538222657527     -1.80056762364425
  H   -1.44365616598385      1.54921227724192     -0.64016626634604
  N   1.52891589252211     -1.11106094664781      0.46081613575008
  H   2.49037207915153     -1.08938551771169      0.14200024140461
  H   1.17570361727536     -2.05203287878375      0.33207778530833
  N   1.11711361960340      1.20867773583310     -0.06082692238055
  H   1.92253517294426      1.46484096241242     -0.61663681488620
  H   1.36594079471034      1.30044049599057      0.91908312359687
