16
Coordinates from ORCA-job run
  C   -0.71525757492233     -0.30294232348231      0.41559164105684
  C   0.82829299153738     -0.37776891529603      0.30510651078451
  F   -1.17987110273190     -1.56031417237816      0.77797316568618
  H   1.14652786068725     -0.92356342079471      1.19886268900782
  C   -1.06145085643671      0.62113060290189      1.51360982391406
  N   -1.31047294628937      1.35897728495194      2.39249348153833
  C   -1.41125562016089      0.09904914682387     -0.86925841983749
  H   -1.07215729070716      1.07626044021307     -1.22024124562002
  H   -2.48819545579303      0.14921927430045     -0.70501069841664
  H   -1.20583445312052     -0.66238606672143     -1.62127836021883
  N   1.50525028277603      0.91047534469271      0.31829292764256
  H   1.16728134253889      1.51268636130539     -0.42369146602632
  H   1.37925849260641      1.39263904627807      1.20043572944654
  N   1.16196499099936     -1.18330480301176     -0.84960361106678
  H   2.11771166081626     -1.50276318666382     -0.74796343569565
  H   1.13920767820035     -0.60839461311916     -1.68531873219510
