16
Coordinates from ORCA-job run
  C   -0.59280663630019     -0.23660727364143      0.11857994448516
  C   0.91534756143119      0.15522956247765      0.11626402255658
  F   -0.69416366789562     -1.42609948327510     -0.61487588687294
  H   1.00905374428331      1.07583340327132      0.70287453295575
  C   -1.01383637689801     -0.52674739649090      1.49882258389769
  N   -1.31771113035081     -0.69589720595397      2.62066346267199
  C   -1.51708829185630      0.78265403423767     -0.51301508043269
  H   -1.44182390535633      1.74031578506155      0.00711890529076
  H   -1.24610633880833      0.91612689615778     -1.56030289556135
  H   -2.55016854852905      0.43588996603347     -0.46440562167188
  N   1.40862895196242      0.41867351791736     -1.21864381097869
  H   1.02062117540515      1.27229701466569     -1.59598617356860
  H   1.17217648134516     -0.34670978869732     -1.83914947646198
  N   1.74510575625246     -0.85616251140147      0.73896297139148
  H   1.59395825135177     -1.75040772268447      0.28640972484392
  H   1.50981297396317     -0.95938879767782      1.71868279745480
