16
Coordinates from ORCA-job run
  C   -0.74504361443642     -0.30271735571182      0.34415890406284
  C   0.79004595249810     -0.22729860522775      0.31476188586317
  F   -1.08680048300955     -1.66201473326177      0.37749554400694
  H   1.13678014486755     -0.64154007065665      1.27308293412129
  C   -1.22871509222266      0.29948320400743      1.59706209703628
  N   -1.62786823515872      0.76281653300445      2.59875663727591
  C   -1.41263904598384      0.32733469267932     -0.85909870719403
  H   -1.00066711026350     -0.11147673592553     -1.76729048358853
  H   -2.48628860412377      0.13933901293571     -0.81382958530214
  H   -1.24353043371260      1.40428003766873     -0.85972888358222
  N   1.17432544948552      1.16411859832859      0.26373678909209
  H   1.24506487043022      1.45243523209382     -0.70508197567493
  H   2.06375556499377      1.32148353029670      0.71641025181105
  N   1.25380343965161     -0.97707051114531     -0.84617570862384
  H   2.26608758337988     -1.02375391667306     -0.82686825507443
  H   0.89968961360440     -1.92641891241285     -0.80539144422947
