16
Coordinates from ORCA-job run
  C   -0.59783920172114     -0.28392564240570      0.46626656590735
  C   0.94896177803704     -0.25407609084606      0.29565863408069
  F   -0.93565842110281     -1.59870594569634      0.80724275424200
  H   1.34765390318071     -0.58025084593276      1.26326935742255
  C   -0.96248371936132      0.58082199220124      1.59963406375249
  N   -1.19883082101774      1.30238018361682      2.49573510601742
  C   -1.38601958084431      0.08478620589819     -0.77324601450452
  H   -2.44853724447310     -0.07688382162731     -0.58755621889147
  H   -1.07698177749485     -0.55137370192060     -1.60313162649088
  H   -1.24219132077275      1.13250070666762     -1.04120803371675
  N   1.47480805064910      1.06225512541352      0.02345383255544
  H   0.98772139182885      1.51776348134574     -0.73768571856367
  H   1.43386321845338      1.65562206110176      0.84058024675616
  N   1.41096992264598     -1.18106570196277     -0.71423828002996
  H   0.87265422599081     -2.03776786378077     -0.69626789171604
  H   1.37190959600216     -0.77008014207260     -1.63750677682076
