16
Coordinates from ORCA-job run
  C   -0.65084184304525     -0.29197413912271      0.44909048565932
  C   0.88269075768790     -0.21536643066963      0.25375746678656
  F   -0.93389981496055     -1.61871399025648      0.78560915747297
  H   1.31494110204268     -0.61158231996434      1.18601142171308
  C   -1.02306975905425      0.54922453802260      1.59937595717758
  N   -1.27135767692313      1.27203263796086      2.49132595409903
  C   -1.45942081745812      0.08027606307429     -0.77291461336633
  H   -1.21184922481467      1.09340217247022     -1.08780835261949
  H   -2.52474606672671      0.01128952935152     -0.54924134608366
  H   -1.23227776015275     -0.61729824783896     -1.57993662750867
  N   1.24289475250370      1.15770144037918     -0.04368271683801
  H   1.09964998008784      1.75264375472561      0.76434411173078
  H   2.22977557429850      1.17303137357777     -0.27316013269587
  N   1.38694662538813     -1.03277112442988     -0.82219796662348
  H   1.02981986426576     -0.70110015779604     -1.71016175653157
  H   1.12274430686090     -2.00079509948399     -0.69141104237223
