16
Coordinates from ORCA-job run
  C   -0.72774244954953     -0.30484035773777      0.39359649489559
  C   0.81564414510108     -0.40577746765429      0.30725774331605
  F   -1.22211758910322     -1.56532162010487      0.70212304772114
  H   1.10786501040187     -0.98878309090624      1.18628863081602
  C   -1.07764933954854      0.58781868854106      1.51592957897674
  N   -1.33006680508397      1.31949551783835      2.39899376827655
  C   -1.39298934058687      0.15638758576337     -0.88798048137481
  H   -1.18956861651521     -0.58234103355225     -1.66286506156438
  H   -1.02784467569550      1.13790122456931     -1.19844562938106
  H   -2.47132562863604      0.22352004343715     -0.74000929115199
  N   1.51716398616473      0.86757222510239      0.37731790963429
  H   1.38272838927673      1.32147801434982      1.27320506129310
  H   1.20318593725137      1.50140152849850     -0.34881630449999
  N   1.15436193619133     -1.17697040746840     -0.86939643893671
  H   1.15755043372411     -0.57286469425121     -1.68455929777093
  H   2.10180460660767     -1.51867615642487     -0.76263973024960
