14

C	-0.611314	0.047573	-1.391319
C	0.0	0.0	0.0
Br	-0.000187	-1.683794	-2.256861
H	1.088274	0.0	0.0
H	-0.370498	-0.880963	0.524574
N	-2.026289	0.157778	-1.31403
H	-2.457919	0.151249	-2.229251
H	-2.411744	-0.58894	-0.74379
C	-0.097956	1.099707	-2.26892
N	0.219908	1.904773	-3.064736
N	-0.478275	1.17706	0.773426
O	-0.213859	2.286905	0.319333
O	-1.105902	0.957693	1.812904
Cl	3.274676	0.0	0.0
