14

C	-0.334622	-0.102496	-1.48878
C	0.0	0.0	0.0
Br	-0.279493	1.89763	-2.139101
H	1.088648	0.0	0.0
H	-0.452495	0.862679	0.473716
N	0.579668	-0.921815	-2.124126
H	1.536879	-0.780575	-1.795113
H	0.495074	-0.963576	-3.129136
C	-1.719918	-0.467438	-1.78913
N	-2.834041	-0.757578	-2.027047
N	-0.503551	-1.205709	0.713637
O	-1.463492	-1.036247	1.473126
O	0.048355	-2.27961	0.497103
Cl	3.289065	0.0	0.0
