14

C	-0.570871	0.244541	-1.393334
C	0.0	0.0	0.0
Br	-0.066697	-1.361945	-2.535457
H	1.101064	0.0	0.0
H	-0.36836	0.798941	0.651515
N	-1.961876	0.519752	-1.40029
H	-2.456996	-0.229605	-0.932981
H	-2.304758	0.648583	-2.343667
C	0.126957	1.368357	-2.022999
N	0.573303	2.314864	-2.557353
N	-0.503824	-1.270465	0.600569
O	0.283156	-1.947025	1.24574
O	-1.702942	-1.540594	0.456717
Cl	3.314192	0.0	0.0
