14

C	-0.565505	-0.061559	-1.410266
C	0.0	0.0	0.0
Br	-0.137296	-1.864379	-2.070664
H	1.107639	0.0	0.0
H	-0.377723	-0.836882	0.584405
N	-2.012654	0.05508	-1.407634
H	-2.359508	-0.10401	-2.347396
H	-2.233528	1.014544	-1.154249
C	0.081397	0.873567	-2.345146
N	0.483602	1.630436	-3.149025
N	-0.44328	1.229354	0.706261
O	-0.751286	2.216744	0.030006
O	-0.450273	1.191865	1.931078
Cl	3.240646	0.0	0.0
