14

C	-0.382224	-0.038878	-1.48417
C	0.0	0.0	0.0
Br	-0.173934	1.773359	-2.237262
H	1.089261	0.0	0.0
H	-0.358583	-0.923643	0.466637
N	0.515085	-0.910726	-2.210394
H	0.324572	-1.872588	-1.944027
H	1.473044	-0.691467	-1.925196
C	-1.764172	-0.461105	-1.733821
N	-2.84048	-0.886325	-1.936802
N	-0.615136	1.108272	0.766981
O	-1.829938	1.260029	0.6182
O	0.097858	1.771561	1.51157
Cl	3.315461	0.0	0.0
