14

C	0.0	0.0	0.0
C	-0.41121	-0.163108	-1.530699
Br	1.922021	0.0	0.0
H	0.510137	-0.044146	-2.111128
H	-0.387435	-0.775795	0.645524
N	-0.398644	1.300041	0.623795
O	-0.645399	1.282142	1.821534
O	-0.34231	2.308497	-0.075882
N	-1.415748	0.672415	-2.139136
H	-2.185848	0.594878	-1.442599
H	-1.064934	1.6214	-2.123704
C	-0.793426	-1.578075	-1.661778
N	-0.990783	-2.731805	-1.760716
F	-2.444368	0.0	0.0
