14

C	0.0	0.0	0.0
C	-0.56665	0.189249	-1.43308
Br	1.912965	0.0	0.0
H	-1.431313	0.83549	-1.27121
H	-0.389616	-0.900289	0.458168
N	-0.399911	1.127325	0.91287
O	-0.5213	2.239516	0.414381
O	-0.471341	0.862107	2.10629
N	-1.130141	-1.037509	-1.974281
H	-0.474525	-1.804489	-1.85611
H	-1.929597	-1.145548	-1.335674
C	0.356998	0.81759	-2.384335
N	1.037647	1.33337	-3.19126
F	-2.543164	0.0	0.0
