14

C	0.0	0.0	0.0
C	-0.411128	0.137432	-1.48303
Br	1.930205	0.0	0.0
H	0.042163	-0.765168	-1.931763
H	-0.33688	-0.946326	0.405253
N	-0.43573	1.035508	0.98603
O	-0.520623	2.20012	0.627364
O	-0.567388	0.630209	2.140207
N	0.089385	1.354582	-2.120066
H	1.08163	1.275337	-2.315803
H	-0.413461	1.45688	-2.992064
C	-1.864972	0.036432	-1.781727
N	-2.627482	-0.022845	-2.691823
F	-2.385321	0.0	0.0
