14

C	0.0	0.0	0.0
C	-0.411577	-0.039549	-1.510667
Br	1.954397	0.0	0.0
H	0.500734	0.067869	-2.104895
H	-0.362331	-0.847756	0.563859
N	-0.383143	1.212437	0.796406
O	-0.287852	2.310109	0.265107
O	-0.653719	1.003143	1.97335
N	-1.341317	0.981446	-1.953976
H	-2.154742	0.786983	-1.331877
H	-1.566779	0.774482	-2.9223
C	-0.874054	-1.428598	-1.752897
N	-1.163904	-2.52151	-2.07313
F	-2.447889	0.0	0.0
