14

C	0.0	0.0	0.0
C	-0.382726	-0.066103	-1.545699
Br	1.956607	0.0	0.0
H	0.539511	0.129307	-2.101018
H	-0.374804	-0.817408	0.598339
N	-0.392132	1.259737	0.699274
O	-0.369698	2.302496	0.052226
O	-0.606175	1.173092	1.900553
N	-1.415109	0.768626	-2.10702
H	-1.093933	1.726776	-2.03885
H	-2.181109	0.63153	-1.413524
C	-0.7109	-1.481783	-1.777987
N	-0.912138	-2.621508	-1.975344
F	-2.426978	0.0	0.0
