15

C	-0.547594	0.004117	-1.422668
C	0.0	0.0	0.0
Br	0.006777	-1.586985	-2.400556
H	1.097877	0.0	0.0
H	-0.0666	0.819112	-1.980157
N	-1.998475	0.073064	-1.378976
H	-2.366953	0.211205	-2.313155
H	-2.209645	0.890092	-0.808277
N	-0.485409	-1.135071	0.728967
H	-1.489042	-1.077214	0.862366
H	-0.000639	-1.224166	1.613304
N	-0.471338	1.30084	0.574801
H	-0.369689	1.217595	1.581164
H	0.205103	2.008309	0.296048
Br	3.679761	0.0	0.0
