15

C	-0.614679	0.092795	-1.391198
C	0.0	0.0	0.0
Br	0.428028	-1.021378	-2.696021
H	1.089682	0.0	0.0
H	-0.509589	1.103259	-1.779144
N	-1.983079	-0.300725	-1.323671
H	-1.990377	-1.260364	-0.991064
H	-2.415035	-0.267319	-2.237913
N	-0.391829	-1.299168	0.590156
H	-1.098134	-1.149835	1.301285
H	0.424474	-1.704923	1.032848
N	-0.447503	1.182128	0.72068
H	0.073185	1.258544	1.585632
H	-1.438359	1.105441	0.920985
Br	3.633217	0.0	0.0
