15

C	-0.610882	0.010167	-1.398577
C	0.0	0.0	0.0
Br	-0.139297	1.652036	-2.384363
H	1.093538	0.0	0.0
H	-1.701386	0.116272	-1.292091
N	-0.193466	-1.129389	-2.14761
H	-0.088978	-1.899679	-1.497091
H	-0.850875	-1.356511	-2.879343
N	-0.356727	-1.310116	0.591362
H	0.342862	-1.537459	1.288742
H	-1.258117	-1.246657	1.053889
N	-0.433866	1.169696	0.740161
H	-1.400613	1.070101	1.036606
H	0.153731	1.282524	1.557998
Br	3.660006	0.0	0.0
