15

C	-0.370276	-0.099492	-1.485701
C	0.0	0.0	0.0
Br	-0.308922	1.711542	-2.410572
H	1.097541	0.0	0.0
H	-1.421963	-0.366998	-1.632403
N	0.481081	-1.051922	-2.090876
H	1.456084	-0.831929	-1.889416
H	0.340942	-1.112959	-3.089999
N	-0.389713	-1.250551	0.675572
H	0.297267	-1.957725	0.438525
H	-1.280583	-1.577526	0.30663
N	-0.523139	1.174706	0.652676
H	-0.03738	1.249291	1.538856
H	-1.503208	1.018676	0.870504
Br	3.608244	0.0	0.0
