15

C	-0.589475	0.049559	-1.400467
C	0.0	0.0	0.0
Br	0.148792	-1.516464	-2.48966
H	1.096678	0.0	0.0
H	-0.201313	0.90924	-1.940636
N	-1.999182	0.039882	-1.341739
H	-2.297777	-0.749181	-0.780753
H	-2.42347	0.01047	-2.257945
N	-0.543945	-1.193514	0.685073
H	-0.213699	-1.144049	1.643673
H	-0.085592	-2.006172	0.280043
N	-0.402802	1.23047	0.652451
H	0.215299	1.411484	1.433376
H	-1.361584	1.155829	0.969484
Br	3.660305	0.0	0.0
