15

C	0.0	0.0	0.0
C	-0.653204	0.022788	-1.369331
Cl	1.775353	0.0	0.0
H	-1.870685	-0.023676	-0.904772
N	-0.497873	1.136134	0.716127
H	-0.221083	1.076155	1.692603
H	-1.530364	1.015141	0.655471
C	-0.366788	-1.312189	0.611285
N	-0.574502	-2.341866	1.118623
C	-0.239532	-1.045193	-2.226992
N	0.079464	-1.934369	-2.94292
N	-0.42066	1.332204	-2.036419
O	-1.281947	2.193762	-1.911018
O	0.619669	1.472623	-2.691404
H	-2.752212	0.0	0.0
