17

C	-0.449983	-0.005985	-1.442747
C	0.0	0.0	0.0
Br	-2.394598	-0.404674	-1.686495
H	1.096067	0.0	0.0
N	-0.10149	1.243839	-2.030475
H	-0.207324	1.191925	-3.038608
H	-0.731679	1.959525	-1.685903
N	0.307779	-1.059883	-2.264798
O	1.145975	-1.732938	-1.683895
O	0.08129	-1.073064	-3.472827
N	-0.367325	-1.231125	0.760376
O	-0.791992	-2.225484	0.170451
O	-0.052778	-1.203194	1.955909
N	-0.589519	1.129236	0.687953
H	-0.05773	1.953974	0.431559
H	-0.434783	0.988297	1.68107
Br	2.744336	0.0	0.0
