19

C	-0.397791	-0.028384	-1.485837
C	0.0	0.0	0.0
Br	0.044663	1.646345	-2.388573
H	1.100285	0.0	0.0
C	0.307807	-1.152491	-2.206217
H	1.380819	-1.014458	-2.069519
H	-0.000513	-2.099516	-1.767318
H	0.060739	-1.157097	-3.267238
N	-1.905608	-0.175943	-1.609437
O	-2.600741	0.698884	-1.101283
O	-2.33861	-1.173697	-2.178984
N	-0.471561	-1.274415	0.570399
H	-0.91571	-1.107022	1.462505
H	0.327955	-1.872504	0.740526
C	-0.484777	1.169211	0.838879
H	0.054817	1.136058	1.789507
H	-0.268881	2.124382	0.363363
H	-1.559269	1.112071	1.029014
Br	3.585856	0.0	0.0
