13

C	-0.576623	-0.025979	-1.395184
C	0.0	0.0	0.0
Cl	-0.081261	1.450562	-2.261896
H	1.089981	0.0	0.0
H	-1.66607	-0.043267	-1.35436
H	-0.181425	-0.88626	-1.93176
N	-0.415723	-1.215248	0.765341
O	-0.563031	-1.100771	1.978233
O	-0.563322	-2.246292	0.109085
N	-0.519731	1.201965	0.730811
O	-1.731871	1.400119	0.638175
O	0.277175	1.874747	1.37666
Br	3.289339	0.0	0.0
