13

C	-0.432642	0.019862	-1.438776
C	0.0	0.0	0.0
Cl	-2.186609	-0.230836	-1.66344
H	1.09391	0.0	0.0
H	0.090088	-0.78695	-1.948124
H	-0.165939	0.979027	-1.874489
N	-0.49382	-1.247988	0.657681
O	-0.035165	-2.280814	0.181511
O	-1.333731	-1.171682	1.547038
N	-0.430296	1.193073	0.781815
O	-0.10679	1.206506	1.963392
O	-1.011302	2.097516	0.181852
Br	3.319698	0.0	0.0
