13
Coordinates from ORCA-job run
  C   0.55749478194974      0.18466730850476     -0.13418393262263
  C   -0.76738959633735      0.34151702833206      0.11599052745483
  C   1.29548995883421      1.39283977219708     -0.35836942610223
  N   1.94183707605143      2.36379810671269     -0.52653558768113
  C   1.34759453748950     -1.09317031786156     -0.15337918461446
  H   2.25475306059629     -0.94488381001488     -0.73849076530820
  H   1.63167690594108     -1.36266395064339      0.86701737940402
  H   0.77537365831564     -1.91982989094780     -0.56933587185002
  N   -1.66547367133105     -0.79899249509049      0.38423619338953
  O   -2.85647025350316     -0.60637410233992      0.15635478807623
  O   -1.16071284034745     -1.83151391072267      0.81109952117087
  C   -1.42387842207744      1.60670678442320      0.08475056670782
  N   -1.93029519558145      2.66989947745092      0.06084579197537
