13
Coordinates from ORCA-job run
  C   0.54501588070366     -0.05137372820327      0.10373810367284
  C   -0.78771614970489      0.18488346004648      0.09542698821377
  C   1.31890667740152      0.04046893333765      1.30436341244231
  N   2.06129257697202      0.06671441401542      2.21836764091997
  C   1.30998112692830     -0.43158070907896     -1.13148200387406
  H   2.05221395271183      0.33972588890041     -1.35371835237989
  H   1.84894982562828     -1.36602967841423     -0.95543938664914
  H   0.65356740000709     -0.55735136911019     -1.99197746691942
  N   -1.54679102570064      0.51914098826685      1.32216091063176
  O   -0.96515622283313      1.15803570374075      2.18903787762075
  O   -2.70484797710129      0.11410204268982      1.34874315452982
  C   -1.58760604376561      0.05524643393770     -1.07540847460492
  N   -2.19881002124716     -0.07298238012843     -2.07281240360380
