13
Coordinates from ORCA-job run
  C   0.57613346202991      0.05825672018305      0.20544118133913
  C   -0.75773688196054      0.29269713946113      0.25042712127550
  C   1.36911015530077      0.65885493582541      1.23503121619702
  N   2.05778062518646      1.13504952657672      2.06404105509593
  C   1.30399637519834     -0.74830605201502     -0.83176356832546
  H   0.67900355859905     -1.53401680390641     -1.25211988044700
  H   1.61123945327928     -0.09402523564283     -1.65236364838893
  H   2.19777435893766     -1.18821348204915     -0.38867174032655
  N   -1.66710184601225     -0.28814945058837     -0.75595331153979
  O   -2.72699928143125     -0.73090577216704     -0.32566008511352
  O   -1.28910366807894     -0.27901564423594     -1.92318324655269
  C   -1.41128141258730      1.04241515552798      1.26836071258840
  N   -1.94381489846120      1.67535896303049      2.10641419419797
