13
Coordinates from ORCA-job run
  C   0.55045091286644     -0.03898070466846      0.06747604245863
  C   -0.78582973860778      0.16516228592915      0.12677821276349
  C   1.38198885736186      0.13872528892114      1.21909677551349
  N   2.16657875488386      0.22397491081765      2.09331848913191
  C   1.25628662823915     -0.47469886854901     -1.18414269727379
  H   1.81593548831227     -1.39312109792747     -0.99163223316824
  H   0.55896747524502     -0.64436083975202     -2.00411140871455
  H   1.97526122347540      0.29388607090041     -1.48018104348156
  N   -1.46691819313795      0.56509404404447      1.37820612906641
  O   -0.87676495199846      1.34574200283443      2.11446372286597
  O   -2.57103992191972      0.06091674878474      1.56022789039347
  C   -1.65779982988831     -0.03826336300791     -0.97898578914793
  N   -2.34611670483178     -0.20407647832715     -1.91951409040729
