13
Coordinates from ORCA-job run
  C   0.55115112026476     -0.14086706036771      0.07077550649228
  C   -0.76883689541772      0.15339285947300      0.12199858149444
  C   1.30766554360256     -0.20696025792978      1.28417564230076
  N   1.96462544282265     -0.28990882224847      2.25866113706691
  C   1.28091234108657     -0.36396224998144     -1.22188671131134
  H   1.81257661766081      0.54743288133371     -1.50397902903465
  H   0.59315843594247     -0.63523563008444     -2.02667365160326
  H   2.01620330460243     -1.15754294194284     -1.10481998475240
  N   -1.44729422420264      0.44371407373076      1.40278551476056
  O   -2.04516190567620      1.51229035610198      1.44699087090055
  O   -1.36954598389937     -0.41041303561572      2.27744686823347
  C   -1.60497496927551      0.25241191123498     -1.02435053954728
  N   -2.29147882751083      0.29564791629597     -1.98012420500006
