13
Coordinates from ORCA-job run
  C   0.59607715970830      0.14557949110553      0.01596625813762
  C   -0.72426521842525      0.42214229564559      0.14406996045095
  C   1.50621245171310      1.21991798137760      0.27495993126843
  N   2.29054268348239      2.07607667242019      0.47545966708208
  C   1.19467410553413     -1.16924705646871     -0.39552561272334
  H   0.56851449410890     -2.01188116526469     -0.10824635419794
  H   2.18199934496327     -1.27557642523054      0.05453679435339
  H   1.30579174001511     -1.19383692858866     -1.48315990123883
  N   -1.74570705146942     -0.61641084580848     -0.09019391115985
  O   -1.57495338375533     -1.36323603487406     -1.04855916451840
  O   -2.67952656645158     -0.63586006302589      0.70488232676066
  C   -1.24832942790034      1.67755453095894      0.56201705310731
  N   -1.67303033152327      2.72477754775321      0.89279295267792
