13
Coordinates from ORCA-job run
  C   0.58916753152236      0.16194344376318     -0.07971754477829
  C   -0.72911520127162      0.42375521138755      0.10354646113232
  C   1.45307323248069      1.29541380240638     -0.21385572158207
  N   2.20752675164046      2.19395344379538     -0.32455220171548
  C   1.22801378708624     -1.19804659610814     -0.13948313908108
  H   1.37479684303953     -1.58498773004643      0.87199433366013
  H   2.19733032810966     -1.12452320576433     -0.63259304246763
  H   0.59993370914884     -1.91031626013295     -0.67427702408744
  N   -1.71592397247799     -0.66715790699217      0.23877821842640
  O   -2.81685601366816     -0.45745431985560     -0.26118276115753
  O   -1.35572708600046     -1.68074406582730      0.82946291932576
  C   -1.29287897062504      1.73139819320681      0.12565793442059
  N   -1.74034093898450      2.81976599016760      0.15722156790432
