13
Coordinates from ORCA-job run
  C   0.58383722960705      0.05139496841545      0.18279600909604
  C   -0.74448492020393      0.30132246278694      0.27939180866888
  C   1.42400549181550      0.64725213752278      1.17721822504772
  N   2.15203050763533      1.12130630575127      1.97325406996425
  C   1.26118419889885     -0.76779878875623     -0.87851486035542
  H   1.54383762144194     -0.12088556493266     -1.71369385216684
  H   0.61162949512657     -1.54823244311664     -1.27063777459755
  H   2.16643911928878     -1.21600305157656     -0.46790604875209
  N   -1.69910958341120     -0.27177883556275     -0.68871222297816
  O   -2.74701959018209     -0.69981171030813     -0.21614930704271
  O   -1.36665780054386     -0.27070106162864     -1.86981170667859
  C   -1.34832288805182      1.06303022610116      1.31874997428930
  N   -1.83636888142110      1.70990535530401      2.17301568550517
