13
Coordinates from ORCA-job run
  C   0.55118666177021     -0.01488566132450      0.08535641672732
  C   -0.78812912921246      0.17621994105231      0.09156278277891
  C   1.35582888842696      0.27367862505863      1.23281960824532
  N   2.13277670693980      0.44310313760703      2.10156492553257
  C   1.28657568976282     -0.57337250706684     -1.09934745270229
  H   2.06521870953816      0.12758048586824     -1.41134948498672
  H   0.61758356915297     -0.76910822408456     -1.93667355893985
  H   1.78271706928200     -1.50440170248864     -0.81164159111060
  N   -1.51222096816213      0.67457609596272      1.28191386030533
  O   -0.93961350012104      1.49442656277467      1.98768160099483
  O   -2.63539999074123      0.20804074868493      1.44516321263321
  C   -1.62764253250738     -0.13731477324507     -1.01458252445059
  N   -2.28888117412868     -0.39754272879894     -1.95346779502745
