13
Coordinates from ORCA-job run
  C   0.53326257323629     -0.15112863109168      0.08659943380234
  C   -0.77371134010068      0.19710786594252      0.12020266358375
  C   1.31468892374941     -0.20322399924864      1.28359064687304
  N   2.05323192223845     -0.27987020269310      2.19855349138135
  C   1.25648167669128     -0.48077695306061     -1.18804932409049
  H   2.00872045482687      0.28721856133816     -1.39467167067652
  H   0.57421155858161     -0.54861178944652     -2.03482857064311
  H   1.78231998348959     -1.43123486557090     -1.06907875842382
  N   -1.45804581121928      0.57519110880215      1.37668459913170
  O   -2.24547144700811      1.51095098371108      1.28156910104148
  O   -1.18297476793899     -0.06693283136976      2.38217200789934
  C   -1.59266379162350      0.28368335771962     -1.04068198240087
  N   -2.27004993492297      0.30862739496769     -2.00306163747821
