13
Coordinates from ORCA-job run
  C   0.55592957998664      0.18014301392140     -0.18910134613389
  C   -0.73880697271892      0.39237085883566      0.14894221190006
  C   1.31040422001415      1.32723007288965     -0.59523596958188
  N   1.96844756985143      2.24418149688572     -0.93398915344436
  C   1.26723170954722     -1.14276433148670     -0.20386833512888
  H   0.85180604397453     -1.83883463749681      0.52210623648431
  H   1.16774169176996     -1.59601269938212     -1.19416078635464
  H   2.32754528362313     -0.98872996688301     -0.00211152677427
  N   -1.60144876592677     -0.71809387903307      0.59378027527503
  O   -1.51488923584353     -1.77553894119570     -0.02299931990671
  O   -2.33421410111704     -0.47668992887686      1.54750761300987
  C   -1.36816667833369      1.66860468237490      0.16972422841122
  N   -1.89158034482713      2.72313425944694      0.15940587224415
