13
Coordinates from ORCA-job run
  C   0.57474430670761      0.20315139757195     -0.07716144365453
  C   -0.76962627050170      0.35026987071040      0.04387748569317
  C   1.31591813498563      1.39814980906973     -0.34846982962199
  N   1.95569504470567      2.35728285043838     -0.59154100075952
  C   1.35442683887213     -1.07490974838128      0.05450911819340
  H   1.42786824750939     -1.35712267587816      1.10792287980899
  H   0.86028267922828     -1.89838874397601     -0.46238902465545
  H   2.35769003170146     -0.93511614987517     -0.34828671754081
  N   -1.65891284939124     -0.80392442975880      0.27965569930156
  O   -2.78601748450222     -0.71388482574368     -0.19519673484894
  O   -1.20253464596866     -1.74948979036094      0.91423551558599
  C   -1.45063921857093      1.59014799004974     -0.12144567326918
  N   -1.97789481477539      2.63483444613383     -0.25571027423268
