13
Coordinates from ORCA-job run
  C   0.55839624136529      0.20108782153186     -0.15782214455091
  C   -0.76084986335502      0.36626898475830      0.10418960135250
  C   1.29746416546947      1.37695053398745     -0.50535846867852
  N   1.94549906578711      2.31783478855179     -0.79414981136237
  C   1.31377959137618     -1.09723658468735     -0.13975761438221
  H   0.88816994372758     -1.80876622727098      0.56543654440404
  H   2.35635918389772     -0.90706193287997      0.11600850297868
  H   1.27879935426649     -1.55363550952616     -1.13280210006222
  N   -1.60939656563730     -0.77881254916712      0.48623457432270
  O   -1.44252850243317     -1.82814043674027     -0.12729065964401
  O   -2.40943495073570     -0.57146859948867      1.39255094311031
  C   -1.43237078118150      1.62090879938564      0.10399894550263
  N   -1.98188688254715      2.66207091154548      0.08776168700940
