13
Coordinates from ORCA-job run
  C   0.57319070489112      0.21856541556204     -0.00938013633316
  C   -0.77537998682456      0.35134062522670     -0.02019739430050
  C   1.33984603447835      1.42649875875124     -0.05983869475839
  N   2.01066687187072      2.39476363494677     -0.09419121216023
  C   1.33991971827980     -1.07031936196106      0.08082144661076
  H   0.79378463616134     -1.90495769203887     -0.35430225522173
  H   2.29901160205030     -0.95807575514355     -0.42547666963009
  H   1.53008208680791     -1.30709412521049      1.13147909925673
  N   -1.65563027519110     -0.83182737946244      0.02170719291647
  O   -1.34120935239570     -1.73707922021457      0.78797999400081
  O   -2.63010652445091     -0.79930378765511     -0.72308744821604
  C   -1.46308393695794      1.59207784600544     -0.12852863849245
  N   -2.02209157871932      2.62541104119391     -0.20498528367218
