13
Coordinates from ORCA-job run
  C   0.55083991143509      0.07600109558043      0.04793870358804
  C   -0.79834863264796      0.04029027800960      0.14130878554045
  C   1.36306050664700      0.54417506364555      1.12949897747291
  N   2.14194328407586      0.87881119972065      1.94697626493347
  C   1.29586443402972     -0.38871770383166     -1.17028950924942
  H   1.90140858709359      0.43321902554097     -1.56113740774724
  H   1.97785449959155     -1.19796841575703     -0.89669666516796
  H   0.61920438418969     -0.73866535346896     -1.94945984366849
  N   -1.52110550088187      0.46020170235400      1.36291089892554
  O   -2.53372040918909     -0.18343939345340      1.61956055186243
  O   -1.05341294146089      1.39357862219404      2.00185265494910
  C   -1.63878273681727     -0.45826393537277     -0.89419237368067
  N   -2.30480538606542     -0.85922218516142     -1.77827103775815
