13
Coordinates from ORCA-job run
  C   0.58655594266612      0.16325941661234     -0.08903294217084
  C   -0.71703989268778      0.41966801224551      0.17771802311617
  C   1.46944524390088      1.28982881054075     -0.12097870623314
  N   2.23053598191784      2.18865320870379     -0.15057252499158
  C   1.19571247933683     -1.18926612637391     -0.32641203976509
  H   0.48930830233357     -1.88057695917501     -0.78330502443333
  H   2.07237437033505     -1.08600995329003     -0.96634827942280
  H   1.51148709060617     -1.62077891671366      0.62754546419384
  N   -1.71147131665208     -0.66897863816618      0.22855706607278
  O   -1.37482166917877     -1.70828650066245      0.78708619184957
  O   -2.79330528311198     -0.42956166632843     -0.29775060816053
  C   -1.25999546085089      1.72083870719698      0.37093265319035
  N   -1.69778578861495      2.80021060541030      0.54356072675458
