13
Coordinates from ORCA-job run
  C   0.57167401051148      0.10534370705038      0.19851468406972
  C   -0.76387781045429      0.33284351570497      0.16962673750831
  C   1.34405882039308      0.92286450094123      1.08430243975669
  N   2.01761769968939      1.57092247180544      1.80174084937603
  C   1.31469824974587     -0.93622429427231     -0.58851689011272
  H   0.82468849341336     -1.16205064985802     -1.53380065321851
  H   2.33228611003512     -0.59236641086496     -0.77586246200053
  H   1.36427264523683     -1.86319894448159     -0.01040789118907
  N   -1.65023895385039     -0.44737542259302     -0.71531021594242
  O   -1.43793942289477     -1.65296592965743     -0.79810256558933
  O   -2.52551533437253      0.19036738151774     -1.29128900042795
  C   -1.42497037053525      1.34990988970532      0.91380513206524
  N   -1.96575413691789      2.18293018500225      1.54629983570454
