13
Coordinates from ORCA-job run
  C   0.59001040068531      0.16552775846861      0.03910085033759
  C   -0.73877857943920      0.35776570795521      0.22259658528130
  C   1.45861052929695      1.21388155423426      0.48189335676307
  N   2.20993158433474      2.05025306026804      0.83452640063900
  C   1.23966899345903     -1.04935287865517     -0.55946268680158
  H   2.17470854276013     -0.76143066267398     -1.04065792249715
  H   0.59397403675975     -1.54545480122161     -1.28169552700340
  H   1.46573735897696     -1.76887454159135      0.23244621639653
  N   -1.72088020492283     -0.65645428637646     -0.20677883933613
  O   -1.44295654367024     -1.83164013495412      0.01042155415051
  O   -2.73390772855119     -0.22387120295857     -0.74644426462587
  C   -1.31486032522520      1.53766330521418      0.77122185887300
  N   -1.78125806446419      2.51098712229096      1.24183241782312
