13
Coordinates from ORCA-job run
  C   0.58123856104233      0.16449095730622     -0.10906273402050
  C   -0.72327054453198      0.42002519112854      0.15299772217699
  C   1.44253543669141      1.29931285463421     -0.25112243256745
  N   2.18680527697633      2.20449980871481     -0.37365478041308
  C   1.21440976260578     -1.19121006627533     -0.24031745893538
  H   2.06594363780112     -1.13009559639516     -0.91880035320593
  H   0.51081012024413     -1.93863042802360     -0.60237347491598
  H   1.57549133826364     -1.52115316597981      0.73788469131550
  N   -1.69795500422042     -0.67703340910848      0.30781746562180
  O   -1.33701331444858     -1.66010866712025      0.94711644422881
  O   -2.78965083828170     -0.50029306265978     -0.22304949193909
  C   -1.28754449350657      1.72340200578743      0.24254121513757
  N   -1.74279993863548      2.80579357799121      0.33002318751674
