13
Coordinates from ORCA-job run
  C   0.52618002287659     -0.14467339498664      0.09259425214288
  C   -0.78499234808262      0.18689824374238      0.12337489096526
  C   1.32504527873100     -0.15202345429711      1.27994518467077
  N   2.10375618311943     -0.19626978160483      2.16213650030435
  C   1.24775175121912     -0.50333438714599     -1.17575308089299
  H   2.04564743118319      0.22100209856435     -1.35449891212154
  H   1.71512708292224     -1.48520031339987     -1.06073617641048
  H   0.57541119786357     -0.51721158390856     -2.03240770811128
  N   -1.46494460245267      0.58700188720908      1.37333831804376
  O   -2.30447474466492      1.47611169923887      1.26541779773435
  O   -1.13464819009514     -0.00013444124246      2.39652678420345
  C   -1.60052125086029      0.25549782820348     -1.04318933414457
  N   -2.24933781175949      0.27033559962730     -2.02574851638395
