13
Coordinates from ORCA-job run
  C   0.59382572809622      0.15433912736893      0.02356270874410
  C   -0.72291033445895      0.35384468490249      0.27407221246287
  C   1.49590102163873      1.16546613162972      0.48556170793325
  N   2.27285766601929      1.97260734713508      0.85067402060986
  C   1.19852355440030     -1.03328550336660     -0.66905939559441
  H   1.44659426008391     -1.79950836935970      0.07068766625759
  H   0.51513907024418     -1.47909631400789     -1.38945308389804
  H   2.11676672246428     -0.73104952391743     -1.17327247276290
  N   -1.73831482616716     -0.62100509847691     -0.16815904520010
  O   -1.47066983712293     -1.81023620519976     -0.02818198674248
  O   -2.76604166662529     -0.14511618616617     -0.63928359683241
  C   -1.25631006002259      1.50967889919459      0.91040064655808
  N   -1.68636129855000      2.46236101026364      1.45245061846460
