13
Coordinates from ORCA-job run
  C   0.52132202382063      0.16583624526489     -0.29362024145886
  C   -0.66932732634554      0.40023532854965      0.31239522156599
  C   1.25957117782737      1.33164347687332     -0.68228775467384
  N   1.88833206739949      2.27609662334415     -0.99839181538343
  C   1.15417914671916     -1.17431523569323     -0.53317218650508
  H   1.90270227936311     -1.09813911924810     -1.32024768339313
  H   0.41639684541695     -1.92750138790498     -0.80405730620851
  H   1.64033049036319     -1.51146148845700      0.38608261809811
  N   -1.51844531769017     -0.70404147884559      0.79658244304234
  O   -0.95023216496807     -1.67139787027066      1.29186689186861
  O   -2.72999035154596     -0.54713022915567      0.67068490689873
  C   -1.23303230904526      1.69282253463981      0.50343513669561
  N   -1.68180656131492      2.76735260090341      0.67172976945346
