14

C	0.0	0.0	0.0
C	-0.608094	0.043404	-1.393401
Cl	1.79302	0.0	0.0
H	-1.722818	0.092523	-1.15048
H	-0.392995	-0.895967	-1.911633
C	-0.367442	1.215621	0.744091
N	-0.529002	2.217535	1.33703
C	-0.499185	-1.24482	0.715124
H	-1.598819	-1.174865	0.696468
H	-0.150389	-2.129519	0.174841
H	-0.124746	-1.277695	1.740121
C	-0.162135	1.163198	-2.203887
N	0.195304	2.055247	-2.881057
H	-3.062577	0.0	0.0
