14

C	0.0	0.0	0.0
C	-0.598139	0.045943	-1.398759
Cl	1.793343	0.0	0.0
H	-0.371144	-0.890512	-1.9173
H	-1.713294	0.089654	-1.168029
C	-0.377621	1.210383	0.747438
N	-0.564582	2.206784	1.341333
C	-0.493898	-1.251617	0.708198
H	-0.137145	-2.13095	0.164176
H	-1.593853	-1.189553	0.688957
H	-0.120054	-1.286248	1.733388
C	-0.149781	1.171097	-2.20046
N	0.202016	2.070542	-2.870644
H	-3.065168	0.0	0.0
