14

C	0.0	0.0	0.0
C	-0.282574	0.042783	-1.52443
Cl	1.796393	0.0	0.0
H	0.278579	-0.783176	-1.976667
H	0.154723	0.969147	-1.911517
C	-0.713342	1.089773	0.659916
N	-0.725995	2.148973	1.20975
C	-0.283387	-1.376713	0.639906
H	0.215094	-2.153466	0.051507
H	0.141861	-1.385689	1.644886
H	-1.351004	-1.561548	0.681743
C	-1.673944	-0.022964	-2.000635
N	-2.56648	0.139943	-2.760171
H	-2.183703	0.0	0.0
