14

C	0.0	0.0	0.0
C	-0.264118	0.015508	-1.535424
Cl	1.796455	0.0	0.0
H	0.149249	0.984456	-1.898151
H	0.335844	-0.79167	-1.991774
C	-0.697135	1.124904	0.610351
N	-0.704039	2.212509	1.08779
C	-0.258592	-1.38533	0.634695
H	-1.335518	-1.597029	0.668312
H	0.146664	-1.384797	1.655999
H	0.270199	-2.148644	0.056725
C	-1.627767	-0.083705	-2.05372
N	-2.535303	-0.068519	-2.812713
H	-2.122498	0.0	0.0
