14

C	0.0	0.0	0.0
C	-0.641228	0.024485	-1.376871
Cl	1.793188	0.0	0.0
H	-1.757715	0.075412	-1.094182
H	-0.449548	-0.922801	-1.88898
C	-0.362753	1.223925	0.736954
N	-0.540483	2.220717	1.332743
C	-0.498862	-1.227854	0.746008
H	-0.170312	-2.126931	0.217088
H	-0.109878	-1.245483	1.765814
H	-1.598108	-1.148962	0.74213
C	-0.234826	1.13746	-2.213565
N	0.070906	2.034135	-2.909967
H	-3.066532	0.0	0.0
