14

C	0.0	0.0	0.0
C	-0.648119	-0.026194	-1.373231
Cl	1.793822	0.0	0.0
H	-1.769679	-0.012282	-1.072932
H	-0.409973	0.87312	-1.947652
C	-0.373082	1.265201	0.654689
N	-0.552692	2.292687	1.195685
C	-0.478251	-1.182376	0.831461
H	-1.576715	-1.117143	0.838393
H	-0.147935	-2.110779	0.360167
H	-0.074567	-1.126572	1.843842
C	-0.316292	-1.216408	-2.130382
N	-0.077556	-2.184912	-2.75354
H	-3.036949	0.0	0.0
