14
Coordinates from ORCA-job run
  C   0.70990028016433     -0.20367098299868     -0.30264056717921
  C   -0.42040528479704      0.62136855818908      0.31040792308141
  Cl  0.92180453920301      0.15284199165088     -2.01720282896970
  H   -0.17464484989927      1.67248354059119      0.13223446959493
  H   -0.38788485446668      0.44022004121330      1.38986569975043
  N   1.99133463726367      0.19360687902638      0.46538919507148
  O   2.19671836301348     -0.45080183611663      1.48597036466397
  O   2.61901334674592      1.15328184271753      0.05274468155809
  C   0.50512391392128     -1.63608779710374     -0.12459361756567
  N   0.26966214106149     -2.78101535891704     -0.00258585501343
  C   -1.79286224646823      0.27067604299470     -0.24737756248617
  H   -1.84437875060370      0.44901266330192     -1.32178815822793
  H   -2.04313562280286     -0.77450929843514     -0.05498728953709
  H   -2.55024561233540      0.89159371388625      0.23456354525890
