14
Coordinates from ORCA-job run
  C   0.79684581219817     -0.28525339476634     -0.47225534003299
  C   -0.50718948832995      0.45825394696376     -0.72995042563316
  Cl  1.92577029599657     -0.06852388320818     -1.81836728120438
  H   -0.95019271824655      0.02367977732603     -1.62999374184572
  H   -0.24063146794919      1.49383238558549     -0.95390945481915
  N   1.43016701011581      0.33457696793831      0.78705619733030
  O   1.51315033817164     -0.38090104361428      1.77705418541748
  O   1.73103520845125      1.51430096794077      0.69750607125701
  C   0.58666230695894     -1.70863084110618     -0.23803907718298
  N   0.35141434055072     -2.85281879084379     -0.10908442397944
  C   -1.46851274748339      0.37680063636222      0.45076647987408
  H   -1.69892145679055     -0.65740093782915      0.71456278067236
  H   -1.06590414819497      0.87757348220405      1.33341950426046
  H   -2.40469328544851      0.87351072704728      0.19023452588611
