14
Coordinates from ORCA-job run
  C   0.72000849677143     -0.30477016880136     -0.43777919090164
  C   -0.80041303036121     -0.32925482199251     -0.27005834898822
  Cl  1.22170864694220      0.73909515088865     -1.76464613192176
  H   -1.21601007714043     -0.63991154038639     -1.23214158152852
  H   -1.02474380212804     -1.11244033262759      0.45925243875748
  N   1.29628436356294      0.21968979568076      0.89810459198315
  O   1.18576288943411     -0.57809899499333      1.82057048460107
  O   1.72020131678163      1.36038428895112      0.94793892912223
  C   1.25819230484013     -1.64477494648158     -0.64318440372576
  N   1.65011220276111     -2.73522862219532     -0.83885696803973
  C   -1.38217056536558      1.00538280103509      0.17832035406310
  H   -2.47165689969559      0.94223825583060      0.17584134184166
  H   -1.08808425343569      1.81884060584110     -0.48576392573424
  H   -1.06919159296700      1.25684852925076      1.19340241047117
