14
Coordinates from ORCA-job run
  C   0.70874347042621     -0.31627505955763     -0.44833186159195
  C   -0.80763609076117     -0.32930678348032     -0.24531992115056
  Cl  1.18537260572420      0.70056567580606     -1.80476381509839
  H   -1.24702743191641     -0.65560605482530     -1.19151333999315
  H   -1.01885032838745     -1.09758130497088      0.50350687683685
  N   1.31793254196608      0.22829722935256      0.86442095959489
  O   1.74857650080831      1.36739530408418      0.88433006530680
  O   1.22434482042013     -0.55229358081263      1.80326689594262
  C   1.23431010287200     -1.66312655894531     -0.64167077443855
  N   1.61554066233457     -2.75907979934561     -0.82730451642908
  C   -1.37263470435792      1.01639620738866      0.19117732182470
  H   -1.03234125142919      1.28701471181325      1.19241745488716
  H   -1.09329765711955      1.81524735253255     -0.49659461968758
  H   -2.46203324057980      0.95735266096043      0.21837927399623
