14
Coordinates from ORCA-job run
  C   0.80407300385884     -0.28289742841192     -0.46091640619802
  C   -0.49771632802069      0.45801871450639     -0.73680411277041
  Cl  1.95211845887881     -0.06199848843615     -1.79022047298610
  H   -0.92715521593062      0.02226606424218     -1.64282761187765
  H   -0.23049055070804      1.49426855970456     -0.95668080565185
  N   1.41725340107236      0.33644859942654      0.80814254983724
  O   1.48638516119364     -0.38000386095055      1.79858922903070
  O   1.71810670419876      1.51662283793529      0.72436404691919
  C   0.59367562582076     -1.70716944658263     -0.23202990318121
  N   0.36157913047848     -2.85281750917979     -0.11068735184352
  C   -1.47499184532438      0.37437943534938      0.43070486063427
  H   -1.70268638596034     -0.66028307810250      0.69508455731541
  H   -2.41056968754144      0.86423425296772      0.15542955223592
  H   -1.08758147201616      0.88093134753146      1.31685186853604
