14
Coordinates from ORCA-job run
  C   0.80218890829723     -0.30267048716911     -0.45260102332349
  C   -0.48264049812010      0.46146752378412     -0.74468242598681
  Cl  1.96396108533412     -0.11682311341966     -1.77518181835318
  H   -0.19294218526473      1.49046102920189     -0.97032056576467
  H   -0.91297146922805      0.02787422904459     -1.65133781210022
  N   1.41843256282157      0.31662049314560      0.81554932718992
  O   1.46430666831559     -0.39062981601591      1.81379502619136
  O   1.74483510346610      1.48926203096027      0.72207408994658
  C   0.56204942677530     -1.72009823319153     -0.21175277173110
  N   0.30391880683711     -2.85835794951459     -0.07445597562868
  C   -1.47128717309282      0.40545460235750      0.41471707261209
  H   -2.39066913979892      0.92086419931393      0.13164355927891
  H   -1.07794430300884      0.90112777509919      1.30439774351484
  H   -1.72923779333357     -0.62255228359627      0.67715557415449
