14
Coordinates from ORCA-job run
  C   0.70014728431538     -0.23041857406257     -0.27067138943101
  C   -0.41644888401285      0.65576798683187      0.26837556981023
  Cl  0.92719622414730     -0.00235427978081     -2.01466918972194
  H   -0.16039176920275      1.68262953849993     -0.00150230719547
  H   -0.37974821892770      0.57684146260114      1.36111887202202
  N   2.00701827993305      0.20069971740447      0.42377975980204
  O   2.33152709582963      1.36504818179865      0.25149165808491
  O   2.57051588613994     -0.63298708833327      1.12061564328917
  C   0.46683958003640     -1.64218254556929      0.00583146791401
  N   0.19891929808800     -2.76661641138533      0.21811253211793
  C   -1.79520851190824      0.26596910574809     -0.24715425549480
  H   -2.54326929557751      0.94202062296369      0.17060316984576
  H   -1.84789919774559      0.33682698781180     -1.33411354535880
  H   -2.05919777111504     -0.75124470452835      0.04818201431594
