14
Coordinates from ORCA-job run
  C   0.78601245207641     -0.28595299233025     -0.48975662677599
  C   -0.51458483980837      0.47407630288844     -0.71458578039934
  Cl  1.89479371344014     -0.05969169217690     -1.85087255126676
  H   -0.97690763384234      0.05704646247971     -1.61321774685053
  H   -0.24145023419905      1.51017523428264     -0.92799089365243
  N   1.44557458929917      0.30829010282628      0.76828445983906
  O   1.53344880241987     -0.42186919008973      1.74710522783447
  O   1.75812348242712      1.48588595001117      0.69138650262146
  C   0.56568374184919     -1.71073262414178     -0.27368022180444
  N   0.32392737920388     -2.85518348034704     -0.16015547917243
  C   -1.45660222575425      0.38480177526427      0.48104820187474
  H   -1.69004101997652     -0.65089821717092      0.73621435115769
  H   -1.03550166796423      0.87189340665420      1.36272318517703
  H   -2.39347653917101      0.89115896184992      0.24249737141741
