16

C	-0.47497	-0.036703	-1.439889
C	0.0	0.0	0.0
F	0.032028	1.094006	-2.073212
H	1.087658	0.0	0.0
H	-1.566428	0.029375	-1.504494
C	0.100876	-1.249322	-2.137642
H	-0.370941	-2.174235	-1.803445
H	1.16654	-1.283903	-1.910077
H	-0.055512	-1.142515	-3.21232
N	-0.519343	-1.211	0.690607
O	-1.653694	-1.154204	1.176419
O	0.191492	-2.213355	0.6869
N	-0.533367	1.156136	0.757353
O	-0.172943	1.240562	1.92857
O	-1.269136	1.960836	0.188519
F	2.506033	0.0	0.0
