16

C	-0.432298	-0.045843	-1.462746
C	0.0	0.0	0.0
F	-0.369767	1.280963	-1.912645
H	1.090602	0.0	0.0
H	-1.473632	-0.362445	-1.57097
C	0.551466	-0.865238	-2.268856
H	0.374743	-1.927625	-2.099512
H	1.557389	-0.611104	-1.920241
H	0.430391	-0.643941	-3.332537
N	-0.476841	-1.172969	0.755011
O	-0.824368	-2.172377	0.121908
O	-0.449983	-1.098988	1.981677
N	-0.616236	1.18682	0.650377
O	-1.849824	1.190848	0.716497
O	0.117437	2.08747	1.045822
F	2.533113	0.0	0.0
