16

C	-0.415914	0.096493	-1.456646
C	0.0	0.0	0.0
F	0.089607	1.285015	-1.971731
H	1.096687	0.0	0.0
H	-1.503953	0.133962	-1.574876
C	0.247221	-1.041326	-2.207105
H	0.162737	-0.861771	-3.281014
H	-0.212128	-2.004182	-1.975263
H	1.296935	-1.051914	-1.902372
N	-0.529412	-1.29042	0.523384
O	0.25784	-2.211932	0.716627
O	-1.755036	-1.364319	0.676383
N	-0.58049	1.041929	0.869601
O	-1.158786	2.000024	0.354424
O	-0.415387	0.88682	2.079934
F	2.514111	0.0	0.0
