16

C	-0.36742	0.058154	-1.463807
C	0.0	0.0	0.0
F	-1.713665	0.406276	-1.653805
H	1.09616	0.0	0.0
H	-0.252581	-0.955444	-1.848077
C	0.537946	1.015059	-2.204248
H	1.557173	0.827107	-1.856435
H	0.274738	2.044177	-1.962457
H	0.449363	0.865704	-3.283289
N	-0.515381	-1.192779	0.707945
O	-0.205624	-1.292634	1.891358
O	-1.189933	-2.016683	0.087167
N	-0.523134	1.196364	0.703994
O	-1.543785	1.089939	1.379776
O	0.090417	2.24388	0.521335
F	2.524165	0.0	0.0
