16

C	-0.35684	0.02446	-1.465683
C	0.0	0.0	0.0
F	-1.720604	0.284925	-1.666701
H	1.089478	0.0	0.0
H	-0.169507	-0.982204	-1.840945
C	0.49395	1.035031	-2.200917
H	1.522364	0.897433	-1.855874
H	0.175718	2.048603	-1.956598
H	0.412435	0.882902	-3.279602
N	-0.478481	-1.20544	0.716049
O	-0.290111	-1.225714	1.929687
O	-0.956602	-2.135779	0.063362
N	-0.551748	1.194519	0.680099
O	-1.610833	1.093942	1.297953
O	0.074098	2.241204	0.521623
F	2.520773	0.0	0.0
