15

C	0.0	0.0	0.0
C	-0.448587	0.04789	-1.525004
F	1.374016	0.0	0.0
H	0.172167	-0.647051	-2.102582
C	-0.394408	1.177334	0.801982
N	-0.714456	2.115259	1.436135
C	-0.377638	-1.28805	0.624969
N	-0.678311	-2.313398	1.118531
N	-0.28673	1.39987	-2.126391
O	-0.965922	1.641413	-3.125429
O	0.588957	2.12405	-1.666373
N	-1.956793	-0.355264	-2.016185
O	-2.969385	0.314051	-1.787187
O	-1.968633	-1.474953	-2.585663
F	-1.87628	0.0	0.0
