15

C	0.0	0.0	0.0
C	-0.483637	0.045352	-1.460546
F	1.368437	0.0	0.0
H	-1.531217	0.379473	-1.420282
C	-0.441884	1.203087	0.729563
N	-0.575744	2.177424	1.373134
C	-0.475546	-1.191931	0.71871
N	-0.569047	-2.149453	1.39497
N	-0.431617	-1.283229	-2.12571
O	0.427909	-2.081163	-1.75874
O	-1.236556	-1.452637	-3.037348
N	0.406001	0.957302	-2.252646
O	0.421154	2.121014	-1.867902
O	1.019769	0.504389	-3.213943
F	-2.388407	0.0	0.0
