15

C	0.0	0.0	0.0
C	-0.494261	0.058714	-1.453897
F	1.368399	0.0	0.0
H	-1.539343	-0.290298	-1.425237
C	-0.456837	1.135343	0.820785
N	-0.574043	2.04192	1.560357
C	-0.455291	-1.246469	0.6515
N	-0.63864	-2.243763	1.244744
N	0.405089	-0.780484	-2.312606
O	0.971806	-0.260751	-3.269405
O	0.476302	-1.959393	-1.984839
N	-0.466553	1.432742	-2.019233
O	0.393928	2.209074	-1.609576
O	-1.29111	1.662937	-2.899152
F	-2.397942	0.0	0.0
