14
Coordinates from ORCA-job run
  C   -0.24450892755147     -0.17138843929577     -0.02953752037586
  C   1.00330654444273     -0.28573322307004     -0.50816051732824
  H   1.34774453435840     -1.12097048662035     -1.10443999077408
  C   -1.24618902623491     -1.22591482048347     -0.40733602439178
  H   -0.83140597158801     -1.97604814016607     -1.08244042746181
  H   -1.61724309031027     -1.73060090569453      0.48997927754599
  H   -2.11029202205003     -0.76083984887536     -0.89204096463647
  C   -0.75531277354574      0.93921280022720      0.84441393411633
  H   -1.67391736551074      0.62489854327114      1.34364270457459
  H   -0.97712990822481      1.82319827690032      0.24036759212770
  H   -0.02544442512588      1.24928794419156      1.59053580336596
  N   2.08564205716185      0.64339576632333     -0.22742220923825
  O   1.81997817659854      1.78531312654991      0.14855201159239
  O   3.22277219758033      0.20418940674213     -0.40611366911648
