14
Coordinates from ORCA-job run
  C   -0.25753753316425     -0.09838394168867     -0.11710468493965
  C   1.02520729049327     -0.39888200684282     -0.36983327286534
  H   1.34331036678227     -1.09199717871005     -1.13811364960298
  C   -0.74766000678854      0.89287149681608      0.90009277537852
  H   -1.77760883489271      1.17640647879125      0.67497298805224
  H   -0.12666641016446      1.78625838433117      0.94232068225424
  H   -0.72358538461904      0.45014622466823      1.89962952877891
  C   -1.31964821411022     -0.82611866078711     -0.89207337552630
  H   -1.91965395743235     -0.11461128041172     -1.46769017172840
  H   -0.90524764225705     -1.56681030581722     -1.57778223912520
  H   -2.00136088349566     -1.33316688576113     -0.20202316429103
  N   2.16478367427358      0.22065961053248      0.28632771288978
  O   3.23731878218411      0.13039158292867     -0.31318932134201
  O   2.00834875319104      0.77323648195084      1.37546619206722
