14
Coordinates from ORCA-job run
  C   -0.24679240167961      0.17070849298396     -0.00264394936332
  C   1.06022616817160      0.47031390774192     -0.03590367633968
  H   1.44798724495877      1.47776103462982     -0.11657534132975
  C   -1.23235595104993      1.30497749888010      0.00220195699857
  H   -0.74704748042954      2.28220585476012      0.00855110844596
  H   -1.88176011802734      1.24326062234841     -0.87645164283378
  H   -1.87892129865791      1.23133907544758      0.88224903062319
  C   -0.83299301752757     -1.21164198155924      0.05652458636019
  H   -0.78480491646593     -1.59860395638667      1.07801213716587
  H   -0.29044410949779     -1.91937785815079     -0.56826919930177
  H   -1.88004446100673     -1.18374044696470     -0.25127528230683
  N   2.13353285577232     -0.51015304912333     -0.05358469402743
  O   3.21863487149599     -0.10252918772773     -0.47125481680325
  O   1.91478261394367     -1.65352000687943      0.34741978271204
