14
Coordinates from ORCA-job run
  C   -0.23352241230268      0.16076027728673      0.09853428365563
  C   1.00627152088880      0.50317546378792     -0.28206301423632
  H   1.38974889381785      1.51507308478635     -0.25375576654681
  C   -0.79408561022251     -1.23313289774475      0.12514467841902
  H   -1.67831163578913     -1.26470170857046      0.76465839474800
  H   -0.06787790199118     -1.96551450811945      0.47426679787546
  H   -1.08671945516427     -1.54196190754560     -0.88205408147686
  C   -1.17126503839378      1.25670434121831      0.51997051852347
  H   -1.48469286339728      1.10561304083392      1.55751085426264
  H   -2.07674405659671      1.22792291451323     -0.09419564908997
  H   -0.72383764486233      2.24800293435971      0.43235194905622
  N   2.03059990037545     -0.43649838871286     -0.70789313796984
  O   1.69901717560143     -1.55415386571675     -1.10391765962887
  O   3.18941912803634     -0.02228878037629     -0.64855816759179
