14
Coordinates from ORCA-job run
  C   -0.24469760494053      0.16940849291687      0.03719896735926
  C   1.05135270196424      0.47605784897602     -0.12227101402859
  H   1.44055416642828      1.48596440547219     -0.10184692180737
  C   -1.22668934079260      1.29822921595966      0.17628947525529
  H   -1.99759094211249      1.21744786013985     -0.59643873959017
  H   -1.73642046408686      1.23619312425012      1.14270172049727
  H   -0.75397870311654      2.27821889290420      0.09442827300831
  C   -0.82535251305495     -1.21614596878171      0.06912722225143
  H   -1.81637730132489     -1.19237207819238      0.52638362572254
  H   -0.19345392811187     -1.91868656660347      0.61027732687199
  H   -0.92417044954167     -1.60754190534534     -0.94704233391409
  N   2.12108930127974     -0.49848392477535     -0.25987318334892
  O   1.85221921028784     -1.64479115130950     -0.61988760678135
  O   3.25351586712229     -0.08349824561116     -0.00804681149561
