16

C	-0.507172	-0.031785	-1.426871
C	0.0	0.0	0.0
F	-1.914089	-0.283501	-1.3737
H	1.093817	0.0	0.0
H	-0.079703	-0.878238	-1.960047
N	-0.224187	1.168029	-2.113506
H	-0.713294	1.95206	-1.70393
H	-0.471112	1.089376	-3.089798
N	-0.396163	-1.300734	0.639534
O	-0.82149	-1.287042	1.794436
O	-0.235962	-2.321251	-0.026174
C	-0.500265	1.177173	0.808356
H	-0.158385	1.089018	1.837332
H	-1.590426	1.241992	0.80139
H	-0.062787	2.08908	0.397079
Br	3.506141	0.0	0.0
