16

C	-0.445706	-0.003016	-1.450847
C	0.0	0.0	0.0
F	-1.841113	-0.325748	-1.474806
H	1.091995	0.0	0.0
H	0.048805	-0.815598	-1.980291
N	-0.192196	1.226026	-2.092842
H	-0.731166	1.975371	-1.68275
H	-0.388683	1.167397	-3.081915
N	-0.439771	-1.317761	0.566565
O	-0.025247	-2.324254	-0.002823
O	-1.188513	-1.327171	1.545594
C	-0.543836	1.148207	0.816478
H	-0.079173	2.069603	0.460446
H	-0.263922	1.025136	1.861576
H	-1.631949	1.218424	0.752413
Br	3.50361	0.0	0.0
