16

C	-0.358555	0.075364	-1.480416
C	0.0	0.0	0.0
F	-1.731473	0.307317	-1.600941
H	1.092838	0.0	0.0
H	-0.147324	-0.885524	-1.94772
N	0.344798	1.098008	-2.19998
H	1.328343	0.839965	-2.21272
H	0.289907	1.973043	-1.692848
N	-0.442152	-1.316353	0.560452
O	-0.96146	-1.338226	1.675468
O	-0.23496	-2.318907	-0.120416
C	-0.524604	1.145037	0.837398
H	-0.136699	1.072718	1.85201
H	-0.170928	2.088813	0.416881
H	-1.614282	1.152721	0.8693
Br	3.472375	0.0	0.0
