16

C	-0.366084	0.066017	-1.477729
C	0.0	0.0	0.0
F	-1.741843	0.282775	-1.59267
H	1.092858	0.0	0.0
H	-0.145517	-0.89292	-1.945087
N	0.323498	1.096381	-2.203502
H	1.309227	0.845465	-2.217274
H	0.259612	1.97055	-1.693492
N	-0.437562	-1.312614	0.575853
O	-0.278951	-2.317686	-0.116255
O	-0.902115	-1.327448	1.716299
C	-0.522628	1.150183	0.832338
H	-1.612329	1.15296	0.873114
H	-0.178098	2.092559	0.401052
H	-0.125782	1.08892	1.844087
Br	3.465548	0.0	0.0
