16

C	-0.46649	0.06823	-1.446696
C	0.0	0.0	0.0
F	-0.167382	-1.178586	-2.038535
H	1.089889	0.0	0.0
H	0.163247	0.798249	-1.963262
N	-1.838593	0.408797	-1.612339
H	-2.402807	-0.273104	-1.119419
H	-2.071594	0.385698	-2.596458
N	-0.491942	-1.273152	0.610308
O	0.317289	-2.039102	1.115784
O	-1.716315	-1.4644	0.589931
C	-0.489429	1.165468	0.84065
H	-1.577397	1.1961	0.893688
H	-0.060272	1.094351	1.842581
H	-0.131497	2.094147	0.390591
Br	3.568439	0.0	0.0
