16

C	-0.457715	0.030634	-1.450252
C	0.0	0.0	0.0
F	-0.15363	-1.225885	-2.010795
H	1.090117	0.0	0.0
H	0.17642	0.747815	-1.976479
N	-1.823516	0.371383	-1.639391
H	-2.397508	-0.311644	-1.161686
H	-2.040514	0.362835	-2.627668
N	-0.499328	-1.241172	0.66208
O	-1.707346	-1.490028	0.54785
O	0.284216	-1.914869	1.318482
C	-0.483819	1.195423	0.802458
H	-0.119559	2.107107	0.324663
H	-0.057381	1.151837	1.807021
H	-1.572041	1.233921	0.850584
Br	3.569774	0.0	0.0
