16

C	-0.496097	0.000571	-1.449495
C	0.0	0.0	0.0
F	-0.168742	-1.235465	-1.986259
H	1.090221	0.0	0.0
H	0.083288	0.7583	-1.986186
N	-1.892676	0.225115	-1.681902
H	-2.098059	1.213775	-1.659097
H	-2.436834	-0.245897	-0.968985
N	-0.505049	-1.235854	0.663231
O	0.286221	-2.116692	0.97139
O	-1.730357	-1.299873	0.849376
C	-0.472678	1.217646	0.771642
H	-0.088184	2.11395	0.277812
H	-1.559744	1.269958	0.83468
H	-0.05301	1.198645	1.779135
Br	3.559415	0.0	0.0
