16
Coordinates from ORCA-job run
  C   -0.65581321182048      0.08899198676730     -0.11895778666212
  C   0.67224521690565     -0.07766670078591      0.13133228733906
  C   -1.27611590796114      0.89857707582768     -1.22168772504186
  H   -2.29804780057084      0.55382541150285     -1.39684636270334
  H   -1.29374371832031      1.95804205027615     -0.95918470130889
  H   -0.71376231102383      0.81745855591420     -2.14918710102899
  N   -1.56739053917372     -0.61368524027617      0.64508410783875
  H   -1.26043410415766     -0.93648295138320      1.54862268519280
  H   -2.50760319078656     -0.25376925352407      0.64330741700768
  N   1.65963145590277      0.58078441050179     -0.69729669522947
  O   1.33536166592289      1.60028218156594     -1.31588194481266
  O   2.79276977098418      0.09251884844665     -0.73349682480633
  C   1.17818705883927     -0.99857751073851      1.19823426993081
  H   0.78638632015769     -2.01219424870413      1.06497421004420
  H   0.88706218835326     -0.64838097705409      2.19552238245407
  H   2.26326710674883     -1.05172363833648      1.16346178178628
