16
Coordinates from ORCA-job run
  C   -0.64995798482884      0.36478656718264      0.07578537573814
  C   0.66801274835204     -0.00781496824727      0.15739579174596
  C   -1.65450147073032     -0.58364714810822     -0.52990419472426
  H   -1.80353793522831     -1.45151256742529      0.11671019574452
  H   -1.32984559638143     -0.94183929576587     -1.50704495769418
  H   -2.62252477783215     -0.09467508252836     -0.65213925732184
  N   -1.18603816347752      1.50369894845460      0.58809612842802
  H   -2.07603861878001      1.80030974172394      0.22721680816058
  H   -0.53677811861719      2.21233794474312      0.89584743915316
  N   1.66663533940359      0.90254012090986      0.64454511853670
  O   1.32778555067184      1.98988336919073      1.14729715382193
  O   2.84794015757634      0.55653931705390      0.53842416812025
  C   1.22164175845454     -1.30938661990412     -0.33522983500368
  H   1.83249714020745     -1.17268270981640     -1.23163830016035
  H   0.42512427095027     -2.01744757111442     -0.55773344339284
  H   1.86958570025971     -1.75409004634883      0.42237180884790
