16
Coordinates from ORCA-job run
  C   -0.62693230826627      0.24847903332194     -0.09575372227347
  C   0.64590192065910     -0.17988968144736      0.12960583350979
  C   -1.81262530590973      0.05409298109213      0.80605935646300
  H   -2.73649700049873      0.25983289931793      0.25989739998376
  H   -1.75510745673126      0.72646948280343      1.66288589269351
  H   -1.85362232433897     -0.95724005048623      1.20579290439410
  N   -0.88500977420007      1.00872673940123     -1.21922832079531
  H   -0.23023332672235      0.94805906988118     -1.98189515693756
  H   -1.84597102886886      1.04273574825834     -1.51546189348915
  N   0.95541675305445     -0.97570124851520      1.29581236312078
  O   0.23181850315262     -0.89500275546794      2.29420997694964
  O   1.95088195456406     -1.70369326184674      1.22831201919995
  C   1.76779684866346      0.05890970485806     -0.83316030331162
  H   2.72154096061100     -0.17665163013583     -0.36651420518163
  H   1.78742558224799      1.10856730515010     -1.14152666915184
  H   1.68421600258355     -0.56569433618504     -1.73003547517395
