16
Coordinates from ORCA-job run
  C   -0.67466991974406      0.07172269203271     -0.06375606853174
  C   0.67458985169005     -0.00533802627102      0.10487136864351
  C   -1.40073761226603      0.71095320492102     -1.21323200563596
  H   -1.35586559679647      1.79792848853479     -1.13643846735746
  H   -0.95294179772579      0.44764897845556     -2.16952215901079
  H   -2.44898024197975      0.40220759512918     -1.21255244155525
  N   -1.49929161169547     -0.40397710953569      0.93699474182159
  H   -2.44349440539930     -0.61682140030403      0.66173075109610
  H   -1.10835551154601     -1.07302498304959      1.58029516231203
  N   1.57071153278668      0.48297021546897     -0.91891042105819
  O   1.17578555112397      1.34761559066022     -1.70839467342391
  O   2.70706483571885     -0.00018993694186     -0.94514733381734
  C   1.31106162857824     -0.66493713157181      1.28918880061145
  H   0.84820932746012     -0.31112099965465      2.21535146628665
  H   2.37200220750626     -0.42865691410304      1.32679500460018
  H   1.22491176228871     -1.75698026377077      1.25172627501914
