16
Coordinates from ORCA-job run
  C   -0.63719688239321      0.39461579173427     -0.00079235580955
  C   0.67525414241612      0.01289098151573      0.12070460389830
  C   -1.63075343215146     -0.55085710968091     -0.62883796841256
  H   -1.42818287954870     -0.67089998950001     -1.69559091637583
  H   -1.59579675155872     -1.53664193529961     -0.16466009396813
  H   -2.64691005690590     -0.16517149827319     -0.52901007037825
  N   -1.13963587378898      1.61797982967241      0.31088585853922
  H   -2.13280183762230      1.69139376415355      0.44634742065561
  H   -0.53813378101286      2.23471964619594      0.83646167505427
  N   1.63304592797648      0.85098853239305      0.78656464581450
  O   1.31645077711627      2.00236193727663      1.13877762158944
  O   2.75639471873047      0.37746422283945      0.98722580448067
  C   1.22596757234841     -1.30972254255994     -0.31591723109567
  H   2.13682784214466     -1.16513686983537     -0.89990745391299
  H   0.51020857997569     -1.85098480028217     -0.93226733741340
  H   1.49626193427405     -1.93399996034982      0.54001579733436
