16
Coordinates from ORCA-job run
  C   -0.65463179148530      0.10073261417111     -0.15995808838960
  C   0.64746026789928     -0.17188019869989      0.13146337391711
  C   -1.17984278834871      0.73168845328606     -1.41827900052581
  H   -0.57443606198317      1.58180760032887     -1.72663024789023
  H   -2.21056793533157      1.06264543976924     -1.26918981438847
  H   -1.15706574500244      0.01731348043632     -2.24210979986949
  N   -1.63389155462425     -0.29621678233495      0.72936954063297
  H   -2.51831236472712      0.17664628673525      0.64735255630937
  H   -1.35459588843492     -0.46396720997886      1.68230790748911
  N   1.70026495877094      0.22477057386471     -0.77593858578871
  O   2.82667795070025      0.37884316353739     -0.29318970049168
  O   1.44001196116562      0.38750503288670     -1.97295826373490
  C   1.07937433517408     -0.80588461479015      1.41769147523622
  H   2.11696597946092     -1.12490908293368      1.35030027343723
  H   0.46391148695353     -1.68445890436539      1.63340587265300
  H   1.00867718981286     -0.11463585191273      2.26536250140388
