16
Coordinates from ORCA-job run
  C   -0.64391677033383      0.38205662323995      0.04451590183823
  C   0.68267475407239      0.03102376406987      0.05379193529645
  C   -1.67109947319522     -0.60740705547053     -0.44639207386076
  H   -1.57117723441194     -1.57132930882829      0.05296236284578
  H   -1.56594947104894     -0.77039376750365     -1.52147072042211
  H   -2.68170602175194     -0.23602119753020     -0.26768115614047
  N   -1.14197160248198      1.60780269999410      0.35435913780784
  H   -0.50697657924367      2.25610565960129      0.79586499041947
  H   -2.11884995823556      1.66687316952088      0.58321025260071
  N   1.68027630522229      0.91494150663105      0.58925902673770
  O   2.82912496805040      0.47307163511517      0.69578245839321
  O   1.37233495948013      2.07323583201932      0.92606054876754
  C   1.21993861585223     -1.29830629096606     -0.37907038382832
  H   2.06254551725572     -1.16170663302792     -1.05957413033243
  H   0.45944782411128     -1.88297510313477     -0.89379664394578
  H   1.59230416665864     -1.87597153373021      0.47117849382295
