16
Coordinates from ORCA-job run
  C   -0.62231193700799      0.41314212967164     -0.06036848453268
  C   0.67878682609628      0.00772195082152      0.10086749703943
  C   -1.66636208164263     -0.59004297302791     -0.48317790005181
  H   -1.49614650562300     -0.91338864177682     -1.51267152102958
  H   -1.65549646574805     -1.47396765853911      0.15491275426845
  H   -2.66460223011590     -0.15114854831159     -0.43728793347159
  N   -1.07180560514031      1.69189106676068      0.03316852245316
  H   -0.43401037609892      2.36944435874348      0.42373602000628
  H   -2.05764257822661      1.82889299359560      0.17252523245852
  N   1.68355925879671      0.91386791293515      0.58262719658849
  O   2.79438660243856      0.44027290794233      0.84383089027451
  O   1.41847396586969      2.12212530858837      0.72368620565430
  C   1.16907267824588     -1.39380346369640     -0.09544165009073
  H   0.41781019909661     -2.00944194199724     -0.58720573104975
  H   2.06834030555976     -1.39536885814694     -0.71430120896213
  H   1.43994794349992     -1.86119654356276      0.85510011044512
