16
Coordinates from ORCA-job run
  C   -0.64717851323176      0.13856453153513     -0.11864937367309
  C   0.66376575853427     -0.13070169483018      0.13077738389117
  C   -1.20179692044547      1.02614044390958     -1.19589222050698
  H   -2.24092612438507      0.75242548992996     -1.39412078788475
  H   -1.15754707742094      2.07394665275914     -0.89258743761077
  H   -0.63500166787406      0.94547113388534     -2.12061258702574
  N   -1.61134659679699     -0.52306984235442      0.61839493011771
  H   -1.33238194502097     -0.88712012814288      1.51547183988845
  H   -2.52233366772043     -0.09427574628221      0.62502118229373
  N   1.70107443992481      0.48785358969077     -0.66793525984556
  O   1.45395153603592      1.55149397112343     -1.24630133631635
  O   2.79649860235535     -0.07854655310816     -0.72036107080780
  C   1.09708754302646     -1.12197987541020      1.16609472744943
  H   0.62041181960982     -2.09434172848392      1.00556010520384
  H   2.17363731289521     -1.26452232438771      1.12028595315405
  H   0.84208550051385     -0.77933791983370      2.17585395167264
