16
Coordinates from ORCA-job run
  C   -0.64422196039616      0.34833565471510      0.10658897873913
  C   0.68853022688038      0.04947383096159      0.00541438319649
  C   -1.65774425164544     -0.55495935878689     -0.55140553063164
  H   -1.39463765849653     -1.60476566461422     -0.44148145724854
  H   -2.64438384224648     -0.41661147326041     -0.10435867070556
  H   -1.73882802709287     -0.33577859945765     -1.61996937462520
  N   -1.15231954388679      1.54599627755380      0.55845166249201
  H   -2.15033604428133      1.56226682566215      0.68829686712199
  H   -0.62348072008613      2.00456171818672      1.28363158781728
  N   1.67504249534926      0.93995008845014      0.60122091413975
  O   1.34572244154201      1.67990421202985      1.53555743853623
  O   2.83839293331918      0.82160513383095      0.21296318462202
  C   1.25053074076647     -1.25754344452901     -0.47420288762164
  H   0.60348575816822     -1.72118487531308     -1.21731619673190
  H   1.38031513757150     -1.95983946767156      0.35553018825671
  H   2.22293231453471     -1.10141085775748     -0.93792108735714
