16
Coordinates from ORCA-job run
  C   -0.64422726866949      0.20440915091687     -0.07785214405284
  C   0.65401695709663     -0.15319549541401      0.12603957476605
  C   -1.15738372962054      1.18664488737104     -1.09200988471910
  H   -0.67410159287110      1.05850876137889     -2.05842599158627
  H   -2.23712228599349      1.06967101927067     -1.21343878715498
  H   -0.95035197024723      2.20870608320477     -0.77223749453782
  N   -1.61454152586509     -0.30670891563607      0.76151633722715
  H   -2.55559147371854     -0.28756033116958      0.40563476192367
  H   -1.39327240765965     -1.14863388347519      1.26798127871944
  N   1.70171303415523      0.37380405532940     -0.71903437648284
  O   2.74121968396523     -0.28754456354717     -0.80286538935618
  O   1.52181531700096      1.44424212552981     -1.30959689217951
  C   1.06768433468000     -1.14769067365618      1.16659627222514
  H   0.62702846863977     -0.89108071902308      2.13485376545921
  H   2.14984044235058     -1.15340779549284      1.27320223969482
  H   0.76327401675674     -2.16816370558734      0.90663673005404
