16
Coordinates from ORCA-job run
  C   -0.65180969897819      0.35604095810810      0.09772705680862
  C   0.67406682725270      0.00319467581644      0.12967898553404
  C   -1.66426171836513     -0.60628944032011     -0.47165704412712
  H   -1.77633398478810     -1.47711283557886      0.17839716322832
  H   -2.64313567156690     -0.13107078929710     -0.55661515295517
  H   -1.37195712112945     -0.95810652025792     -1.46120061920687
  N   -1.18378693738047      1.48693592550720      0.62959877320770
  H   -0.53430815641902      2.20337629864008      0.91794524420562
  H   -2.09654205125361      1.76625306312163      0.31552265201233
  N   1.67581534921154      0.92493554065104      0.58658546317843
  O   1.33976078658391      2.00899782043903      1.09838812639708
  O   2.85737420921874      0.59251600939386      0.44506638916842
  C   1.22804447075932     -1.29061045413528     -0.38278177635469
  H   0.43355260295378     -2.00541959154523     -0.59020864820032
  H   1.81564635087855     -1.14313449202603     -1.29289433892461
  H   1.89887474302231     -1.73250616851685      0.35644772602824
