13

C	-0.124389	0.13279	-0.017501
C	-0.413738	-0.051998	-1.528849
Br	1.407018	-0.934467	0.59151
H	0.446686	0.29863	-2.113466
H	-1.095143	-0.200798	0.4706
C	0.163876	1.529574	0.24392
N	0.378893	2.672131	0.425408
N	-1.61968	0.654266	-1.920888
H	-1.448049	1.649824	-1.823718
H	-2.308378	0.358413	-1.193492
C	-0.579099	-1.483288	-1.829939
N	-0.67613	-2.614522	-2.126447
F	-2.640731	-0.416457	0.245253
