11

C	-0.547887	-0.003736	-1.413854
C	0.0	0.0	0.0
Cl	-0.427292	-1.653484	-2.094178
H	1.087776	0.0	0.0
H	-1.598989	0.282669	-1.445297
H	0.034226	0.656805	-2.051958
H	-0.374719	-0.825924	0.601658
N	-0.424102	1.243234	0.694872
O	-0.52954	1.205878	1.917252
O	-0.615329	2.24595	0.00485
Cl	3.33457	0.0	0.0
