11

C	-0.58658	0.051313	-1.388597
C	0.0	0.0	0.0
Cl	-0.071774	-1.342501	-2.370881
H	1.087578	0.0	0.0
H	-0.225535	0.947515	-1.889707
H	-1.673307	0.03888	-1.35922
H	-0.358657	0.867762	0.563863
N	-0.532954	-1.185313	0.731962
O	-1.736122	-1.42542	0.593824
O	0.233674	-1.823271	1.442053
Cl	3.369423	0.0	0.0
