17

C	0.0	0.0	0.0
C	-0.384955	0.082678	-1.512608
Br	2.069182	0.0	0.0
H	-1.480287	-0.01847	-1.431366
N	-0.472243	1.158739	0.666552
H	-0.302682	1.951025	0.056787
H	-1.498174	0.984031	0.661663
N	-0.467454	-1.150389	0.676799
H	-1.495661	-0.99067	0.652192
H	-0.275327	-1.972044	0.117746
N	0.117989	-1.113501	-2.310315
O	0.925608	-0.91072	-3.219408
O	-0.314704	-2.228925	-2.014979
N	0.00599	1.311889	-2.115787
H	1.00491	1.305215	-2.284274
H	-0.468019	1.429389	-3.001236
F	-2.794768	0.0	0.0
