17

C	0.0	0.0	0.0
C	-0.278021	-0.081665	-1.561503
Br	2.071816	0.0	0.0
H	0.610555	-0.438949	-2.08019
N	-0.511659	1.210935	0.530687
H	-1.535596	1.098016	0.376223
H	-0.354504	1.178687	1.533745
N	-0.435387	-1.144448	0.728037
H	-0.22355	-1.983001	0.19794
H	-1.460626	-1.02176	0.712528
N	-0.374297	1.366034	-2.096319
O	-1.490241	1.841102	-2.285944
O	0.687142	1.936829	-2.342476
N	-1.39654	-0.883844	-1.864119
H	-2.204362	-0.566091	-1.283013
H	-1.600441	-0.835912	-2.853637
F	-2.895927	0.0	0.0
