17

C	0.0	0.0	0.0
C	-0.22931	-0.174744	-1.560522
Br	1.968021	0.0	0.0
H	0.4338	0.545171	-2.037226
N	-0.443333	1.298447	0.421584
H	-0.203134	1.402113	1.404254
H	-1.47452	1.164609	0.356718
N	-0.490135	-1.160156	0.687066
H	-0.262686	-1.058261	1.672288
H	-1.522407	-0.980573	0.575021
N	-1.580015	0.238528	-2.123605
O	-2.327122	-0.634181	-2.539206
O	-1.753943	1.44625	-2.253242
N	0.030497	-1.502748	-2.058683
H	0.908471	-1.800715	-1.649613
H	-0.685471	-2.103846	-1.664789
F	-2.708361	0.0	0.0
