17

C	-0.547535	-0.115685	-1.409133
C	0.0	0.0	0.0
Br	0.343648	-1.533627	-2.418395
H	1.093006	0.0	0.0
N	-1.939141	-0.341078	-1.470767
H	-2.291046	-0.231308	-2.412519
H	-2.416156	0.30692	-0.858885
N	-0.146536	1.212233	-2.131925
O	-1.0779	1.983313	-2.373774
O	1.03289	1.427986	-2.349011
C	-0.485146	-1.110068	0.79654
N	-0.867085	-1.975845	1.496059
C	-0.340462	1.3397	0.666864
H	0.193451	2.140223	0.151643
H	0.055003	1.302934	1.68353
H	-1.409264	1.581872	0.715953
F	2.511478	0.0	0.0
