17

C	-0.522617	0.025822	-1.424893
C	0.0	0.0	0.0
Br	0.464007	-1.388206	-2.483094
H	1.092088	0.0	0.0
N	-1.919023	-0.088699	-1.537806
H	-2.214878	-0.078508	-2.505161
H	-2.233607	-0.931391	-1.072537
N	-0.119765	1.304165	-2.16453
O	0.885006	1.890156	-1.794343
O	-0.833648	1.625183	-3.115595
C	-0.492258	-1.222351	0.607969
N	-0.937674	-2.188872	1.111211
C	-0.471411	1.210799	0.815366
H	-1.559721	1.31856	0.82472
H	-0.011807	2.114408	0.415764
H	-0.109805	1.090417	1.838775
F	2.520498	0.0	0.0
