17

C	-0.033316	-0.015183	-1.538288
C	0.0	0.0	0.0
Br	-0.319071	2.034305	-2.268411
H	1.098414	0.0	0.0
N	1.094709	-0.583003	-1.995632
H	1.184681	-0.693635	-2.993702
H	1.944236	-0.390651	-1.372726
N	-1.283886	-0.58862	-2.192582
O	-1.149182	-1.107208	-3.296966
O	-2.333644	-0.494511	-1.567688
C	-0.448075	-1.301527	0.474864
N	-0.807788	-2.335554	0.903613
C	-0.630444	1.142258	0.77439
H	-0.095262	2.066332	0.56618
H	-1.684126	1.268609	0.52055
H	-0.544242	0.926856	1.842528
F	2.674529	0.0	0.0
