17

C	-0.552812	-0.013791	-1.411043
C	0.0	0.0	0.0
Br	0.312421	-1.38111	-2.50652
H	1.093037	0.0	0.0
N	-1.949632	-0.215195	-1.481659
H	-2.416616	0.42709	-0.853134
H	-2.294999	-0.068471	-2.421776
N	-0.134239	1.352626	-2.04694
O	-1.051275	2.161083	-2.20849
O	1.043279	1.556264	-2.279249
C	-0.485229	-1.161692	0.719696
N	-0.86505	-2.066967	1.368113
C	-0.336823	1.289058	0.761903
H	0.076355	1.184083	1.766382
H	0.18254	2.128782	0.294529
H	-1.406936	1.518941	0.845336
F	2.51108	0.0	0.0
