18
Coordinates from ORCA-job run
  C   -0.67703702616593     -0.20757482722031      0.25054701540797
  C   0.68958205175173      0.36154177449171     -0.16594507999780
  F   -0.61556994990639     -1.60348134357913      0.04071865620833
  H   0.62843162572687      1.44788117184544     -0.09661101096335
  C   -1.83321383260699      0.30748408382826     -0.57841361947410
  H   -1.73005942933370      0.00180935151123     -1.61778507826660
  H   -1.88869986996561      1.39496577448898     -0.53023160709992
  H   -2.76153169838850     -0.11865867327514     -0.19040008998327
  N   -0.87394370662453      0.09654747293429      1.62630464279343
  H   -1.81807322934080     -0.13915905160704      1.90567062437257
  H   -0.23120028941129     -0.42890026976435      2.20556372136803
  N   0.89653377517751      0.08176592388851     -1.62504260655784
  O   1.43407414534193     -0.97704044350274     -1.93729857473885
  O   0.48728729884831      0.93588892097994     -2.41253876835468
  C   1.85258610066842     -0.19251166476976      0.63329589061062
  H   1.82394496888882     -1.28070489502110      0.64927178744542
  H   1.81872395673270      0.19903158932472      1.65117512742127
  H   2.79916510860744      0.11911510544650      0.18971896980876
