14

C	-0.456597	-0.044536	-1.444971
C	0.0	0.0	0.0
Br	0.319264	1.577323	-2.363587
H	1.09459	0.0	0.0
H	0.041043	-0.871248	-1.943842
N	-1.864038	-0.130939	-1.579713
H	-2.314682	0.675576	-1.163832
H	-2.138345	-0.198092	-2.551776
N	-0.362943	-1.286121	0.65253
O	-0.700489	-1.269763	1.835565
O	-0.221363	-2.305459	-0.019509
C	-0.586904	1.10553	0.723226
N	-1.08001	2.011912	1.287532
F	2.450141	0.0	0.0
