14

C	-0.250495	-0.007749	-1.517877
C	0.0	0.0	0.0
Br	0.096608	-1.822299	-2.205437
H	1.090476	0.0	0.0
H	-1.285453	0.201367	-1.794162
N	0.673466	0.899621	-2.143029
H	1.571882	0.780984	-1.654555
H	0.341974	1.849066	-2.002169
N	-0.649871	-1.104762	0.75951
O	-1.778601	-1.445099	0.399113
O	-0.044213	-1.569181	1.71905
C	-0.501353	1.249987	0.542166
N	-0.9171	2.275282	0.942965
F	2.530826	0.0	0.0
