14

C	-0.187292	-0.128798	-1.524909
C	0.0	0.0	0.0
Br	-0.186541	-2.170516	-2.022138
H	1.104229	0.0	0.0
H	-1.173309	0.134403	-1.905178
N	0.866388	0.577532	-2.075165
H	1.750728	0.397625	-1.558804
H	0.933427	0.53797	-3.079982
N	-0.663341	-1.081803	0.774968
O	0.046831	-1.868464	1.391349
O	-1.895887	-1.106624	0.739848
C	-0.539952	1.275934	0.433582
N	-0.960272	2.31631	0.784703
F	2.578397	0.0	0.0
