13

C	-0.571645	0.047316	-1.411665
C	0.0	0.0	0.0
Cl	-0.220161	-1.440519	-2.313825
H	1.090495	0.0	0.0
H	-1.659156	0.159316	-1.375794
H	-0.126179	0.877475	-1.952811
N	-0.487505	-1.07597	0.781105
H	-1.408119	-0.879374	1.148824
H	0.146753	-1.252541	1.545606
N	-0.397573	1.3717	0.579911
O	0.047717	2.367714	0.020583
O	-1.168809	1.394467	1.540327
Cl	3.329622	0.0	0.0
