13

C	-0.526745	0.070328	-1.433618
C	0.0	0.0	0.0
Cl	-0.296522	-1.481472	-2.283236
H	1.089502	0.0	0.0
H	-1.599026	0.283348	-1.442393
H	0.008473	0.832587	-1.990208
N	-0.473291	-1.069584	0.799404
H	-1.284249	-1.534037	0.41801
H	0.271729	-1.734124	0.959768
N	-0.413905	1.346661	0.60864
O	-0.168905	2.340374	-0.079308
O	-0.947727	1.374414	1.708969
Cl	3.314567	0.0	0.0
