13

C	-0.589346	-0.071878	-1.385638
C	0.0	0.0	0.0
Cl	0.080611	1.14078	-2.498614
H	1.095751	0.0	0.0
H	-0.339747	-1.048681	-1.800478
H	-1.669194	0.053955	-1.341484
N	-0.532657	-1.120478	0.78789
H	-0.085245	-1.054976	1.698211
H	-0.152309	-1.965281	0.370893
N	-0.469597	1.223926	0.73131
O	-1.279378	1.977611	0.194412
O	-0.024994	1.366505	1.866605
Cl	3.382755	0.0	0.0
