13

C	-0.583971	-0.079071	-1.38889
C	0.0	0.0	0.0
Cl	0.074841	1.136165	-2.505041
H	1.095626	0.0	0.0
H	-0.320409	-1.054449	-1.797452
H	-1.66486	0.031666	-1.351084
N	-0.538759	-1.116385	0.788354
H	-0.092228	-1.049999	1.700952
H	-0.161871	-1.964152	0.373616
N	-0.473065	1.224038	0.729855
O	-0.02738	1.368971	1.866653
O	-1.287551	1.97387	0.191237
Cl	3.376045	0.0	0.0
