13

C	-0.603759	-0.043895	-1.390838
C	0.0	0.0	0.0
Cl	-0.382182	1.456274	-2.324464
H	1.089682	0.0	0.0
H	-1.676007	-0.230376	-1.318019
H	-0.113608	-0.853068	-1.92801
N	-0.440214	-1.176127	0.694024
H	-1.375844	-1.040833	1.056743
H	0.201758	-1.379568	1.449615
N	-0.505886	1.261243	0.681258
O	-1.694557	1.244005	1.02495
O	0.253581	2.20939	0.8283
Cl	3.374508	0.0	0.0
