13

C	-0.443394	-0.016676	-1.439527
C	0.0	0.0	0.0
Cl	-2.236423	-0.003856	-1.587576
H	1.093856	0.0	0.0
H	-0.06344	0.851235	-1.970252
H	-0.086945	-0.940065	-1.890061
N	-0.479748	-1.103535	0.749471
H	-1.460219	-0.995202	0.975425
H	0.047515	-1.185647	1.608061
N	-0.400461	1.355841	0.595612
O	-0.961814	1.361704	1.692121
O	-0.119051	2.358292	-0.053756
Cl	3.317633	0.0	0.0
