18

C	0.0	0.0	0.0
C	-0.263685	-0.066146	-1.556951
Br	1.967703	0.0	0.0
H	0.454638	0.618742	-2.006674
C	-0.382605	1.351479	0.418358
N	-0.608961	2.455078	0.754434
C	-0.659218	-1.029499	0.885032
H	-0.400737	-0.824953	1.927379
H	-0.349359	-2.036703	0.615797
H	-1.749895	-0.858622	0.706689
C	-1.647741	0.225168	-2.10614
H	-1.641358	-0.037484	-3.169395
H	-2.440809	-0.240117	-1.500315
H	-1.824981	1.297572	-2.014179
N	0.169675	-1.398721	-2.097619
O	1.026022	-1.388447	-2.985072
O	-0.39641	-2.408986	-1.687223
F	-3.141117	0.0	0.0
