18

C	0.0	0.0	0.0
C	-0.428266	0.149189	-1.493054
Br	1.971253	0.0	0.0
H	0.433993	-0.133038	-2.106684
C	-0.414936	1.146016	0.807761
N	-0.557647	2.082861	1.504505
C	-0.348193	-1.297151	0.74911
H	0.111809	-2.152838	0.260909
H	0.044212	-1.20709	1.765748
H	-1.435062	-1.349296	0.745393
C	-0.884025	1.552502	-1.825745
H	-1.048623	1.65643	-2.898226
H	-0.1256	2.273465	-1.510907
H	-1.815693	1.706744	-1.282774
N	-1.453298	-0.855422	-1.967735
O	-1.206921	-2.038457	-1.743813
O	-2.339001	-0.46637	-2.716478
F	-2.481224	0.0	0.0
