18

C	0.0	0.0	0.0
C	-0.424569	0.1488	-1.492785
Br	1.971924	0.0	0.0
H	0.432447	-0.152346	-2.104478
C	-0.416842	1.141817	0.811815
N	-0.557547	2.074742	1.514159
C	-0.341559	-1.302844	0.74297
H	-1.42731	-1.362893	0.74223
H	0.053674	-1.218018	1.759247
H	0.121694	-2.153059	0.248534
C	-0.849879	1.560373	-1.830123
H	-0.074598	2.264396	-1.516642
H	-1.777523	1.740461	-1.28908
H	-1.011948	1.665036	-2.9026
N	-1.468493	-0.83713	-1.966712
O	-1.247164	-2.023596	-1.737487
O	-2.338567	-0.434392	-2.727029
F	-2.469121	0.0	0.0
