18

C	0.0	0.0	0.0
C	-0.597462	0.041564	-1.410076
Br	1.965636	0.0	0.0
H	-1.682826	0.240139	-1.140977
C	-0.373561	1.177768	0.795764
N	-0.523132	2.066816	1.550036
C	-0.48052	-1.243772	0.74974
H	-0.14003	-1.195258	1.785923
H	-1.576953	-1.169392	0.679815
H	-0.079494	-2.146359	0.285959
C	-0.456067	-1.245347	-2.188788
H	-1.112768	-1.988476	-1.734566
H	0.573236	-1.614697	-2.21531
H	-0.786597	-1.090076	-3.216666
N	-0.026934	1.195009	-2.163733
O	-0.250119	2.321914	-1.717008
O	0.630963	0.973003	-3.184077
F	-2.823062	0.0	0.0
