18

C	0.0	0.0	0.0
C	-0.26433	-0.023376	-1.558019
Br	1.967652	0.0	0.0
H	0.457605	0.669099	-1.98958
C	-0.383481	1.338857	0.455087
N	-0.609889	2.432091	0.822763
C	-0.65845	-1.054265	0.855679
H	-0.397223	-0.88151	1.902972
H	-1.74901	-0.877923	0.685052
H	-0.350708	-2.053666	0.556174
C	-1.646599	0.289354	-2.098828
H	-1.640043	0.058834	-3.170553
H	-2.442626	-0.191229	-1.506581
H	-1.82073	1.36078	-1.974971
N	0.162439	-1.343876	-2.133402
O	-0.417902	-2.360269	-1.759012
O	1.029959	-1.316816	-3.009464
F	-3.139625	0.0	0.0
