18

C	0.0	0.0	0.0
C	-0.264671	0.030649	-1.556473
Br	1.967718	0.0	0.0
H	0.453517	0.74221	-1.963968
C	-0.383703	1.322469	0.501372
N	-0.608561	2.403173	0.905399
C	-0.6604	-1.082466	0.818841
H	-0.400107	-0.946262	1.871497
H	-0.354751	-2.071204	0.48404
H	-1.750791	-0.898727	0.654126
C	-1.649137	0.357609	-2.08284
H	-1.645091	0.168389	-3.162735
H	-1.825268	1.42368	-1.919341
H	-2.44499	-0.144645	-1.507191
N	0.167828	-1.265796	-2.180566
O	1.026768	-1.200138	-3.0632
O	-0.400083	-2.300049	-1.836507
F	-3.148545	0.0	0.0
