18

C	0.0	0.0	0.0
C	-0.265344	-0.24749	-1.53773
Br	1.967633	0.0	0.0
H	0.45679	0.374371	-2.066164
C	-0.384302	1.389862	0.258823
N	-0.610127	2.524621	0.466523
C	-0.65758	-0.921242	0.998636
H	-0.347939	-1.952714	0.846603
H	-1.748563	-0.773537	0.805024
H	-0.397444	-0.598587	2.010243
C	-1.648753	-0.01399	-2.114601
H	-1.821275	1.064276	-2.143925
H	-1.644227	-0.395178	-3.142402
H	-2.444588	-0.40431	-1.458523
N	0.159206	-1.638233	-1.916129
O	-0.425043	-2.588591	-1.400838
O	1.029454	-1.739897	-2.784111
F	-3.145533	0.0	0.0
