18

C	-0.505607	0.029918	-1.449659
C	0.0	0.0	0.0
F	-0.229339	-1.279181	-1.919123
H	1.087627	0.0	0.0
N	-1.889074	0.332357	-1.522169
H	-2.422082	-0.385664	-1.048325
H	-2.178655	0.400833	-2.489353
C	0.324237	0.961059	-2.30539
H	0.069603	0.769287	-3.352541
H	1.384143	0.757874	-2.143839
H	0.114209	1.999403	-2.058539
N	-0.494454	-1.183465	0.766373
O	0.223711	-1.570348	1.680932
O	-1.588824	-1.665595	0.468776
N	-0.475901	1.208019	0.741519
O	-1.288919	1.054747	1.650018
O	-0.010506	2.276894	0.367696
Cl	3.252472	0.0	0.0
