18

C	-0.476541	-0.154561	-1.449099
C	0.0	0.0	0.0
F	-1.83642	-0.570391	-1.416796
H	1.089289	0.0	0.0
N	-0.316136	1.071448	-2.133063
H	-0.979671	1.759973	-1.810513
H	-0.384191	0.935713	-3.131471
C	0.317631	-1.243509	-2.140937
H	0.095691	-2.214026	-1.703406
H	0.031375	-1.260633	-3.196889
H	1.384546	-1.040515	-2.03685
N	-0.497038	-1.14885	0.824959
O	-1.457523	-0.956516	1.565375
O	0.083103	-2.216811	0.664902
N	-0.478226	1.223799	0.711047
O	-1.398131	1.888819	0.230841
O	0.081901	1.457093	1.776386
Cl	3.24491	0.0	0.0
