18

C	-0.528058	0.007328	-1.440092
C	0.0	0.0	0.0
F	0.080307	-1.062834	-2.078515
H	1.087876	0.0	0.0
N	-1.93925	-0.274511	-1.468662
H	-2.428198	0.442857	-0.948514
H	-2.255334	-0.260465	-2.43123
C	-0.047521	1.252402	-2.166745
H	1.030752	1.364197	-2.030475
H	-0.566283	2.140383	-1.808102
H	-0.259035	1.120513	-3.231351
N	-0.504396	-1.208243	0.728085
O	-1.39057	-1.045951	1.565057
O	-0.005296	-2.273735	0.401135
N	-0.449769	1.178369	0.802504
O	0.210761	1.424822	1.804633
O	-1.452721	1.80498	0.444819
Cl	3.228643	0.0	0.0
