18

C	-0.34894	0.014842	-1.501665
C	0.0	0.0	0.0
F	-1.68582	0.356025	-1.667311
H	1.103335	0.0	0.0
N	0.440246	0.96522	-2.234471
H	1.416447	0.68784	-2.158166
H	0.359582	1.866518	-1.781798
C	-0.110854	-1.371059	-2.068934
H	-0.232402	-1.307542	-3.149523
H	0.903632	-1.701955	-1.835863
H	-0.830443	-2.082874	-1.665045
N	-0.552131	-1.197149	0.688702
O	0.244848	-1.980957	1.195099
O	-1.774589	-1.33179	0.662646
N	-0.474299	1.190727	0.759811
O	-0.462573	2.270928	0.177703
O	-0.791982	1.023484	1.93241
Cl	3.20362	0.0	0.0
