18

C	-0.519412	-0.032376	-1.440517
C	0.0	0.0	0.0
F	-1.9295	0.144066	-1.402558
H	1.089994	0.0	0.0
N	0.111358	0.961785	-2.216609
H	0.003083	1.877522	-1.810279
H	-0.241622	0.943792	-3.162738
C	-0.256759	-1.399632	-2.040636
H	0.793696	-1.660243	-1.906632
H	-0.488791	-1.36366	-3.107917
H	-0.893165	-2.152841	-1.576394
N	-0.510682	-1.198427	0.730332
O	0.285094	-2.116948	0.909261
O	-1.699313	-1.203332	1.045795
N	-0.429105	1.199578	0.789876
O	-0.46614	1.074218	2.007323
O	-0.636832	2.245155	0.177954
Cl	3.218074	0.0	0.0
