18

C	-0.374477	-0.020663	-1.497527
C	0.0	0.0	0.0
F	-1.703839	0.356939	-1.639655
H	1.088918	0.0	0.0
N	0.424835	0.888559	-2.270062
H	0.330291	1.814257	-1.865554
H	1.402123	0.622902	-2.153394
C	-0.20512	-1.427949	-2.033391
H	0.800733	-1.797978	-1.820921
H	-0.359485	-1.384621	-3.111719
H	-0.942404	-2.098212	-1.590395
N	-0.567692	-1.171827	0.714509
O	0.212867	-2.04582	1.078098
O	-1.79279	-1.209251	0.825029
N	-0.44223	1.224939	0.729976
O	-0.436366	2.282744	0.105061
O	-0.708779	1.108567	1.921707
Cl	3.212722	0.0	0.0
