18

C	-0.327685	0.028868	-1.49124
C	0.0	0.0	0.0
F	-1.683331	0.112522	-1.761533
H	1.104965	0.0	0.0
N	0.289208	1.244539	-1.961066
H	0.178921	1.299961	-2.967221
H	1.285169	1.214495	-1.745082
C	0.175446	-1.248895	-2.142897
H	0.05219	-1.147318	-3.224318
H	1.231022	-1.395033	-1.905369
H	-0.398195	-2.116554	-1.810622
N	-0.535257	-1.219536	0.662634
O	0.251096	-2.142646	0.852994
O	-1.736637	-1.230673	0.931991
N	-0.511167	1.180553	0.757721
O	0.237108	1.610355	1.634971
O	-1.630694	1.610746	0.495049
Cl	3.273977	0.0	0.0
