14

C	-0.549619	-0.044127	-1.419482
C	0.0	0.0	0.0
Br	-2.472608	0.133189	-1.469027
H	1.094931	0.0	0.0
H	-0.301129	-1.014884	-1.845612
N	0.121053	0.954113	-2.357473
O	1.256205	0.614368	-2.666035
O	-0.486941	1.943515	-2.733909
C	-0.473833	-1.163442	0.734852
N	-0.835173	-2.141445	1.276095
N	-0.396007	1.262952	0.70629
O	-0.820304	1.180617	1.853647
O	-0.207818	2.293806	0.070658
Br	3.284871	0.0	0.0
