14

C	-0.580908	-0.053093	-1.405242
C	0.0	0.0	0.0
Br	-2.512286	0.003205	-1.396856
H	1.095261	0.0	0.0
H	-0.284019	-0.999122	-1.855996
N	-0.002782	1.004901	-2.339239
O	1.164097	0.780567	-2.633909
O	-0.704686	1.924292	-2.728659
C	-0.443222	-1.170204	0.745634
N	-0.774183	-2.153852	1.295926
N	-0.398603	1.254686	0.72038
O	-0.293901	2.28801	0.068696
O	-0.735166	1.165616	1.89584
Br	3.280926	0.0	0.0
