14

C	-0.467043	-0.002357	-1.438991
C	0.0	0.0	0.0
Br	0.385607	-1.376457	-2.468214
H	1.092872	0.0	0.0
H	-0.248328	0.964226	-1.894479
N	-1.983282	-0.137368	-1.493775
O	-2.552869	0.818857	-0.98632
O	-2.50671	-1.15636	-1.929225
C	-0.514991	-1.122792	0.748103
N	-0.910614	-2.087564	1.294042
N	-0.391464	1.306304	0.640333
O	-1.060332	1.285716	1.669131
O	0.103549	2.300097	0.111597
Br	2.738922	0.0	0.0
