18

C	0.0	0.0	0.0
C	-0.340145	-0.38148	-1.498798
Cl	1.772229	0.0	0.0
H	0.584976	-0.118658	-2.013252
N	-0.362485	1.435297	0.389136
O	-0.196473	2.278465	-0.48203
O	-0.672277	1.638025	1.55286
C	-0.47351	-0.914334	1.029854
N	-0.612774	-1.738566	1.857152
C	-1.435262	0.308995	-2.321559
H	-1.620172	1.33399	-2.017696
H	-2.378603	-0.219192	-2.265368
H	-1.06921	0.3164	-3.357584
C	-0.504911	-1.898268	-1.573013
H	-1.436438	-2.181871	-1.078245
H	0.328256	-2.43582	-1.110984
H	-0.561965	-2.197011	-2.623581
Cl	-3.275921	0.0	0.0
