11
Coordinates from ORCA-job run
  C   0.31215497624048     -0.35043057247470      0.47758856594418
  C   -0.60280539140461      0.21858728624620     -0.59887972804617
  Cl  -0.45586519487390     -0.35518251302573      2.05371447255967
  H   -0.03457252943324      0.31824245046656     -1.53051721170661
  H   0.68562000778468     -1.34620340571642      0.24959175022116
  H   -0.93310742559756      1.21014850614570     -0.28253051320867
  N   1.54333701833519      0.53537966706117      0.48378749075294
  O   2.57400255234898     -0.00522405020379      0.11520270593843
  O   1.39804307416729      1.70516492636975      0.81360262658900
  C   -1.76548423336051     -0.63095422315956     -0.82597975850958
  N   -2.72032285420680     -1.30052807170917     -0.95458040053435
