11
Coordinates from ORCA-job run
  C   0.35316667155626     -0.38822005295126      0.67261069351870
  C   -0.56048711258115     -0.70662763985813     -0.50488943927517
  Cl  -0.54101613724895     -0.05612663216279      2.13699175698296
  H   0.05982821095519     -0.96727259889939     -1.36596581844367
  H   1.04395001400613     -1.21099544707932      0.85179276530191
  H   -1.17811854144460     -1.57040431046974     -0.24818395366551
  N   1.23734839578802      0.78299035563719      0.26633758545734
  O   1.07322504409505      1.87627602536280      0.78095261334146
  O   2.04234212732021      0.48703064992329     -0.61188807262254
  C   -1.42151437448198      0.42312689874217     -0.84648035691539
  N   -2.10872429796419      1.33022275175519     -1.13127777368009
