11
Coordinates from ORCA-job run
  C   0.45694063952443     -0.29193853398466      0.33866123530224
  C   -0.75528763476055      0.14035812868787     -0.47090400380652
  Cl  0.01350243704446     -0.77453243599992      1.97226965676148
  H   -1.28686657058461      0.92396908384729      0.07187855080026
  H   1.01393580947289     -1.10394297966188     -0.12399776823407
  H   -0.41809777457062      0.55869197187685     -1.42497489790045
  N   1.41729476252612      0.87017192065365      0.41715520215804
  O   0.93983980202950      1.96372641437464      0.69687260377389
  O   2.59568860262899      0.61572622789380      0.19080084908867
  C   -1.63831171203458     -0.99281119032628     -0.72732028317444
  N   -2.33863836127602     -1.90941860736137     -0.94044114476909
