15
Coordinates from ORCA-job run
  C   0.79487448552697      0.37494175519714      0.06431336854963
  C   -0.60624282828709     -0.23877021091740      0.22496476494661
  Br  1.42416933906039      0.98529280212160      1.81671836182961
  H   -0.52726810975713     -1.07310713025654      0.93235116473687
  H   0.72174308823313      1.28276649680654     -0.54013061252180
  C   1.81591567532542     -0.58515718199205     -0.51933118938204
  H   2.79763459459027     -0.11312537574668     -0.57391990382990
  H   1.89924835718325     -1.48125441937353      0.10009289857079
  H   1.51714845500868     -0.88134109042258     -1.52822427772228
  C   -1.01613338619886     -0.79103766237545     -1.07136041903927
  N   -1.34913348088634     -1.20565740821404     -2.11855632204113
  C   -1.67007965882001      0.74889523684624      0.71444411503720
  H   -1.73314325390261      1.60475545912570      0.03847743829211
  H   -2.64821991104699      0.26609868104966      0.74792773819787
  H   -1.42351336602909      1.10670004815138      1.71323287437574
