16

C	-0.051997	0.016669	-0.025169
C	-0.391763	-0.047822	-1.506045
Cl	1.749518	0.112584	0.150433
H	0.139563	-0.884973	-1.970184
H	-0.445348	0.947319	0.383335
C	-0.58653	-1.182359	0.724983
H	-1.68089	-1.105466	0.734308
H	-0.266855	-2.112917	0.246446
H	-0.219344	-1.176226	1.753895
N	0.256553	1.16232	-2.202017
O	0.085416	2.269434	-1.703147
O	0.849799	0.948163	-3.260758
N	-1.77979	-0.013025	-1.767195
H	-2.421748	0.052914	-0.915713
H	-2.068592	-0.806379	-2.321665
H	-3.452939	-0.011859	0.237598
