16

C	-0.063184	0.016155	-0.025785
C	-0.402715	0.101544	-1.505584
Cl	1.738192	0.117935	0.159172
H	0.138873	-0.675416	-2.053822
H	-0.469063	0.892319	0.479301
C	-0.58045	-1.262263	0.592975
H	-0.251895	-2.133171	0.017762
H	-1.675291	-1.194922	0.612782
H	-0.210826	-1.361153	1.616262
N	0.227089	1.386083	-2.071845
O	0.035476	2.433412	-1.463372
O	0.827564	1.290782	-3.143626
N	-1.789635	0.140022	-1.770874
H	-2.072746	-0.626678	-2.363879
H	-2.434151	0.165059	-0.92174
H	-3.416301	-0.027377	0.278371
