16

C	-0.129846	-0.000565	0.022301
C	-0.464312	0.077441	-1.455923
Cl	1.637527	0.343149	0.216499
H	0.287768	-0.441805	-2.060429
H	-0.662662	0.795275	0.540745
C	-0.469432	-1.346848	0.620787
H	-0.033	-2.161316	0.03719
H	-1.556546	-1.434413	0.626096
H	-0.096168	-1.401875	1.646358
N	-0.262039	1.542183	-1.937804
O	-0.034775	1.662983	-3.146001
O	-0.417171	2.478102	-1.160389
N	-1.771408	-0.389596	-1.692501
H	-2.057301	-0.224585	-2.650472
H	-2.474506	0.000316	-0.982846
H	-3.338013	0.440189	0.201722
