16

C	-0.069418	0.015697	-0.021639
C	-0.398291	-0.067754	-1.504003
Cl	1.728962	0.159991	0.16304
H	0.15624	-0.894144	-1.959062
H	-0.489645	0.93735	0.380255
C	-0.576725	-1.192502	0.731785
H	-0.232393	-2.117674	0.259759
H	-1.672469	-1.137813	0.735875
H	-0.215195	-1.172006	1.762514
N	0.220932	1.153637	-2.205021
O	0.83223	0.947626	-3.254873
O	0.011239	2.259517	-1.718256
N	-1.783573	-0.076081	-1.781156
H	-2.43451	0.036021	-0.944286
H	-2.053293	-0.909177	-2.284044
H	-3.426395	-0.038891	0.262731
