16

C	-0.467338	-0.025853	-1.445613
C	0.0	0.0	0.0
Cl	-2.258554	-0.129488	-1.578043
H	1.09501	0.0	0.0
N	-0.050019	1.270234	-2.138085
O	0.775799	1.967481	-1.561573
O	-0.509956	1.470315	-3.257084
C	0.191956	-1.151039	-2.208826
H	-0.144229	-2.107569	-1.808784
H	1.275948	-1.058252	-2.058256
H	-0.072455	-1.081054	-3.264487
C	-0.401612	-1.23116	0.660359
N	-0.687729	-2.254173	1.165112
C	-0.481241	1.152933	0.743699
N	-0.8162	2.094075	1.36449
H	2.490296	0.0	0.0
