16

C	-0.502724	-0.005751	-1.445191
C	0.0	0.0	0.0
Cl	0.260696	1.349737	-2.316213
H	1.094236	0.0	0.0
N	-0.030237	-1.289056	-2.135903
O	0.6931	-2.049955	-1.505722
O	-0.427499	-1.454358	-3.286869
C	-2.005529	0.074968	-1.607204
H	-2.268139	0.097569	-2.664322
H	-2.366481	0.981457	-1.120073
H	-2.468802	-0.794678	-1.133035
C	-0.514037	-1.132697	0.748261
N	-0.911306	-2.048268	1.372839
C	-0.423824	1.229784	0.648872
N	-0.720187	2.236095	1.182271
H	2.468557	0.0	0.0
