16

C	-0.313441	0.017434	-1.48811
C	0.0	0.0	0.0
Cl	-2.078975	0.100249	-1.839939
H	1.095033	0.0	0.0
N	0.267689	1.296789	-2.107816
O	0.398708	1.297655	-3.327538
O	0.532599	2.226839	-1.358611
C	0.323527	-1.166552	-2.170298
H	0.197969	-1.092056	-3.248275
H	1.386788	-1.151676	-1.897126
H	-0.13259	-2.087364	-1.807546
C	-0.416536	-1.267847	0.57391
N	-0.702973	-2.311044	1.036563
C	-0.551867	1.086386	0.78844
N	-0.984567	1.923355	1.492738
H	2.490294	0.0	0.0
