16

C	-0.320717	0.247382	-1.465338
C	0.0	0.0	0.0
Cl	0.138347	-1.190093	-2.409343
H	1.106593	0.0	0.0
N	-1.833173	0.422128	-1.71526
O	-2.605404	0.009862	-0.856713
O	-2.156511	0.956824	-2.772046
C	0.423557	1.458842	-1.968918
H	1.474292	1.310719	-1.69059
H	0.042669	2.357504	-1.477179
H	0.307241	1.559379	-3.045988
C	-0.466821	-1.262071	0.538677
N	-0.74602	-2.306872	1.000852
C	-0.426582	1.123752	0.810794
N	-0.70775	2.069628	1.451802
H	2.480994	0.0	0.0
