16

C	-0.360075	-0.127207	-1.470362
C	0.0	0.0	0.0
Cl	-2.14054	-0.191631	-1.751281
H	1.099359	0.0	0.0
N	0.122164	1.117931	-2.222806
O	0.571705	2.048941	-1.567051
O	0.03	1.076812	-3.445931
C	0.32983	-1.322511	-2.080074
H	1.398847	-1.22213	-1.849077
H	0.157419	-1.345359	-3.154683
H	-0.050625	-2.237215	-1.625414
C	-0.394434	-1.211163	0.700473
N	-0.646627	-2.209455	1.269896
C	-0.55095	1.155149	0.684744
N	-0.985192	2.058668	1.299934
H	2.489778	0.0	0.0
