16

C	-0.341208	-0.003361	-1.479269
C	0.0	0.0	0.0
Cl	-2.118432	-0.00935	-1.79397
H	1.10741	0.0	0.0
N	0.171544	1.290823	-2.12282
O	0.560027	2.18661	-1.384444
O	0.153012	1.327472	-3.349184
C	0.336215	-1.159937	-2.171591
H	1.402979	-1.097765	-1.917941
H	0.183274	-1.094434	-3.247139
H	-0.068502	-2.10012	-1.797043
C	-0.394837	-1.264988	0.594335
N	-0.646825	-2.306149	1.081215
C	-0.549048	1.09277	0.779627
N	-0.973435	1.941506	1.474996
H	2.474243	0.0	0.0
