16

C	-0.308606	-0.096436	-1.488997
C	0.0	0.0	0.0
Cl	-2.065966	-0.070983	-1.864296
H	1.106401	0.0	0.0
N	0.282662	1.156616	-2.140592
O	-0.237899	2.22788	-1.85016
O	1.255627	1.004562	-2.872304
C	0.341147	-1.32624	-2.071852
H	-0.151612	-2.211699	-1.670604
H	1.394103	-1.313486	-1.769598
H	0.258222	-1.324474	-3.158482
C	-0.41857	-1.209043	0.680299
N	-0.698662	-2.212328	1.229
C	-0.511361	1.164028	0.692996
N	-0.868514	2.08102	1.338651
H	2.456728	0.0	0.0
