16

C	-0.465707	0.054239	-1.460852
C	0.0	0.0	0.0
Cl	0.059825	1.589189	-2.162538
H	1.107658	0.0	0.0
N	0.188682	-1.097633	-2.247217
O	0.165563	-2.182218	-1.677422
O	0.56305	-0.89506	-3.393135
C	-1.962076	-0.11381	-1.651723
H	-2.274933	-1.074011	-1.236564
H	-2.213149	-0.067401	-2.714788
H	-2.479247	0.690671	-1.12711
C	-0.483397	-1.153046	0.737776
N	-0.829029	-2.05746	1.407799
C	-0.431389	1.19547	0.700287
N	-0.722954	2.170512	1.292174
H	2.453187	0.0	0.0
