16

C	-0.38965	-0.089347	-1.463209
C	0.0	0.0	0.0
Cl	-2.174152	0.018517	-1.722287
H	1.107271	0.0	0.0
N	0.172278	1.127097	-2.210637
O	0.429881	0.975471	-3.400222
O	0.276379	2.173248	-1.585105
C	0.161225	-1.345988	-2.084982
H	-0.04853	-1.364584	-3.151911
H	-0.291251	-2.214072	-1.606381
H	1.241906	-1.349669	-1.901808
C	-0.388182	-1.218773	0.688443
N	-0.630602	-2.221773	1.254412
C	-0.505308	1.138232	0.746655
N	-0.875727	2.015824	1.436993
H	2.468686	0.0	0.0
