16

C	-0.398051	0.113186	-1.462699
C	0.0	0.0	0.0
Cl	-2.182346	0.156278	-1.707445
H	1.106667	0.0	0.0
N	0.140744	1.459294	-1.962436
O	1.143886	1.422638	-2.667994
O	-0.438586	2.47116	-1.582823
C	0.210809	-1.008067	-2.264802
H	1.280238	-1.041236	-2.036584
H	0.053716	-0.842836	-3.330891
H	-0.259828	-1.946833	-1.971797
C	-0.389102	-1.291161	0.531178
N	-0.629811	-2.360845	0.95864
C	-0.476791	1.064752	0.861013
N	-0.795961	1.913348	1.610593
H	2.451772	0.0	0.0
