16

C	-0.363903	-0.188692	-1.467599
C	0.0	0.0	0.0
Cl	-2.138581	-0.323594	-1.746018
H	1.106801	0.0	0.0
N	0.095143	1.074101	-2.204172
O	-0.571908	2.090872	-2.045362
O	1.125019	0.983002	-2.864838
C	0.350093	-1.392269	-2.027298
H	0.221693	-1.445443	-3.108486
H	1.41014	-1.297586	-1.76893
H	-0.061118	-2.292209	-1.568761
C	-0.39941	-1.161644	0.76878
N	-0.655463	-2.122692	1.397917
C	-0.489766	1.213372	0.622054
N	-0.810231	2.192908	1.189885
H	2.457697	0.0	0.0
