15

C	-0.406964	0.07508	-1.452587
C	0.0	0.0	0.0
F	-1.724114	0.648695	-1.576549
H	1.095453	0.0	0.0
H	0.250019	0.788473	-1.956048
N	-0.353535	-1.17374	-2.116279
H	-0.671008	-1.07569	-3.071436
H	-0.932997	-1.852428	-1.637793
C	-0.558071	-1.170951	0.644459
N	-1.008026	-2.132263	1.153852
C	-0.352135	1.280177	0.75865
H	-1.42662	1.466065	0.828151
H	0.07966	1.227497	1.760426
H	0.124896	2.120305	0.246823
F	2.565127	0.0	0.0
