15

C	-0.403774	-0.100444	-1.459104
C	0.0	0.0	0.0
F	0.052555	1.071675	-2.108367
H	1.095137	0.0	0.0
H	0.13806	-0.920851	-1.935318
N	-1.807578	-0.263043	-1.674921
H	-2.306392	0.489614	-1.216675
H	-2.006445	-0.216178	-2.667158
C	-0.47843	-1.161717	0.726428
N	-0.849993	-2.086028	1.352274
C	-0.443898	1.299331	0.671057
H	-1.531236	1.406972	0.775105
H	-0.048884	2.136107	0.094399
H	-0.00095	1.344009	1.667832
F	2.579416	0.0	0.0
