15

C	-0.214067	0.040945	-1.524329
C	0.0	0.0	0.0
F	-0.295088	-1.275093	-1.991516
H	1.094851	0.0	0.0
H	-1.161971	0.521546	-1.810643
N	0.893995	0.680042	-2.171942
H	1.730569	0.503978	-1.59068
H	0.74089	1.677696	-2.220468
C	-0.622535	-1.127566	0.65741
N	-1.154942	-2.007182	1.228534
C	-0.419517	1.323877	0.636509
H	0.132953	2.132842	0.154018
H	-1.494471	1.518448	0.5466
H	-0.149081	1.334187	1.694281
F	2.647957	0.0	0.0
