15

C	-0.411041	0.089995	-1.450411
C	0.0	0.0	0.0
F	-1.731405	0.656109	-1.563401
H	1.095085	0.0	0.0
H	0.240185	0.812897	-1.947525
N	-0.350726	-1.150138	-2.130383
H	-0.68406	-1.042802	-3.078725
H	-0.913129	-1.843602	-1.652241
C	-0.562178	-1.174942	0.632994
N	-1.033506	-2.137522	1.119994
C	-0.347549	1.274046	0.771275
H	0.134633	2.11629	0.268241
H	0.083367	1.209253	1.772531
H	-1.420913	1.464301	0.842168
F	2.565784	0.0	0.0
