15

C	-0.22687	0.228579	-1.510012
C	0.0	0.0	0.0
F	-0.551602	-1.001679	-2.115736
H	1.097683	0.0	0.0
H	-1.09484	0.873703	-1.707334
N	0.951492	0.760999	-2.097101
H	1.772306	0.588746	-1.490319
H	0.859367	1.728567	-2.359844
C	-0.622393	-1.192279	0.529886
N	-1.160492	-2.127956	0.996965
C	-0.406538	1.246724	0.784761
H	0.125932	2.104128	0.364669
H	-0.102884	1.152866	1.829576
H	-1.485618	1.439135	0.745702
F	2.663173	0.0	0.0
