14

C	-0.508038	-0.001966	-1.443223
C	0.0	0.0	0.0
Br	0.133697	1.565436	-2.447584
H	1.095676	0.0	0.0
H	-1.597474	0.088824	-1.482071
C	-0.126099	-1.199161	-2.187533
N	0.103431	-2.165557	-2.815561
C	-0.487502	-1.215154	0.632417
N	-0.891616	-2.19296	1.148703
C	-0.443805	1.23056	0.7866
H	-1.529555	1.378222	0.770685
H	-0.116405	1.119637	1.822386
H	0.051107	2.113688	0.379652
H	2.671995	0.0	0.0
