14

C	-0.33879	0.00421	-1.475936
C	0.0	0.0	0.0
Br	-2.280197	-0.172109	-1.869889
H	1.098238	0.0	0.0
H	0.119971	-0.862256	-1.957542
C	0.117573	1.21827	-2.143046
N	0.455963	2.194866	-2.702801
C	-0.454174	-1.232033	0.616336
N	-0.795793	-2.228648	1.140001
C	-0.459176	1.231125	0.76762
H	-1.547803	1.328214	0.79902
H	-0.026345	2.12284	0.307983
H	-0.074275	1.17048	1.788196
H	2.635544	0.0	0.0
