14

C	-0.33973	0.004071	-1.475662
C	0.0	0.0	0.0
Br	-2.281793	-0.169709	-1.868026
H	1.098265	0.0	0.0
H	0.117313	-0.863284	-1.957294
C	0.117802	1.217183	-2.14369
N	0.456611	2.193353	-2.703902
C	-0.45396	-1.232083	0.616472
N	-0.79563	-2.228791	1.139923
C	-0.458772	1.231051	0.767985
H	-1.547444	1.326316	0.802987
H	-0.070194	1.171886	1.787267
H	-0.02904	2.123142	0.306175
H	2.63547	0.0	0.0
