14

C	-0.365171	0.060379	-1.478855
C	0.0	0.0	0.0
Br	0.051531	-1.607825	-2.41652
H	1.095497	0.0	0.0
H	0.291668	0.811306	-1.935336
C	-1.764057	0.388648	-1.731721
N	-2.891217	0.675847	-1.914023
C	-0.57174	-1.146651	0.674139
N	-1.046739	-2.057593	1.248477
C	-0.373739	1.308704	0.69962
H	-0.003934	1.271244	1.726815
H	-1.448911	1.503926	0.711277
H	0.145677	2.131631	0.20054
H	2.652017	0.0	0.0
