15
Coordinates from ORCA-job run
  C   -0.71285008769907      0.07454143512877      0.14305479389231
  C   0.58308500497517      0.43609042566356     -0.61934618704019
  F   -1.53689981916544      1.20791790025595     -0.14117555102642
  H   0.33957293033623      0.65476720580736     -1.66035211364165
  N   -1.26613357902135     -1.11818216172773     -0.36212793977315
  H   -2.20527255570437     -1.25050060099685     -0.00757334961296
  H   -1.28152468817655     -1.13907349632452     -1.37253703913487
  N   -0.47395910042034     -0.02793518729935      1.52736073473378
  H   -1.12247228674351     -0.64532321183425      1.99231238349969
  H   -0.43851020852895      0.87606482710690      1.97765469731897
  N   1.50262950160023     -0.75741675479661     -0.64854283415234
  O   2.28454584324209     -0.90187868651017      0.27982018221630
  O   1.35457638549970     -1.49779603442911     -1.61694814282862
  C   1.24004182449224      1.57542999259215      0.00227847949969
  N   1.73417083531393      2.51429434736389      0.50412188604948
