15
Coordinates from ORCA-job run
  C   -0.66287022184361     -0.26599289045539     -0.03686743160774
  C   0.68336937957506      0.29818898135044     -0.53961120775476
  F   -0.67034528338403     -1.58855007354563     -0.55938386383353
  H   0.63359927384655      0.36115303262284     -1.62671786309506
  N   -0.76247981137601     -0.23353240044362      1.36373349327107
  H   0.07905657716808     -0.57450149992198      1.80985534436610
  H   -1.56256398556198     -0.77124839938463      1.67305850834863
  N   -1.70523714625562      0.48273625819395     -0.64616630523753
  H   -2.45197718141432      0.69054125422369     -0.00041028379550
  H   -2.05006495020517      0.03141364265161     -1.48153237438227
  N   1.81260809669910     -0.65635835811718     -0.23923777751017
  O   2.38132599802880     -1.15632794429269     -1.20087140901137
  O   2.05815883265966     -0.86607380532884      0.94601568908326
  C   0.97712761465905      1.59894920312731      0.04365306720213
  N   1.23829280740443      2.65160299932014      0.49248241395675
