15
Coordinates from ORCA-job run
  C   -0.73012623541029      0.06602787164216      0.08387269862435
  C   0.61007171606291      0.42465989999740     -0.59802793460016
  F   -1.50262929888198      1.24041586829755     -0.17078099243121
  H   0.40887156718314      0.61936963916541     -1.65199190627883
  N   -1.31106982630579     -1.04741637220611     -0.56394344478655
  H   -1.83187685270916     -0.77679731189520     -1.38601096723578
  H   -1.87591446523431     -1.60447675953657      0.05984345551367
  N   -0.57453126157825     -0.17712967001209      1.45899532191440
  H   -1.47633356774706     -0.19837253648095      1.91866918233851
  H   0.01681058156317      0.50731308980341      1.91078208975077
  N   1.54202228375114     -0.75823239167317     -0.55637547098457
  O   1.60857414286441     -1.42477841799675     -1.58168654028525
  O   2.13714056417971     -0.95544860794821      0.49628226040156
  C   1.24605176977957      1.57639250049623      0.02734848418354
  N   1.73193888248279      2.50647319834692      0.55402376387553
