15
Coordinates from ORCA-job run
  C   -0.57939930459833     -0.03886064124137      0.29428567242696
  C   0.70595031033464      0.10439397071849     -0.55434775034180
  F   -0.52842692999080      0.92434170421217      1.29393662975223
  H   0.68335756142961     -0.63992543957755     -1.35088864219184
  N   -1.68956075796821      0.15543303247338     -0.57490920093769
  H   -2.55205156878173     -0.03860852452540     -0.08051064953961
  H   -1.72169133376457      1.10556946139871     -0.92899208867683
  N   -0.56180330687330     -1.29773106385666      0.96617958812011
  H   -1.17208409404286     -1.26960148796036      1.77249354909479
  H   -0.83349043480573     -2.04728438066598      0.34416747909391
  N   1.90877389788361     -0.22116881844598      0.29091520088109
  O   2.37946836806953     -1.34096785794232      0.13087525324554
  O   2.28305529593625      0.63508681295442      1.08118824631743
  C   0.82235476604804      1.44797942677457     -1.10384124292632
  N   0.85354753112388      2.52034380568392     -1.58055204431796
