15
Coordinates from ORCA-job run
  C   -0.53496347966315     -0.13852270605579      0.37777403381368
  C   0.53529657158355      0.40181743236215     -0.60187141999943
  F   0.21781351454240     -0.83389206821556      1.36408658865729
  H   0.02979488005333      0.72047974584576     -1.51542866502369
  N   -1.20595821284876      0.96559004543556      0.95515273492453
  H   -0.69698442726654      1.33840382511357      1.74548362568937
  H   -2.15656929265800      0.73920595342126      1.20999202304311
  N   -1.44817825556882     -0.98706102350214     -0.28399834810650
  H   -2.01150265659348     -1.47996838118986      0.39893139238396
  H   -0.96574363016267     -1.66036521283864     -0.86496912606279
  N   1.48397406523657     -0.70908608898738     -0.99331162742532
  O   0.99441641514355     -1.58029869989877     -1.70945853125455
  O   2.63020262629526     -0.67735059860312     -0.57138744319769
  C   1.28258058436893      1.49824984031744     -0.00299305199350
  N   1.84482129753782      2.40179793679554      0.49199781455153
