15
Coordinates from ORCA-job run
  C   -0.73259846362883      0.19298436121232      0.12106255463211
  C   0.59855206858297      0.44741539357862     -0.62023973392366
  F   -1.51617056800833      1.30781744374420     -0.20062340616833
  H   0.38380806987215      0.62347928539844     -1.67576824607651
  N   -1.29606010741686     -1.00734419122699     -0.38922663163415
  H   -1.54514251419860     -0.92723742941862     -1.36844182115724
  H   -2.11051081273777     -1.28029669022275      0.14519675081599
  N   -0.55431483247611      0.22884163720631      1.52929441374287
  H   -1.44749977307602      0.23822895940529      2.00442948578148
  H   0.01846151405082     -0.54077269528938      1.84671683536648
  N   1.43769003884176     -0.80233723910771     -0.57220894452419
  O   1.60583749585754     -1.38827620475977     -1.63439415529312
  O   1.86069784432845     -1.14044142933358      0.52798934032906
  C   1.33969025302862      1.56730862921193     -0.05900217103873
  N   1.95655978698019      2.48063016960169      0.34421572914793
