15
Coordinates from ORCA-job run
  C   -0.55851819632975     -0.15267831413693      0.29706527273084
  C   0.70965957357833      0.40639442902477     -0.39465673997763
  F   -0.14360127998673     -0.79321701257850      1.45970045027139
  H   0.40401283839730      0.93039945904359     -1.30055722487108
  N   -1.42340261790938      0.94252517400199      0.56053428079210
  H   -0.99549582233912      1.61561956437053      1.18700909709491
  H   -2.28355981082133      0.60687768086451      0.97757283989407
  N   -1.14351807724962     -1.16371672850959     -0.52524528202970
  H   -1.53153405741468     -1.90038642239732      0.04690595082679
  H   -1.84213794469172     -0.77754807393057     -1.14428358271664
  N   1.58213409651039     -0.73355109025444     -0.84775005008699
  O   2.21328658226300     -1.32784898246416      0.01673439289154
  O   1.56184059094143     -0.97402821742897     -2.04863322119322
  C   1.45403621071166      1.28829413438221      0.49375709862906
  N   1.99479791434019      2.03486440001285      1.22084671774456
