15
Coordinates from ORCA-job run
  C   -0.80567382911003      0.12169369008468      0.03773781350609
  C   0.61128415571510      0.49552732012531     -0.50430955572809
  F   -1.52378524735198      1.30376787901981     -0.20175708075633
  H   0.53399360371573      0.82473046041313     -1.54179928316472
  N   -1.27022827176642     -0.99489904339665     -0.67689947962263
  H   -1.30694921293712     -0.84086936517552     -1.67557220795580
  H   -2.17173116658191     -1.28245635193077     -0.31978696917888
  N   -0.92373873263959     -0.13615259105956      1.42681722574747
  H   -0.69064046119994      0.68414711415719      1.97134137544492
  H   -0.33451725163184     -0.91163995382868      1.69942768297672
  N   1.46349104751018     -0.74135927491174     -0.51207431820806
  O   1.70238285386862     -1.23110741319771     -1.60940105553681
  O   1.81215271471091     -1.17677556949936      0.58033366294852
  C   1.22496861785691      1.52207118182935      0.32248307197825
  N   1.67799117984134      2.36432191737051      1.00345911754940
