15
Coordinates from ORCA-job run
  C   -0.78715899140234      0.14902204190611      0.12088851820950
  C   0.58092956135846      0.41848699342919     -0.58750410472391
  F   -1.45495150166039      1.36971067481717     -0.07314228377082
  H   0.39680818886219      0.56257004668152     -1.65353872229853
  N   -1.62181906519406     -0.84150032420133     -0.45933347551795
  H   -1.88430972127155     -0.59167866174427     -1.40315716049477
  H   -1.17305898654991     -1.74697583935256     -0.45426151206814
  N   -0.55156306241078     -0.18266198838901      1.46299890734382
  H   -0.01846898041756      0.51780534626704      1.96135501794900
  H   -1.42626909253590     -0.37626436783671      1.93227300611470
  N   1.43919921464844     -0.81187222728617     -0.45945809353985
  O   2.33538769366303     -0.81020371519444      0.37317587381601
  O   1.12396787022719     -1.74236430224464     -1.19703715622073
  C   1.26396334435726      1.57116462883962     -0.01937261054629
  N   1.77534352832593      2.51576169430846      0.45511379574795
