15
Coordinates from ORCA-job run
  C   -0.69338516517869     -0.34143643776053     -0.05069167149403
  C   0.64596242925127      0.29606644515608     -0.53726975117221
  F   -0.64953849280402     -1.62636407742179     -0.60618737484734
  H   0.61884187737525      0.44990223869180     -1.61752494971233
  N   -0.86899216276018     -0.50446718314954      1.34604246855623
  H   -0.93754307478646      0.39399049950681      1.80577401426545
  H   -0.11339593994998     -1.04114338722437      1.75069010013507
  N   -1.74132470472360      0.45855885196290     -0.54988271747327
  H   -1.76536660980838      0.46675112784774     -1.56096314498956
  H   -2.62370903339307      0.12202433113251     -0.18364387471702
  N   1.77276169754202     -0.67414316660313     -0.30039577332510
  O   2.03635557484546     -0.93322650074249      0.87003380717258
  O   2.31120931102083     -1.14371420586927     -1.29456456791332
  C   0.90894892483358      1.53843892661774      0.17034569235039
  N   1.10017536853595      2.53776253785554      0.75623774316449
