15
Coordinates from ORCA-job run
  C   -0.67034835557431     -0.24874188320736      0.02041361779101
  C   0.65379363905743      0.24895643252848     -0.59792519339874
  F   -0.74549901739096     -1.59636647278631     -0.42737741909210
  H   0.53420652706798      0.25505921386555     -1.68136355784481
  N   -0.67694816430717     -0.13891236002305      1.42037215261504
  H   -1.46917404300977     -0.63399123883006      1.81036841828234
  H   0.18302011327347     -0.47956580400765      1.83010420948792
  N   -1.73127968219835      0.49608386560887     -0.56161750092598
  H   -2.42795133636466      0.76001885777237      0.11874879540528
  H   -2.14259034156691      0.00881411750955     -1.34513801670589
  N   1.77604463808717     -0.72004144658682     -0.31819364523840
  O   2.09336503904792     -0.87299676755207      0.85864775856485
  O   2.26932502415146     -1.28512573007756     -1.28541901083302
  C   1.01814602105328      1.57000963243589     -0.10755065092221
  N   1.33588993867346      2.63679958335015      0.26493004281470
