15
Coordinates from ORCA-job run
  C   -0.67248532114736     -0.38830435580403      0.10878351642280
  C   0.57125647300378      0.18958996251727     -0.62185767738833
  F   -0.63651668918263     -1.74468116190780     -0.26544349249573
  H   0.42842672199470      0.05485182517623     -1.69484928386998
  N   -0.60888254449236     -0.16459410012583      1.48962145200590
  H   -1.40995186520163     -0.58129880410981      1.94468100464665
  H   0.26060441796074     -0.47120791436890      1.90263670801916
  N   -1.90902825850457      0.11990308054537     -0.37443699879850
  H   -2.03009867323210     -0.02636553786817     -1.36676324041180
  H   -2.03625059032706      1.08967357728381     -0.12150499892754
  N   1.81434185459254     -0.60319141023127     -0.29386047392461
  O   2.32343899491957     -1.22613166250750     -1.21663757424796
  O   2.19955555651358     -0.57393846356489      0.87147818390994
  C   0.77969508700506      1.59224343024939     -0.29526856276415
  N   0.92489483609774      2.73445153471623     -0.06557856217583
