15
Coordinates from ORCA-job run
  C   -0.60397781391588     -0.04025208677248      0.28614823557632
  C   0.65391951404489     -0.04813258730610     -0.61632125776508
  F   -0.29698731519103      0.90948626597553      1.29971910611661
  H   0.60387571670055     -0.92757205817098     -1.26114682834168
  N   -1.70298467930732      0.40124344879998     -0.48828323460047
  H   -2.57589634040826      0.01172423325775     -0.16265718454031
  H   -1.74812658558239      1.41057965175322     -0.52995366091049
  N   -0.85370652864012     -1.32144481546123      0.82209783793349
  H   -0.00964000069891     -1.73113598052931      1.20046711526821
  H   -1.55033134943824     -1.25519499350866      1.55472992835133
  N   1.89688334815240     -0.19931048032315      0.23183625477172
  O   2.64670539556792      0.75826642414085      0.34905667840506
  O   2.03490163485779     -1.30221350223281      0.75730839926750
  C   0.73926748457522      1.17561921026663     -1.40012020709242
  N   0.76309751928343      2.15733727011073     -2.04288118243975
