15
Coordinates from ORCA-job run
  C   -0.80126149738865      0.13123111273164      0.09629114947990
  C   0.56151845615647      0.43117366918597     -0.60653143269585
  F   -1.53932863983085      1.28592954933280     -0.20758864219790
  H   0.39273879879965      0.64461736424503     -1.66327589000288
  N   -1.32649921829026     -1.05339843870737     -0.44518646624486
  H   -1.44913484348245     -1.01347359976524     -1.44803348397402
  H   -2.19299005895752     -1.29090048146195      0.01914153418361
  N   -0.79436486396714      0.03006356745723      1.51076471403510
  H   -0.51929729414549      0.90511094496572      1.93776722644810
  H   -0.17893615176613     -0.71252098895965      1.81518300794596
  N   1.41146626461845     -0.80587229961914     -0.55149227588567
  O   1.85910991799828     -1.11875473835729      0.54676167804894
  O   1.54884184601297     -1.41856955328727     -1.60355978630415
  C   1.24476032294386      1.53850883287319      0.04250969501290
  N   1.78137696129877      2.44585505936630      0.55924897215081
