15
Coordinates from ORCA-job run
  C   -0.57035257140874     -0.01391024262821      0.31311110446490
  C   0.67568309694762      0.04235851000358     -0.60585243034541
  F   -0.49537411698415      1.07701640471428      1.17275856470079
  H   0.62319067950109     -0.79165310759246     -1.30597413024690
  N   -1.72064607764322      0.02842433084544     -0.51853683974336
  H   -1.76261285285689      0.88713138529090     -1.05652299335333
  H   -2.55647392354065     -0.04380220574718      0.04945431364124
  N   -0.50176927333930     -1.17699118723600      1.13955325831024
  H   -0.85998097720599     -0.97407019859019      2.06202263560091
  H   -0.98983928545803     -1.95660970891662      0.72219639595611
  N   1.91800797885102     -0.17996502995158      0.21404969205964
  O   2.28777592480741      0.74576380435630      0.92493627434405
  O   2.43574760169250     -1.28491267020666      0.10657993074107
  C   0.75846668362829      1.31333701781984     -1.31203499728030
  N   0.75817711300899      2.32688289783860     -1.90474077884964
