15
Coordinates from ORCA-job run
  C   -0.71565758639397      0.06910384657140      0.12243215326255
  C   0.60093934918019      0.41296757785672     -0.60866138320846
  F   -1.51876444394819      1.21845792968361     -0.18028425986222
  H   0.37616186258891      0.62700007157610     -1.65462174414349
  N   -1.27242349333087     -1.10438450319061     -0.42274648510691
  H   -1.47498127054056     -0.99381344799533     -1.40719927553591
  H   -2.11760721483168     -1.37447490740081      0.06373996087163
  N   -0.51082235729130     -0.05887057501495      1.50723305805009
  H   -0.23453225447237      0.82007950911140      1.92462209926399
  H   -1.32879723249106     -0.41816232130009      1.98090099584405
  N   1.51393711894668     -0.78631888209464     -0.61197077654788
  O   2.22060494169697     -0.96065278251116      0.37094318317582
  O   1.44210848143095     -1.49400844596452     -1.61096704287379
  C   1.26279454052949      1.55121798543523      0.01196108103875
  N   1.75603955892683      2.48985894523760      0.51561843577181
