15
Coordinates from ORCA-job run
  C   -0.62155695181016     -0.19122513606472      0.16007899780275
  C   0.73869058041360      0.17307168379470     -0.48386625512317
  F   -0.66834439959215      0.59873817026969      1.34165914584920
  H   0.96359751444978     -0.57335591126518     -1.24808288976198
  N   -1.65125607677281      0.19201692167367     -0.73189877690738
  H   -1.88886799294875      1.16951342853347     -0.62898105846624
  H   -2.46888249803287     -0.39310312909563     -0.63932958965031
  N   -0.69645902724109     -1.57134901918655      0.44530702345855
  H   -1.49537996635899     -1.75336819168969      1.04128389239205
  H   0.14373063030919     -1.89468159870759      0.90700323345468
  N   1.83988827642822      0.08422417339847      0.54892897866150
  O   2.10405515446731     -1.05493695315870      0.92824543186633
  O   2.36484854704913      1.11704983196646      0.93680595536236
  C   0.70280384867777      1.51338170791859     -1.05079922101881
  N   0.63313236096180      2.58402402161302     -1.52635486791950
