12
Coordinates from ORCA-job run
  C   -0.35067305206930      0.19153882022715      0.31068393055600
  C   0.73975296988726     -0.69090855085759     -0.30003033816199
  Br  -0.29962155329770      0.11681052132650      2.24595553135616
  H   0.61463961347213     -1.71065820296735      0.06757079170785
  H   0.60688386989080     -0.70286421180385     -1.38736486724584
  C   -0.25183310961497      1.57179330339063     -0.13351824809993
  N   -0.11965572121386      2.67527011180562     -0.51836490725310
  N   -1.72699911893777     -0.36120193789772     -0.11320627688520
  O   -1.78492800715043     -1.56958933141759     -0.29097702598872
  O   -2.63611564581490      0.44943194506446     -0.19615372708581
  C   2.06787576163807     -0.18529328473188      0.02822887237071
  N   3.14067399321068      0.21567081786162      0.28417626472986
