12
Coordinates from ORCA-job run
  C   -0.38198311564066      0.22750762001381      0.49251851262595
  C   0.94846827974576     -0.51671154321208      0.39613275105528
  Br  -1.09603489733948      0.04857304053932      2.28704894763000
  H   0.78929870110248     -1.56026200956643      0.67189870721386
  H   1.64734044653814     -0.06777487795014      1.10662163638536
  C   -0.25802000569400      1.63401453208615      0.14991423006922
  N   -0.09400235313980      2.76949958086560     -0.10904756645631
  N   -1.41106182769538     -0.42521975433589     -0.45490040110816
  O   -1.27339989325303     -1.62457945014573     -0.64115517961693
  O   -2.28373596027086      0.30732204910594     -0.89356158361814
  C   1.48984755927023     -0.43343003282378     -0.95842059442593
  N   1.92228306637662     -0.35893915457679     -2.04704945975419
