12
Coordinates from ORCA-job run
  C   -0.33961271806317      0.25506314026708      0.46593931094628
  C   1.05547421843418      0.14374090766595     -0.16634716105001
  Br  -0.37322203323325     -0.48018454038680      2.23986609466698
  H   1.76757432534353      0.68988461734185      0.45721584770374
  H   1.02046865789880      0.61652047220050     -1.15195612042440
  C   -0.77199326937410      1.64413893780543      0.49672436726078
  N   -1.08300068627252      2.77780892157706      0.52569289134640
  N   -1.31131177085755     -0.51089163570451     -0.47833230673069
  O   -1.84075047330408     -1.53074265146483     -0.08152389033330
  O   -1.40222010546288      0.00971973292022     -1.58250347912515
  C   1.47209362512970     -1.24851941757079     -0.30055605202594
  N   1.80750022976133     -2.36653848465118     -0.42321950223468
