12
Coordinates from ORCA-job run
  C   -0.35729899939602      0.10498603455678      0.55097413971491
  C   1.00692308438866     -0.50538133677104      0.23412226464933
  Br  -0.92440778494584     -0.45480220365694      2.31892957369220
  H   1.72916664779426     -0.14101651428573      0.96913558780884
  H   0.93469722614078     -1.59079728537802      0.31949341591301
  C   -0.34865973369062      1.55593249473529      0.47435799307410
  N   -0.27568754575116      2.72886268027845      0.42882823094950
  N   -1.40510400057239     -0.44294454823755     -0.44089700394502
  O   -1.23906146352333     -1.59991863284242     -0.79617357976435
  O   -2.31584719212644      0.31160520722730     -0.74421158306241
  C   1.43224403894774     -0.13608831692694     -1.11429299934834
  N   1.76303572273435      0.16956242130082     -2.19826603968177
