12
Coordinates from ORCA-job run
  C   -0.36489216816411      0.21026974931536      0.51306756802541
  C   0.91626747969301     -0.60550915856193      0.34775324418222
  Br  -1.08727840004747     -0.06911417151512      2.29107705208048
  H   1.64463457046091     -0.25808135655361      1.08512841186938
  H   0.69306711619340     -1.65586546709556      0.54181789133460
  C   -0.15316832422747      1.62957562066374      0.28535156970518
  N   0.07975017291203      2.76968266141580      0.11554586077889
  N   -1.43174635023159     -0.29932996984268     -0.47879768515219
  O   -2.23910364069710      0.52450954848837     -0.87917220252950
  O   -1.38795717449172     -1.49308099278579     -0.73440558612912
  C   1.45407529391629     -0.44699858944692     -1.00177163952067
  N   1.87935142468383     -0.30505787408166     -2.08659448464466
