12
Coordinates from ORCA-job run
  C   -0.35940127848050      0.18866215684658      0.30086844359833
  C   0.75844831833193     -0.68399029109582     -0.27280678816647
  Br  -0.34538410626504      0.14626967059569      2.23794866871259
  H   0.64621046850107     -0.72015091340454     -1.36167880384892
  H   0.64703779847547     -1.69891600375579      0.11200614631627
  C   -0.27608232064462      1.56298555139788     -0.16490566400077
  N   -0.15787042550660      2.66150448804472     -0.56799730755639
  N   -1.71941535895668     -0.39103622846050     -0.13986557793807
  O   -2.65019169220541      0.39677031278324     -0.19734504232416
  O   -1.74465744462401     -1.59459963275691     -0.35445410852966
  C   2.07007377701408     -0.14611291771876      0.07044221658327
  N   3.13023226436032      0.27961380752422      0.33878781715399
