12
Coordinates from ORCA-job run
  C   -0.34581776581322      0.09919717067005      0.35586242921588
  C   0.76291615097963     -0.56526529037868     -0.46244454334178
  Br  -0.20154635518474     -0.37259900770287      2.22945727530651
  H   0.57947105811180     -0.36295473047139     -1.52316353708301
  H   0.71443522501171     -1.64469038476644     -0.31063889996920
  C   -0.34528107069403      1.54506234486983      0.20841039445040
  N   -0.29372797391199      2.71055966467885      0.05939594817132
  N   -1.70791525893583     -0.43985297472899     -0.12815032046400
  O   -1.70461071027543     -1.57994313888360     -0.57016097407341
  O   -2.66578799358466      0.30466037525543      0.00836902856972
  C   2.07396600886102     -0.05174035591747     -0.08200165426454
  N   3.13289868543575      0.35756632737528      0.21506485348211
