12
Coordinates from ORCA-job run
  C   -0.36270478168801      0.22287626131870      0.27334867014810
  C   0.76043343101887     -0.70725668694670     -0.18894111931648
  Br  -0.36745124618161      0.39740158258908      2.20313115817298
  H   0.64306225034035     -1.67323076473898      0.30465779483701
  H   0.65916765117390     -0.86319722274164     -1.26828723733909
  C   -0.27529809891827      1.53678939697054     -0.34177876128834
  N   -0.15265974444223      2.58356199518518     -0.86374267935366
  N   -1.71654395518310     -0.40792945535538     -0.11261307721357
  O   -2.63966264897900      0.36624129197876     -0.31032132410275
  O   -1.74595802005609     -1.62997922677765     -0.14650382208207
  C   2.06962667145669     -0.13697651048998      0.10763822253688
  N   3.12798849145848      0.31169933900808      0.34341217500100
