12
Coordinates from ORCA-job run
  C   -0.29945196358334      0.26433244028552      0.48838317248178
  C   1.06176004676616      0.02739128501011     -0.18251200205684
  Br  -0.39057828108742     -0.56789735721751      2.21651254055946
  H   1.84420981887870      0.44623310703103      0.45502402574975
  H   1.06715367331986      0.56036273892083     -1.13753128940525
  C   -0.56097251408863      1.69070078418955      0.60996113486374
  N   -0.73217726744082      2.84958126387554      0.71220728805126
  N   -1.37106455364290     -0.32179719919445     -0.47546451828953
  O   -2.00938464299463     -1.29660933932099     -0.12869766821292
  O   -1.42004028569298      0.27480824317269     -1.54325709607730
  C   1.30674313360919     -1.39353517490552     -0.40806380690772
  N   1.50380283595682     -2.53357079184679     -0.60556178075644
