12
Coordinates from ORCA-job run
  C   -0.29136503484700      0.33116013477794      0.37478344793098
  C   1.05059933630070      0.00851144251893     -0.28386868967247
  Br  -0.28599596794228     -0.12761124101097      2.25325913232926
  H   1.80130390885125      0.67766467742233      0.14611303191924
  H   0.97377276557584      0.22165333129734     -1.35340348199114
  C   -0.61037371390326      1.74323520768810      0.21917993509771
  N   -0.82315185134606      2.88871267683348      0.05902101370711
  N   -1.44002001746511     -0.45513870480973     -0.30627190129630
  O   -1.11948917281474     -1.18982231417729     -1.23018572070694
  O   -2.55848873742144     -0.24496273184591      0.13058660128594
  C   1.46579524929818     -1.37623907111461     -0.08508473421023
  N   1.83741323571389     -2.47716340757961      0.07687136560683
