12
Coordinates from ORCA-job run
  C   -0.32498796878829      0.15842275837859      0.37045762516677
  C   0.78617936684289     -0.61823912834643     -0.34491746654283
  Br  -0.02375418584126      0.19267151657145      2.27280374041908
  H   0.80399995844642     -1.64098373925185      0.04194693073643
  H   0.55265550884472     -0.65981894564172     -1.41072252463024
  C   -0.45643871003296      1.51539858649645     -0.13965229477179
  N   -0.55968534034457      2.60106409184128     -0.58058482829601
  N   -1.68510803423496     -0.54514294876684      0.06694235902933
  O   -2.56764881673765     -0.45325876496993      0.89892337759330
  O   -1.74497332759646     -1.08314706060107     -1.03094797663529
  C   2.08455151435281      0.01493013322899     -0.14366901923152
  N   3.13521003508932      0.51810350106109     -0.00157992283721
