12
Coordinates from ORCA-job run
  C   -0.37565786053304      0.23339209705284      0.49734231945811
  C   0.92640518505393     -0.55931401526484      0.39061043051579
  Br  -1.10792546482320      0.04220935352288      2.28259525877680
  H   0.72560979077446     -1.60099802996135      0.64600519286641
  H   1.64144158348596     -0.15122811255279      1.10955667658077
  C   -0.19455681256643      1.64149220725177      0.18867019047315
  N   0.01484033881955      2.77611326522049     -0.03923738803576
  N   -1.41693048847822     -0.36357048696761     -0.47215345340702
  O   -1.36659475372678     -1.57551145725385     -0.61712466679690
  O   -2.21200961429779      0.41892990948309     -0.96870101358936
  C   1.46956354705497     -0.47099283407603     -0.96312761454315
  N   1.89681454923660     -0.39052189645460     -2.05343593229884
