12
Coordinates from ORCA-job run
  C   -0.27612303650029      0.35957013318206      0.43828655753939
  C   1.02744861018778      0.06721215323645     -0.31922136547607
  Br  -0.09283026106952      0.01737035022805      2.31930287220896
  H   1.81736775546674      0.70659068466484      0.08248098656515
  H   0.87328547973865      0.32239543775258     -1.37152468751630
  C   -0.68761623527293      1.73869382542262      0.22347367545272
  N   -0.98135127932776      2.86349044065263      0.04658837120509
  N   -1.36555381891235     -0.55251684046740     -0.19576406206764
  O   -1.59147066750013     -0.27159192209538     -1.36557999027473
  O   -1.84825834469697     -1.44840665210015      0.46924972345954
  C   1.41072360917721     -1.33613463655542     -0.20224687364236
  N   1.71637818870959     -2.46667297392087     -0.12504520745374
