12
Coordinates from ORCA-job run
  C   -0.33189612314640      0.23872323479156      0.48138575152501
  C   1.07437118438217      0.01618159052859     -0.09459541925817
  Br  -0.57519230093895     -0.70325034303619      2.13723733106488
  H   1.81071162677634      0.37061399581806      0.63083291060053
  H   1.16621991582443      0.61401702756228     -1.00586197826422
  C   -0.57980515789208      1.65900240936750      0.67783363754269
  N   -0.74183835812083      2.81159105208499      0.84521891859829
  N   -1.33233212119482     -0.26020706242568     -0.60146501244047
  O   -2.01338305318501     -1.24052711215638     -0.37151602556914
  O   -1.28355489482729      0.40433725540698     -1.62827526285062
  C   1.30890200905926     -1.39101884634039     -0.40207265461345
  N   1.49579727326319     -2.51846320160131     -0.66972219633535
