12
Coordinates from ORCA-job run
  C   -0.32138710741174      0.26438209569373      0.47428050834899
  C   1.05492568338608      0.11823412995271     -0.19148207958241
  Br  -0.32934425411338     -0.46592992121415      2.25056001026952
  H   1.00728051589037      0.59096870231154     -1.17661235340858
  H   1.79512846576454      0.64719725125364      0.41382540221534
  C   -0.71955941122868      1.66339028644919      0.51167134124231
  N   -1.00343926709113      2.80417296122556      0.54206661077408
  N   -1.33353908463592     -0.47999464571280     -0.44409967647820
  O   -1.87455854583660     -1.48833081604034     -0.03381128553906
  O   -1.44150557583987      0.04268187800579     -1.54569423478751
  C   1.43256499247959     -1.28432067755102     -0.33399681726553
  N   1.73243358863674     -2.41145124437384     -0.46470742578895
