12
Coordinates from ORCA-job run
  C   -0.30386044783405      0.35613554738950      0.42282486907490
  C   1.04858376724238      0.06072960643243     -0.24217092077745
  Br  -0.26306305551838     -0.01587119283372      2.30638419676046
  H   1.81328948542305      0.68573131097601      0.22554652158910
  H   0.97376332464857      0.33296788005799     -1.29882340255621
  C   -0.68521234668398      1.74251393814633      0.19954790577440
  N   -0.95388962447657      2.87293784970667      0.01889269404884
  N   -1.35306647725982     -0.53489165910354     -0.30369622231606
  O   -1.48982598918819     -0.23411741959902     -1.48238822217109
  O   -1.89249163610817     -1.43471463190064      0.31047396915726
  C   1.40845622739055     -1.34827181782965     -0.11919976170357
  N   1.69631677236463     -2.48314941144234     -0.03739162688058
