12
Coordinates from ORCA-job run
  C   -0.37496221955856      0.21794192406490      0.34080414869217
  C   0.76244111419932     -0.64947919237046     -0.22215158082777
  Br  -0.29154497502310      0.32509516877224      2.25627243081753
  H   0.67940879228241     -1.65174990225446      0.20944263387491
  H   0.63092133139411     -0.71766902041689     -1.30644364525383
  C   -0.37309880135466      1.55443276024711     -0.23221787330648
  N   -0.34187928834085      2.63607041563379     -0.69278608136370
  N   -1.67977146737903     -0.49076015113555     -0.12270801781886
  O   -2.32090605685445     -1.12879039443302      0.69130114737863
  O   -1.88994008358838     -0.37421589486356     -1.32300968148606
  C   2.07106963541928     -0.08453999310188      0.08318001960439
  N   3.12926201880390      0.36566427985778      0.31731649968909
