12
Coordinates from ORCA-job run
  C   -0.35951420909908      0.13544853429600      0.32887843772765
  C   0.78670665666582     -0.60344828606898     -0.36436234998852
  Br  -0.27481081722007     -0.10238147485614      2.25007283940779
  H   0.74746674489693     -1.65719044091462     -0.08389996926125
  H   0.63836725032237     -0.53478195344388     -1.44744050272363
  C   -0.37365494169983      1.55250848169829      0.00625686862728
  N   -0.33298471428628      2.69197037891934     -0.28214866519620
  N   -1.69606486999040     -0.48265279679235     -0.13025400686728
  O   -1.66125447188484     -1.66719450502262     -0.43177407693291
  O   -2.66883235379457      0.25489308112819     -0.11446873015048
  C   2.07620076427404     -0.02411694354169     -0.00550465052593
  N   3.11837496181593      0.43694592459848      0.27464480588347
