12
Coordinates from ORCA-job run
  C   -0.29768136067022      0.27634597439547      0.43569329223850
  C   1.06364687570872      0.11906977221528     -0.24651338918981
  Br  -0.23841393019461     -0.33737722333136      2.26194835128734
  H   1.79007815625363      0.72154770520968      0.30506376833083
  H   0.99420282555911      0.50416695084717     -1.26597282263943
  C   -0.73322238975579      1.66547445045754      0.39691667653501
  N   -1.05743366533703      2.79461843599096      0.33911674394082
  N   -1.37247849833518     -0.52928519257553     -0.35466989464367
  O   -1.12116146351888     -0.68531153229353     -1.54178783734654
  O   -2.37529585946459     -0.86359601481210      0.24801859840602
  C   1.49581962553880     -1.27449182990394     -0.27595540601576
  N   1.85193968421605     -2.39216149619964     -0.30285808090331
