12
Coordinates from ORCA-job run
  C   -0.35528295964607      0.21977838140140      0.51740228385589
  C   0.90625410736851     -0.62332067873965      0.33854807367057
  Br  -1.06485098873037     -0.04406467709914      2.30274503097951
  H   1.65094296474723     -0.29280031566434      1.06709753714912
  H   0.66102409577107     -1.66825167035776      0.53508798368480
  C   -0.11612762161018      1.63427506921749      0.28759061648047
  N   0.14086195280867      2.76976540144901      0.12111267454889
  N   -1.44110154973683     -0.27068720552504     -0.46415912910520
  O   -1.44742879182799     -1.47209631119874     -0.68487026013929
  O   -2.20982478594784      0.57516216900316     -0.89351190188322
  C   1.43074458408385     -0.47793802171691     -1.01769172196222
  N   1.84278899271993     -0.35082214076950     -2.10935118727931
