12
Coordinates from ORCA-job run
  C   -0.34765029444890      0.24862912442667      0.26934529397617
  C   0.76568175169065     -0.71237323199630     -0.15117651743972
  Br  -0.21807926700840      0.67597921637843      2.15454974034956
  H   0.71349482726963     -1.60682929887040      0.47160348632113
  H   0.59154888558753     -1.01188566336331     -1.19020866652993
  C   -0.34378988224662      1.47087965063264     -0.51707661820039
  N   -0.29004905908505      2.44183412240703     -1.17859350173913
  N   -1.70862295739956     -0.45160186104723      0.07212476545813
  O   -2.66846568056258      0.27646111235961     -0.12556710042845
  O   -1.70273515915243     -1.67040035842723      0.17091252652873
  C   2.07495956389988     -0.08056007095924     -0.03259842539079
  N   3.13270727145585      0.41986725845934      0.05668501709468
