12
Coordinates from ORCA-job run
  C   -0.33391357974926      0.17806102746332      0.35149636917111
  C   0.79871278172617     -0.63549074672316     -0.28485681945495
  Br  -0.08100281397094      0.33529783778519      2.25495634813275
  H   0.81255079084668     -1.63115648080124      0.16716006236150
  H   0.59236748919175     -0.74693284632203     -1.35128039169686
  C   -0.45947248595279      1.49894832690288     -0.24758540615406
  N   -0.56029938788708      2.55222831364901     -0.76148220360361
  N   -1.68300502216145     -0.54999702526737      0.06032682609977
  O   -1.71218922348932     -1.16286549897356     -0.99915755252542
  O   -2.58926250054773     -0.40155213529497      0.85807965661348
  C   2.08748021107563      0.01987927613335     -0.09249676736769
  N   3.12903374091836      0.54257995144858      0.04583987842397
