12
Coordinates from ORCA-job run
  C   -0.34938634336825      0.11527048474531      0.55423615170862
  C   1.00703893736529     -0.50808598947200      0.22798245680446
  Br  -0.89537535046282     -0.41430450195438      2.33810290887823
  H   1.74168190090152     -0.13697477728621      0.94715478321827
  H   0.92988153700806     -1.59162111207613      0.33101873326511
  C   -0.33230633705690      1.56472203739550      0.45577786579321
  N   -0.25284245576230      2.73634440477217      0.39133423935255
  N   -1.41316324416483     -0.44125087497935     -0.41540325611229
  O   -1.26046025331537     -1.60560696335023     -0.75195230265376
  O   -2.32094155178794      0.31555540573028     -0.72212271402370
  C   1.41503117253113     -0.16111727826481     -1.13163801997020
  N   1.73184198811242      0.12706916473985     -2.22449084626052
