17

C	-0.425835	0.030019	-1.441425
C	0.0	0.0	0.0
Br	0.504552	1.492069	-2.388677
H	1.09126	0.0	0.0
C	-0.19821	-1.160862	-2.252718
N	-0.010952	-2.019734	-3.033267
N	-1.943614	0.319402	-1.49463
O	-2.329429	1.480562	-1.492703
O	-2.651762	-0.682517	-1.423757
N	-0.338998	-1.258201	0.6447
O	-0.056335	-2.303819	0.041472
O	-0.735459	-1.227133	1.822414
C	-0.445211	1.191522	0.816256
H	0.134169	1.193811	1.738581
H	-0.232229	2.112585	0.275054
H	-1.504656	1.154768	1.06941
H	2.389145	0.0	0.0
