17

C	-0.421342	-0.02128	-1.452248
C	0.0	0.0	0.0
Br	-2.327811	-0.173271	-1.927295
H	1.095403	0.0	0.0
C	0.037401	1.216605	-2.072901
N	0.407892	2.23084	-2.539643
N	0.272954	-1.173699	-2.206567
O	0.457982	-2.202769	-1.542345
O	0.571886	-0.996929	-3.373164
N	-0.401127	-1.22878	0.765312
O	0.509385	-1.800051	1.378597
O	-1.565218	-1.619701	0.693356
C	-0.555586	1.178477	0.773033
H	-0.221912	1.088178	1.809352
H	-0.159887	2.113703	0.374804
H	-1.648495	1.195783	0.752217
H	2.662461	0.0	0.0
