17

C	-0.506016	-0.004126	-1.473339
C	0.0	0.0	0.0
Br	-2.452486	-0.26411	-1.513763
H	1.115387	0.0	0.0
C	-0.261561	1.375426	-2.161913
N	-0.977037	2.319922	-2.024084
N	0.134079	-1.081454	-2.297497
O	-0.405108	-1.182813	-3.48022
O	1.44847	-0.97926	-2.280865
N	-0.391482	-1.214538	0.732136
O	-0.032429	-1.14115	2.015447
O	0.035505	-2.317774	0.11405
C	-0.434155	1.276037	0.756698
H	0.034952	2.168609	0.317919
H	-0.101451	1.234042	1.804595
H	-1.529234	1.392791	0.744208
H	2.486375	0.0	0.0
