17

C	-0.406502	-0.007646	-1.502779
C	0.0	0.0	0.0
Br	-2.370536	-0.013506	-1.726496
H	1.115407	0.0	0.0
C	0.04825	1.339247	-2.150935
N	-0.538636	2.358633	-2.035328
N	0.1077	-1.209202	-2.213774
O	-0.454192	-2.309353	-1.704579
O	-0.068575	-1.073921	-3.532858
N	-0.472579	-1.17496	0.775758
O	-1.741594	-1.135405	1.05489
O	0.32699	-1.422038	1.794162
C	-0.42755	1.266067	0.776932
H	-0.2208	1.134666	1.852975
H	0.157876	2.135389	0.43987
H	-1.497438	1.480319	0.647738
H	2.512638	0.0	0.0
