14
Coordinates from ORCA-job run
  C   -0.87984709542188      0.43476061564027      0.21166667086474
  C   0.47584236956250      0.09644172796108     -0.37268378412084
  Cl  -1.69479528849054      1.62577928915617     -0.80938189489120
  H   0.35544061990604     -0.37327036947975     -1.35394233078543
  H   -0.80004266464298      0.82698524580003      1.22171592826275
  N   -1.75909370378202     -0.78581617504389      0.28104193672051
  O   -2.59061398641069     -0.79544499953323      1.17804263694553
  O   -1.58860995136476     -1.64358392644762     -0.57889167948673
  N   1.13192758023294     -0.95881147854850      0.48541998373438
  O   0.60046649396326     -1.26814887389015      1.54707703553238
  O   2.18743470259566     -1.39691710263190      0.04261158207872
  N   1.35395454969613      1.23804165883664     -0.30486570996400
  H   0.96295530681213      2.00938811424814     -0.83058036593523
  H   2.24498106734418      0.99059627393270     -0.71923000895558
