14
Coordinates from ORCA-job run
  C   -0.83198382629138      0.40861154395519      0.22406057601575
  C   0.49929935887513      0.10982112984915     -0.45720510439414
  Cl  -1.71365595428294      1.62779097134873     -0.69364788072474
  H   0.32950118558096     -0.25146814429213     -1.46931079001068
  H   -0.70237987744417      0.75368330432772      1.24718476931950
  N   -1.67926463619291     -0.83401408467349      0.30726619617773
  O   -2.34902585113516     -0.96954693971982      1.32436855256377
  O   -1.63552434076927     -1.59087357170468     -0.65848701418758
  N   1.12618251842178     -1.04315682649975      0.29423961100122
  O   1.61638200986689     -1.95201987268223     -0.36052280933154
  O   1.13045982557773     -0.93141267120864      1.52079962589805
  N   1.44390101545370      1.17684263714186     -0.44670576723994
  H   1.42516333052308      1.71044722701049      0.41177782907107
  H   1.33894524181656      1.78429529714761     -1.24481779415847
