14
Coordinates from ORCA-job run
  C   -0.93869829476591      0.43015581873661      0.14686788302107
  C   0.42138386781105      0.18110794003252     -0.48355188899629
  Cl  -1.92025655618619      1.45401863840711     -0.89138223480985
  H   0.30850958069438     -0.23067908181934     -1.48447314650016
  H   -0.86619908710422      0.88230624008597      1.13320612122598
  N   -1.66387225591323     -0.87525149156290      0.34389809571100
  O   -2.38900918015631     -0.95184042154192      1.32746289933752
  O   -1.48622307768432     -1.73628758179208     -0.51301251795891
  N   1.10658298138522     -0.91903391482044      0.31976826592103
  O   1.83481651431448     -1.68610268907225     -0.29913964288523
  O   0.94808787820992     -0.88403188345639      1.54105892690715
  N   1.18942230951853      1.37453305866040     -0.50324925520827
  H   1.43422405452040      1.68496864088985      0.42870963404481
  H   2.02223126535618      1.27513672725287     -1.06716313980984
