14
Coordinates from ORCA-job run
  C   -0.82225006215690      0.39172602938986      0.26183670364996
  C   0.50473462416315      0.08081130827758     -0.43633453874099
  Cl  -1.54582032349456      1.84573246763751     -0.41372621540601
  H   0.32874704606911     -0.26728552209420     -1.45339551436354
  H   -0.66978732216355      0.53549600156294      1.33151941347937
  N   -1.80485401056182     -0.76097723646476      0.13964922161461
  O   -1.33246575607486     -1.83197120935132     -0.23173451767361
  O   -2.96106172778194     -0.54551730958157      0.46731312988666
  N   1.16517242482955     -1.06998719718110      0.28661561707417
  O   1.13948243857760     -1.01147542539726      1.51557908143160
  O   1.72650814312684     -1.91337050464298     -0.39299206741225
  N   1.47092937303951      1.13633050160285     -0.42929937486085
  H   1.54030679392079      1.57374070005832      0.48117427543059
  H   1.26035835850709      1.83474739618415     -1.12720521410972
