14
Coordinates from ORCA-job run
  C   -1.01345576545007      0.21225875352905     -0.48722627148764
  C   0.51324870592738      0.29790068931355     -0.47859584833286
  Cl  -1.72774190598142     -0.88276551033757     -1.65845709210421
  H   0.80856291533127      0.70431489977368     -1.44803954637866
  H   -1.38929485367402      1.21498138219317     -0.67932234597998
  N   -1.53320286719441     -0.14441511874935      0.88006471438022
  O   -0.94010521828216     -1.03924749610630      1.47561965357675
  O   -2.51181207027480      0.47906975001050      1.27157601067321
  N   1.20565239526982     -1.07466030379186     -0.44313264269002
  O   1.14914189714984     -1.73098202672930     -1.47708910854643
  O   1.79692137565594     -1.38128309144021      0.58485357030513
  N   0.90594420025080      1.15983569073697      0.57713394606263
  H   1.83693032882446      1.52261512645246      0.42409446925048
  H   0.90121086244736      0.66137725514520      1.45952049127138
