14
Coordinates from ORCA-job run
  C   -0.90354721607261      0.22298771785800     -0.53677023801580
  C   0.63601937253951      0.21998318816915     -0.45555869482686
  Cl  -1.47160456675940     -0.75459569049902     -1.87336767559049
  H   1.00643621509754      0.46434749751147     -1.45112153381425
  H   -1.23928553481560      1.25022500712215     -0.67581529089418
  N   -1.53106049544336     -0.21181509984278      0.77713450259838
  O   -1.39037018278620      0.61641338050154      1.67558991413149
  O   -2.09310801766815     -1.28889991508680      0.85689180787210
  N   1.08772302952812     -1.20038213030427     -0.20838614745752
  O   0.81335209769364     -1.65066508868412      0.90036386253906
  O   1.70213385134301     -1.76900209912170     -1.10333461037026
  N   1.24974606508425      1.04922655159875      0.52227850555141
  H   1.39661544213111      1.98714872147858      0.17987531559666
  H   0.73694994012816      1.06502795929908      1.39322028268027
