14
Coordinates from ORCA-job run
  C   -0.89551846518745      0.41061432296087      0.19417538202602
  C   0.49020273641086      0.12277082637650     -0.34498508579557
  Cl  -1.68370593209497      1.64237132633155     -0.79901930479561
  H   0.42123241689861     -0.29535899190854     -1.35413445905511
  H   -0.86754337860477      0.74974128383355      1.22595734142276
  N   -1.75652947226893     -0.82456442825250      0.15958602923612
  O   -2.62718538611784     -0.89344773797303      1.01589653571991
  O   -1.53322706398241     -1.63322039514713     -0.73509813929387
  N   1.12471220157537     -0.96727113788350      0.48537385209931
  O   2.20590898302964     -1.36648680015156      0.06866270712055
  O   0.55164376572805     -1.33959710026867      1.50430561067769
  N   1.34584293632371      1.27132170250050     -0.17770592429165
  H   2.25818152119957      1.05850492032681     -0.56404831526360
  H   0.96598513709056      2.06362220925515     -0.67996622980695
