14
Coordinates from ORCA-job run
  C   -0.85819498936176     -0.49634335839522     -0.06541716531450
  C   0.52009380346450      0.14147636287395     -0.19127035481372
  Cl  -0.98870313391714     -1.58320440743278      1.29900542933329
  H   0.46392864574617      0.84945066031341     -1.03474919199976
  H   -1.10708952511262     -1.02723013855965     -0.97893799906357
  N   -1.87035996400787      0.62251025569542      0.04030258964149
  O   -2.57048372875803      0.80130664719949     -0.95137690674382
  O   -1.88498409447160      1.28319346211873      1.07378314789378
  N   1.46199355659797     -0.93554791800014     -0.74457620246395
  O   2.56622630406605     -1.03713358875330     -0.23203828318735
  O   1.04459584696843     -1.56098726131430     -1.71412541685334
  N   1.02654776166629      0.62666456640735      1.03776511182169
  H   1.87071614231645      1.16601959205441      0.91555321492762
  H   0.32671337480316      1.15182512579263      1.54408202682213
