14
Coordinates from ORCA-job run
  C   -0.87518172097331      0.37008669844302      0.13990740991693
  C   0.52203046575871      0.11070620055339     -0.42686822523645
  Cl  -1.74631678845173      1.50155998117048     -0.88581860298774
  H   0.43388793544210     -0.36536433296574     -1.40240440003765
  H   -0.83649581227754      0.75491940294965      1.15707439066083
  N   -1.62993586613187     -0.93329274408269      0.20638169452978
  O   -2.02356658978639     -1.27607966287707      1.31763283222194
  O   -1.75681721210337     -1.54678014251986     -0.84695958971343
  N   1.15377939325547     -0.90852625465997      0.49191015268326
  O   1.43497784042738     -2.00723016918024      0.02747826267282
  O   1.33832078965998     -0.52517671511316      1.64527584170421
  N   1.39938903190166      1.23102731240207     -0.48027715220222
  H   1.23172395911858      1.79681547911593     -1.29903283726631
  H   1.35420457416033      1.79533494676420      0.35770022305403
