14
Coordinates from ORCA-job run
  C   -0.93191989152439      0.35867248020846      0.10483345806106
  C   0.51866343930905      0.15998707205435     -0.28254401631417
  Cl  -1.66764743168231      1.58950504105186     -0.92915424281441
  H   0.58532120239895     -0.22064823779424     -1.30660504119828
  H   -1.03726291276376      0.65772142788817      1.14400720831071
  N   -1.71793054942945     -0.91394797352273     -0.06961572071890
  O   -1.35419695355066     -1.67444206362194     -0.96048623162485
  O   -2.67398387410197     -1.05875131239377      0.67945098993469
  N   1.11249137726378     -0.93055988825496      0.57689912682120
  O   2.25291590465272     -1.26020955037255      0.27226763691160
  O   0.44930138437394     -1.37065748172103      1.51059439414736
  N   1.28836468213868      1.34093679502882      0.02028034280342
  H   0.92563443099578      2.13383990466805     -0.49345817055754
  H   2.24824919191964      1.18855378678151     -0.26646973376189
