14
Coordinates from ORCA-job run
  C   -0.95175140018403      0.18761639768879     -0.46313570687067
  C   0.58750869001035      0.27507972770699     -0.49132076581106
  Cl  -1.56082908892240     -0.76971699887276     -1.79561899251834
  H   0.86965184625626      0.57784438505628     -1.49969960004660
  H   -1.35426283492127      1.19785060461505     -0.53198090298840
  N   -1.45302317595207     -0.33571455394131      0.87279399094555
  O   -1.29938147370247      0.46605981822725      1.79271012393465
  O   -1.93750068469475     -1.45020596526473      0.94709157911930
  N   1.13803365943765     -1.12199777697032     -0.33222829246224
  O   0.98329174246481     -1.62161357815455      0.77842222168083
  O   1.70444391900892     -1.62666736402989     -1.29467649244538
  N   1.22190571310979      1.10575709758143      0.47300265965966
  H   0.77959705504879      1.04956982631387      1.38030542427388
  H   1.27231603304043      2.06513838004389      0.16333475352882
