14
Coordinates from ORCA-job run
  C   -0.96143258641428      0.39624231344915      0.10412877609856
  C   0.43871640966712      0.20697627183233     -0.46725479023367
  Cl  -1.93257940609350      1.43134855008805     -0.92116017482254
  H   0.37791429224747     -0.25783553077029     -1.45088588117865
  H   -0.93326159174917      0.79964234208826      1.11509548237208
  N   -1.61205819974457     -0.96182438267226      0.21685102081005
  O   -1.88668414462274     -1.33550639581399      1.35396186480200
  O   -1.77884991847611     -1.58077975222639     -0.82639862684348
  N   1.10410682731474     -0.84050965462622      0.43589912890525
  O   1.39145548551331     -0.45520112042320      1.56802325384330
  O   1.30229235276639     -1.95813313247387     -0.03068905447119
  N   1.14358738179739      1.43141833026672     -0.49916266263668
  H   1.34727149741726      1.76235814581223      0.43572379629880
  H   1.99852160037669      1.35980401546948     -1.03313213294384
