14
Coordinates from ORCA-job run
  C   -0.91185316285403     -0.41890407537286     -0.13946888851191
  C   0.47970002887285      0.19010930414613     -0.24536769493885
  Cl  -1.00883991976756     -1.61231521099988      1.13720686549266
  H   0.48315282355287      0.86847055732795     -1.10047651813089
  H   -1.20767995242006     -0.87461644001874     -1.08162171142261
  N   -1.86323435626400      0.74281052359398      0.08710815650306
  O   -1.93265572328229      1.49359362435267     -0.88087290665375
  O   -2.44434858617420      0.85500937087810      1.15168841969104
  N   1.40738380307567     -0.96276228704041     -0.68580882266402
  O   2.36441606726637     -1.22498900565414      0.03182666198037
  O   1.10727497939191     -1.51429851817519     -1.73972931680587
  N   0.85818138698716      0.85356457452155      0.93289751635647
  H   0.95550006194756      0.22200015810038      1.71647022297263
  H   1.71100254966774      1.38132742434047      0.81614801613169
