14
Coordinates from ORCA-job run
  C   -1.00997576317620      0.21958987327806     -0.49314332605598
  C   0.51660829840669      0.30609550042884     -0.46972292640567
  Cl  -1.71061663674292     -0.85977552745192     -1.68664210583260
  H   0.82038163489313      0.72880622864871     -1.42948702839570
  H   -1.38520557960018      1.22470480647182     -0.67338514604748
  N   -1.54052391294513     -0.15745427586633      0.86445846607697
  O   -0.96283267083918     -1.07310750531123      1.44319573699262
  O   -2.51061448894703      0.47305375139353      1.26615253360998
  N   1.20925130040210     -1.06636327715570     -0.45139643276852
  O   1.16993519241366     -1.70144663287745     -1.49938638252631
  O   1.78322380568826     -1.39428700089449      0.57991379031901
  N   0.89927330711306      1.14954132632311      0.60443721757434
  H   1.83155735939266      1.51521260673171      0.46667893008744
  H   0.88653815394107      0.63643012628134      1.47832667337189
