14
Coordinates from ORCA-job run
  C   -0.88749622929373      0.41630588108221      0.21701968253524
  C   0.47060545743196      0.10571822009971     -0.37689248163540
  Cl  -1.73697421329649      1.58481326455266     -0.80175676279632
  H   0.35319141465704     -0.36903326769017     -1.35606377574053
  H   -0.80799219005238      0.81398736758102      1.22494792841714
  N   -1.73869249113617     -0.82342272352916      0.29805710944280
  O   -2.56175000139823     -0.84879729746747      1.20248133641597
  O   -1.55651352176089     -1.67998058547349     -0.56064275083156
  N   1.15622799664994     -0.93240268466787      0.47905536037638
  O   0.64062299959178     -1.24891356116573      1.54640125693691
  O   2.21703611716990     -1.34934568310617      0.02864254550690
  N   1.32422967201498      1.26640609239731     -0.31859219091816
  H   2.21675045036803      1.03770237520939     -0.74045443752646
  H   0.91175453905425      2.02796260217776     -0.84220282018292
