14
Coordinates from ORCA-job run
  C   -0.87046026531086     -0.43538253285478      0.07124858450178
  C   0.56337799696973     -0.02183001578981     -0.29940632658369
  Cl  -1.01151641949093     -0.86551097735407      1.75876948870751
  H   0.57917917023353      0.15894956130238     -1.37544648695983
  H   -1.21553068310382     -1.25972940309455     -0.54947194382217
  N   -1.73306030445140      0.75653039091099     -0.28605287001181
  O   -2.16326569989949      1.48165098192983      0.59764129703665
  O   -1.86322421605217      0.91186561355478     -1.49753302303939
  N   1.39107261963278     -1.28782868836889     -0.10631142593484
  O   1.10268068042792     -2.21089325403932     -0.86426769567733
  O   2.22771332840015     -1.30316278006400      0.78343443068530
  N   1.13004090879138      1.06282213581396      0.39681890703358
  H   0.91659100528042      1.95536663285435     -0.02000885766565
  H   0.94740187857275      1.05815233519912      1.38958592172988
