14
Coordinates from ORCA-job run
  C   -0.89439485887410      0.25050661945380     -0.53949536112727
  C   0.64446679656767      0.20941820317227     -0.44936525425949
  Cl  -1.47725047464613     -0.69828968945687     -1.89000677167111
  H   1.02597937585096      0.45825263407554     -1.43961678643960
  H   -1.20313727055113      1.28752687164735     -0.66846146093104
  N   -1.54137266616423     -0.18322897801807      0.76572739702068
  O   -2.13278022057705     -1.24544656476506      0.82906287388426
  O   -1.38511110418168      0.63083533850213      1.67440142033685
  N   1.06109209013111     -1.22312688263746     -0.21708030079033
  O   0.76371776961471     -1.68273500035252      0.88186668515950
  O   1.67211847803336     -1.79376622274661     -1.11308152085679
  N   1.27252336093700      1.01198571163116      0.54227713243624
  H   1.43751049897538      1.95164664828796      0.21291277169368
  H   0.75563822488413      1.02642131120639      1.41085917554443
