14
Coordinates from ORCA-job run
  C   -1.01306371338809      0.24386138681474     -0.48751075883871
  C   0.51418437410314      0.35341223043620     -0.51970093973913
  Cl  -1.65604600616292     -0.62718905085223     -1.85880285080327
  H   0.81753943422224      0.57340745040310     -1.54363595881016
  H   -1.42315307915784      1.25169283920197     -0.46378444381936
  N   -1.44549212108551     -0.39529421379500      0.82406009818323
  O   -1.77205028591879     -1.56994046196628      0.83803390526924
  O   -1.38278011675870      0.36692668055197      1.78597989972407
  N   1.08889230901805     -1.04915056406502     -0.26149992244207
  O   1.23621598263152     -1.36434983507799      0.91681148139492
  O   1.35809340684581     -1.73319496905998     -1.24339831930551
  N   0.97715272700914      1.34316859679404      0.37592372356347
  H   0.72264298904318      1.13822517096840      1.33335037402562
  H   1.97786409959875      1.46842473964608      0.30317371159767
