14
Coordinates from ORCA-job run
  C   -0.98287470650702      0.35454080847520      0.00407006471367
  C   0.47307007148266      0.21990610538475     -0.42622654696223
  Cl  -1.89340105046964      1.33317449484861     -1.12651080593106
  H   0.52769795889228     -0.26064965795744     -1.40262295948900
  H   -1.06969168671541      0.77045797614442      1.00660948230381
  N   -1.58324263782070     -1.02936365244109      0.07575547942916
  O   -1.61984164963424     -1.66902998366213     -0.96762740537231
  O   -1.95423330826338     -1.39912613691954      1.18653502365289
  N   1.09179915515782     -0.78430815052859      0.55572327985982
  O   1.25315041651739     -0.37070229904534      1.70268399521063
  O   1.38037276272743     -1.89891231301689      0.13078009505572
  N   1.12446731444014      1.47389922565770     -0.41255346205304
  H   1.22050712636351      1.82792199807558      0.53106798155148
  H   2.03022023382915      1.43219158498476     -0.85868422196953
