14
Coordinates from ORCA-job run
  C   -0.95440504737847      0.21171119706184     -0.44629055978834
  C   0.58572789413339      0.26197628261173     -0.50014585838183
  Cl  -1.60881415942385     -0.72722804271892     -1.77040515780108
  H   0.85846824833714      0.56022126778704     -1.51244304796095
  H   -1.33355877134538      1.23147502630714     -0.50631739326146
  N   -1.44617643816126     -0.30265620401776      0.89684616943970
  O   -1.95693643048306     -1.40495430821123      0.97661277178120
  O   -1.25831364486949      0.49320227105427      1.81559178468637
  N   1.10513306846990     -1.14839893317881     -0.35349051778294
  O   1.64706211242314     -1.66231217978778     -1.32512054823486
  O   0.95363544901492     -1.64864633057857      0.75737627031077
  N   1.25568620823247      1.07457814234044      0.45543152156844
  H   0.82602872928580      1.02841011361454      1.36930093476625
  H   1.32746278176475      2.03262169771607      0.14605363065873
