14
Coordinates from ORCA-job run
  C   -0.95912501614980      0.18584932954620     -0.44707957891292
  C   0.57938011251085      0.27231342413534     -0.50234144930158
  Cl  -1.59086276112069     -0.77891970571080     -1.76364171538370
  H   0.84420018605915      0.57116702810753     -1.51657556520904
  H   -1.36228572909299      1.19588855545171     -0.51521907537415
  N   -1.43874987859102     -0.32942859272098      0.90010962181416
  O   -1.92465502760601     -1.44225910784297      0.98812648229826
  O   -1.26904097279935      0.47728116525797      1.81281654223358
  N   1.13188112094444     -1.12455791262573     -0.34773622111943
  O   0.99146195385277     -1.62183614938611      0.76589659612905
  O   1.68579369652968     -1.63126782947418     -1.31631191353323
  N   1.23119469466972      1.10603110094714      0.44763222833903
  H   1.27872721132672      2.06388286572993      0.13287233016061
  H   0.80408040946653      1.05485582858498      1.36245171785938
