14
Coordinates from ORCA-job run
  C   -0.81954774595875     -0.48618976668343      0.21039196665455
  C   0.53028615188328     -0.01464497836382     -0.35509472732938
  Cl  -0.75406201719029     -0.73359768387032      1.93872632744969
  H   0.42267268903299      0.04545351475121     -1.43934923366527
  H   -1.15524999433418     -1.39756399038342     -0.28014508418665
  N   -1.81017754776129      0.59288182784696     -0.17262423560152
  O   -2.20895860374590      1.37918389663262      0.67265282985293
  O   -2.07351387068972      0.60199423567854     -1.37235164140201
  N   1.47578885419648     -1.18798067885131     -0.12293541830282
  O   1.19080850451565     -2.20857948822052     -0.74494725712614
  O   2.39580529858144     -1.04321064759696      0.66733650388876
  N   1.07173071789126      1.17922170387481      0.15881385729531
  H   0.99127666761858      1.27224761218415      1.16074714546294
  H   0.74314089596044      2.00178444300149     -0.32222103299038
