14
Coordinates from ORCA-job run
  C   -0.95110893520569      0.21106680091018     -0.45359832601995
  C   0.58962429311283      0.26448273435280     -0.49498549632776
  Cl  -1.59251429561646     -0.72610038909657     -1.78525848887916
  H   0.86946158284370      0.56575759515947     -1.50442872075986
  H   -1.33183357174189      1.23021067836441     -0.51442782116165
  N   -1.45241600341928     -0.30742158936178      0.88419407542027
  O   -1.96203149235663     -1.41078190239878      0.95716355627747
  O   -1.27337503078083      0.48638842235822      1.80647942137658
  N   1.11005796371189     -1.14512364631169     -0.34738697437642
  O   1.65913539667898     -1.65653196597782     -1.31638825166798
  O   0.95178075786750     -1.64787998440377      0.76141092688703
  N   1.25084048121535      1.07595942092188      0.46785347239942
  H   0.81514266962728      1.02418790345778      1.37863053661185
  H   1.31823618406325      2.03578592202567      0.16274209022017
