16

C	-0.543407	0.010772	-1.437652
C	0.0	0.0	0.0
F	-0.201747	-1.234098	-1.966205
H	1.088113	0.0	0.0
H	-0.392496	0.855262	0.551221
N	-1.970148	0.134533	-1.589677
H	-2.239866	1.104748	-1.488372
H	-2.43341	-0.400507	-0.863304
C	0.174454	1.076902	-2.235084
H	-0.039002	2.069887	-1.828612
H	-0.174261	1.029492	-3.268616
H	1.250662	0.904491	-2.184928
N	-0.503889	-1.208393	0.701394
O	-1.709043	-1.212377	0.999623
O	0.263729	-2.140567	0.91232
Br	3.547782	0.0	0.0
