16

C	-0.370218	0.02486	-1.478643
C	0.0	0.0	0.0
F	-1.762512	0.164672	-1.578089
H	1.089282	0.0	0.0
H	-0.393362	0.891594	0.487123
N	0.217027	1.196706	-2.088545
H	1.22783	1.073587	-2.079179
H	0.021272	2.005613	-1.506884
C	0.049734	-1.201087	-2.254331
H	-0.514976	-2.072615	-1.930585
H	-0.140084	-1.005951	-3.311088
H	1.112265	-1.395155	-2.092213
N	-0.53606	-1.147567	0.764477
O	-1.334697	-0.902374	1.672507
O	-0.15911	-2.277405	0.455857
Br	3.4882	0.0	0.0
