16

C	-0.511301	0.054965	-1.437811
C	0.0	0.0	0.0
F	-0.386439	-1.266554	-1.948997
H	1.087306	0.0	0.0
H	-0.38154	0.861249	0.549685
N	-1.869865	0.480852	-1.506538
H	-2.198688	0.385938	-2.460282
H	-2.4336	-0.102687	-0.899288
C	0.394352	0.927163	-2.27654
H	1.422115	0.569009	-2.203936
H	0.061943	0.89934	-3.318449
H	0.354346	1.957049	-1.918474
N	-0.538215	-1.205245	0.680098
O	-1.764883	-1.238149	0.852385
O	0.233623	-2.091645	1.021386
Br	3.614713	0.0	0.0
