16

C	-0.540229	0.021015	-1.441384
C	0.0	0.0	0.0
F	-0.217988	-1.22971	-1.971472
H	1.088108	0.0	0.0
H	-0.393736	0.851547	0.557477
N	-1.965236	0.168734	-1.592725
H	-2.435216	-0.367793	-0.871546
H	-2.219123	1.141773	-1.47729
C	0.198219	1.074886	-2.23359
H	-0.141282	1.029261	-3.270063
H	-0.004914	2.071354	-1.830004
H	1.271349	0.887888	-2.172381
N	-0.507226	-1.212332	0.695643
O	-1.712415	-1.221465	0.988241
O	0.264822	-2.139642	0.910372
Br	3.580436	0.0	0.0
