16

C	-0.504284	-0.046474	-1.436382
C	0.0	0.0	0.0
F	-1.874123	-0.456782	-1.388549
H	1.088469	0.0	0.0
H	-0.388209	0.876149	0.516464
N	-0.405509	1.269099	-1.960606
H	-0.9969	1.905793	-1.445013
H	-0.665025	1.284	-2.938005
C	0.230633	-1.028556	-2.314787
H	1.298938	-0.811302	-2.277453
H	0.063081	-2.041108	-1.956648
H	-0.139457	-0.945824	-3.342012
N	-0.489445	-1.163532	0.77817
O	-1.229512	-0.93513	1.73542
O	-0.130152	-2.283865	0.426905
Br	3.555074	0.0	0.0
