16

C	-0.378734	0.010723	-1.477279
C	0.0	0.0	0.0
F	-1.773626	0.121537	-1.566266
H	1.089309	0.0	0.0
H	-0.397491	0.891776	0.483234
N	0.183056	1.184463	-2.100718
H	1.19245	1.054533	-2.157555
H	0.029706	1.98996	-1.500915
C	0.057868	-1.21584	-2.243791
H	-0.132214	-1.034054	-3.302705
H	1.121375	-1.395897	-2.076549
H	-0.497507	-2.091323	-1.914705
N	-0.537615	-1.146967	0.763473
O	-1.38217	-0.908394	1.630449
O	-0.121069	-2.272126	0.488532
Br	3.496216	0.0	0.0
