16

C	-0.585291	-0.026083	-1.40422
C	0.0	0.0	0.0
F	0.141738	0.803014	-2.239632
H	1.087959	0.0	0.0
H	-0.363756	-0.866502	0.550165
N	-0.393597	-1.379943	-1.903936
H	-1.228301	-1.930541	-1.75224
H	-0.216175	-1.321979	-2.896438
C	-2.029535	0.451052	-1.466404
H	-2.389729	0.343503	-2.491968
H	-2.66077	-0.140617	-0.797976
H	-2.100855	1.500755	-1.179044
N	-0.474914	1.185485	0.752383
O	-1.212114	0.998425	1.725735
O	-0.133098	2.288877	0.336535
Br	3.592137	0.0	0.0
