16

C	-0.537574	0.071512	-1.441558
C	0.0	0.0	0.0
F	-0.491391	-1.263072	-1.864524
H	1.086718	0.0	0.0
H	-0.400336	-0.884527	0.491679
N	-1.913604	0.480821	-1.556113
H	-1.979639	1.486926	-1.498972
H	-2.468098	0.079986	-0.80958
C	0.348415	0.879143	-2.357718
H	1.366483	0.491362	-2.299755
H	-0.035086	0.801342	-3.376671
H	0.373569	1.92231	-2.042494
N	-0.491411	1.163876	0.766268
O	-0.109634	2.282885	0.422114
O	-1.305712	0.955092	1.673571
Br	3.550713	0.0	0.0
