16

C	-0.371114	0.013869	-1.482716
C	0.0	0.0	0.0
F	-1.752122	0.242553	-1.578162
H	1.090417	0.0	0.0
H	-0.40233	-0.86732	0.518305
N	0.280245	1.024299	-2.269381
H	1.280018	0.829422	-2.239075
H	0.156645	1.914386	-1.796365
C	-0.065811	-1.353241	-2.058881
H	-0.292498	-1.334216	-3.124016
H	0.989106	-1.591433	-1.91211
H	-0.67655	-2.113771	-1.571483
N	-0.505012	1.178432	0.735439
O	-0.289381	2.298011	0.270668
O	-1.115512	0.974779	1.785426
Br	3.481506	0.0	0.0
