16

C	-0.510232	0.216278	-1.422504
C	0.0	0.0	0.0
F	-0.363649	-1.034141	-2.085049
H	1.088111	0.0	0.0
H	-0.383559	0.790941	0.645572
N	-1.874939	0.627993	-1.446663
H	-2.43177	-0.029166	-0.91274
H	-2.200364	0.641093	-2.405969
C	0.383902	1.195018	-2.150282
H	0.333486	2.173832	-1.669736
H	0.047965	1.290729	-3.186945
H	1.416379	0.841687	-2.124347
N	-0.53253	-1.277999	0.540105
O	0.244657	-2.187595	0.79342
O	-1.759127	-1.341083	0.698573
Br	3.61515	0.0	0.0
