15
Coordinates from ORCA-job run
  C   0.88882584654428     -0.37902521104228      0.51496937883935
  C   -0.50136426444345     -0.18911383966332     -0.08926280152581
  Cl  2.16801289050012     -0.31545184346275     -0.73018109218943
  H   -1.16952300823196     -0.07669830315723      0.78533704647497
  H   0.95780760676488     -1.39771011694522      0.92105863601801
  N   1.15314227481257      0.66796347709793      1.48051896706900
  H   2.08232024379434      0.55592380525359      1.86735752833250
  H   0.48417407698014      0.59546811711814      2.23936744726521
  N   -0.83597410679296     -1.35452430473646     -0.89748902751364
  H   -1.67097910338853     -1.16673455961272     -1.43839640916471
  H   -1.02865660640830     -2.15625530837537     -0.30841775478967
  C   -0.60995646318458      1.07189371372828     -0.92787339554137
  H   -0.07800265652296      0.93602227279157     -1.87007803190362
  H   -1.65926838498235      1.28727179247670     -1.14890707758479
  H   -0.18155834544123      1.92097030852914     -0.39600341378600
