15
Coordinates from ORCA-job run
  C   0.48685136791469     -0.07806413742614      1.03319957369035
  C   -0.61965780778035     -0.22260663213041     -0.00563407308502
  Cl  0.66597579193303     -1.74913381071431      1.86326011901985
  H   -1.49294432633582     -0.64735824737670      0.50851773116404
  H   0.16778755559094      0.55530487149657      1.86097053310243
  N   1.67012213402532      0.39743014543634      0.44983808957325
  H   2.44272502395905      0.44646420794457      1.09790867398295
  H   1.90211361126313     -0.15845358888442     -0.36396455075542
  N   -0.12140958643208     -1.07897879813049     -1.08107605442698
  H   -0.72997916370723     -1.00852542343895     -1.88688018412925
  H   -0.11931827595889     -2.04554322032911     -0.77722667973950
  C   -0.99000983189390      1.14158867238824     -0.56971997387737
  H   -0.14467726821138      1.56767834161156     -1.10958499027563
  H   -1.84102738355385      1.04978035109267     -1.25099536086918
  H   -1.27555184081268      1.82941726846057      0.22938714662548
