15
Coordinates from ORCA-job run
  C   0.51574095769077     -0.23677930494798      0.99539192871827
  C   -0.68592681466633     -0.32857306824395      0.06049890055888
  Cl  0.78669952763574     -1.79190621866873      1.82557212464537
  H   -1.53698523281887     -0.65973544853983      0.66665293581644
  H   0.28588948330225      0.47598079991696      1.79666251667452
  N   1.71413104038320      0.10511364979549      0.23803906333125
  H   1.75982558069808      1.11207499713819      0.12973842415651
  H   2.53874740588381     -0.18322552016277      0.74924427265393
  N   -0.43011737037392     -1.34102063447508     -0.94943662887549
  H   -1.16524163968566     -1.33124085955069     -1.64527924861661
  H   0.44945891661978     -1.12155624184965     -1.40316281503465
  C   -0.99348926581071      1.06421368181586     -0.50069529383968
  H   -0.19062759720614      1.39639432349305     -1.16409835508415
  H   -1.91343648920634      1.03099419837152     -1.08997433439184
  H   -1.13466850244567      1.80926564590761      0.28984650928727
