15
Coordinates from ORCA-job run
  C   0.76570965980483      0.11903234284044      0.61003135331821
  C   -0.52115632868770     -0.20474682969253     -0.15582454960866
  Cl  0.34577579334486      0.67300865858279      2.31397775218333
  H   -1.00364899369879     -1.04035811586161      0.36949725049837
  H   1.25988833928660      0.98167920750880      0.15737348924331
  N   1.65367088401765     -0.99329654061303      0.60292577598736
  H   2.54996601011571     -0.75595721256045      1.00761800335536
  H   1.25908038182499     -1.76371003466439      1.13022642234199
  N   -0.22802981760490     -0.64073234071483     -1.51675639674111
  H   0.04519796736049      0.16201592512105     -2.07415192789839
  H   0.56064056960974     -1.27683384972348     -1.49737644908901
  C   -1.49038074937561      0.96453433852478     -0.21444195975960
  H   -2.32851500649539      0.69463020644545     -0.85847350158689
  H   -1.87045729866507      1.23516943803729      0.76887952016732
  H   -0.99874141083742      1.84456480676972     -0.64350478241160
