15
Coordinates from ORCA-job run
  C   0.74789899584425      0.18041366709475      0.80640371997048
  C   -0.43601730541818     -0.23422600622616     -0.06803421840557
  Cl  0.15918800921992      0.72897843604766      2.41911677547328
  H   -0.91200752296986     -1.07200657667121      0.45180823212187
  H   1.21671886773797      1.07837856338774      0.37791636911684
  N   1.62320662195071     -0.93991380368663      0.98406248149621
  H   2.51957342511638     -0.64751208014067      1.35022581676432
  H   1.74117277030867     -1.37040021871310      0.07344386147463
  N   0.12840092999473     -0.75818477415156     -1.31973707815017
  H   0.30186699974940      0.00909082576806     -1.96076020577182
  H   -0.53997494759049     -1.37380695405498     -1.76600625552435
  C   -1.44569993170195      0.88667101996810     -0.28579086932489
  H   -0.95605290728047      1.75575395909374     -0.73822501097214
  H   -2.23020231520834      0.54853985923896     -0.96725750833246
  H   -1.91507168975275      1.20822408304531      0.64383389006377
