15

C	0.0	0.0	0.0
C	-0.558147	-0.007723	-1.404515
F	1.397168	0.0	0.0
H	-1.661865	-0.021569	-1.209292
H	-0.319574	-0.928025	0.484162
C	-0.487482	1.187305	0.789879
H	-1.58251	1.127221	0.80834
H	-0.167825	2.112639	0.31065
H	-0.086386	1.138687	1.806155
C	-0.177034	-1.242565	-2.112359
N	0.144031	-2.184829	-2.739894
N	-0.176835	1.195334	-2.138386
H	0.804019	1.140957	-2.387501
H	-0.715331	1.251048	-2.993232
H	-3.203128	0.0	0.0
