15

C	0.0	0.0	0.0
C	-0.552165	-0.005419	-1.407532
F	1.397194	0.0	0.0
H	-1.656152	-0.017663	-1.215232
H	-0.321385	-0.927629	0.482999
C	-0.488178	1.187914	0.789111
H	-0.086342	1.141066	1.804395
H	-1.583744	1.128406	0.806677
H	-0.168947	2.112003	0.308575
C	-0.165669	-1.236956	-2.115376
N	0.15877	-2.180886	-2.739353
N	-0.164616	1.194357	-2.141188
H	-0.696097	1.245156	-3.003851
H	0.819999	1.137464	-2.379523
H	-3.200627	0.0	0.0
