15

C	0.0	0.0	0.0
C	-0.548842	-0.004171	-1.410935
F	1.396946	0.0	0.0
H	-1.654142	-0.011561	-1.230642
H	-0.320714	-0.928013	0.48265
C	-0.493361	1.18675	0.787191
H	-0.096666	1.141735	1.805374
H	-1.588805	1.120163	0.800904
H	-0.176476	2.113309	0.308021
C	-0.16014	-1.239712	-2.114677
N	0.164524	-2.18893	-2.72855
N	-0.143136	1.196041	-2.138402
H	-0.642659	1.240015	-3.018833
H	0.848853	1.139188	-2.342497
H	-3.218471	0.0	0.0
