13

C	0.0	0.0	0.0
C	-0.270367	-0.745042	-1.337226
F	1.395569	0.0	0.0
H	0.071651	-1.766797	-1.124557
H	-0.289359	1.059047	-0.072476
H	0.453104	-0.313436	-2.040281
N	-0.579048	-0.678932	1.109396
H	-1.593928	-0.63899	0.867565
H	-0.479594	-0.092566	1.934644
N	-1.584903	-0.772593	-1.955913
H	-2.294691	-0.68745	-1.196722
H	-1.696751	0.102428	-2.45653
F	-3.04922	0.0	0.0
