13

C	0.0	0.0	0.0
C	-0.327031	0.21231	-1.488903
F	1.410446	0.0	0.0
H	-0.406515	-0.801016	-1.915911
H	-0.274844	0.900344	0.566283
H	0.574618	0.669909	-1.908026
N	-0.580245	-1.200154	0.501252
H	-0.496563	-1.195677	1.512711
H	-1.591472	-1.019147	0.31324
N	-1.462646	1.089958	-1.749805
H	-2.232743	0.751389	-1.131509
H	-1.754131	0.928809	-2.708683
F	-3.004387	0.0	0.0
