13

C	0.0	0.0	0.0
C	-0.481207	0.261362	-1.41683
F	1.380449	0.0	0.0
H	-1.54983	0.458414	-1.290137
H	-0.290337	0.86192	0.617792
H	0.048996	1.146411	-1.79127
N	-0.560176	-1.230989	0.471617
H	-1.586572	-0.995918	0.372791
H	-0.360846	-1.312282	1.46418
N	-0.205058	-0.897403	-2.29422
H	-0.146141	-1.694117	-1.666022
H	-1.042992	-1.057459	-2.841692
F	-2.877712	0.0	0.0
