16

C	-0.269881	-0.022577	-1.50718
C	0.0	0.0	0.0
F	0.091367	1.242987	-1.987166
H	1.102297	0.0	0.0
C	0.640726	-1.042334	-2.162338
H	0.62412	-0.915309	-3.246983
H	1.636348	-0.851165	-1.741937
H	0.323286	-2.056877	-1.910858
C	-1.695048	-0.195249	-1.849849
N	-2.819096	-0.357367	-2.149099
C	-0.50534	-1.220001	0.606371
N	-0.891223	-2.20437	1.121047
N	-0.625786	1.187268	0.606148
H	-0.477319	1.119135	1.607078
H	-0.051966	1.965876	0.299021
F	2.615805	0.0	0.0
