16

C	-0.497915	0.029562	-1.44286
C	0.0	0.0	0.0
F	-0.146385	-1.169776	-2.064072
H	1.100215	0.0	0.0
C	-2.001068	0.190424	-1.577878
H	-2.287531	0.201132	-2.632025
H	-2.310482	1.123902	-1.107105
H	-2.489104	-0.653405	-1.083843
C	0.185405	1.121058	-2.166104
N	0.657046	1.977062	-2.815839
C	-0.536098	-1.1635	0.685428
N	-0.993366	-2.073623	1.276448
N	-0.361597	1.269613	0.645771
H	-1.092855	1.155111	1.334513
H	0.478569	1.600908	1.106296
F	2.528088	0.0	0.0
