16

C	-0.29156	0.004295	-1.511532
C	0.0	0.0	0.0
F	0.136981	1.243831	-1.997746
H	1.097036	0.0	0.0
C	0.510798	-1.077356	-2.200185
H	0.465856	-0.949996	-3.284016
H	0.128782	-2.064907	-1.934069
H	1.531374	-0.958147	-1.818922
C	-1.741936	-0.050376	-1.790386
N	-2.904007	-0.104746	-1.960124
C	-0.504909	-1.23762	0.579243
N	-0.919369	-2.239667	1.034718
N	-0.491621	1.154864	0.726785
H	0.112247	1.932417	0.490021
H	-1.444765	1.385735	0.463005
F	2.579869	0.0	0.0
