10
Coordinates from ORCA-job run
  C   -0.93154824971189     -0.13414109561019     -0.52471845854004
  C   0.30287676314583      0.29778742138006     -0.19246677613726
  H   -1.36855906779274      0.27337400909966     -1.43341206415928
  C   -1.72586885362011     -1.07091550568912      0.19358956580479
  N   -2.47755535859110     -1.82754169149120      0.69215950992606
  N   1.03011993716368     -0.16198287610425      1.01746516176120
  O   2.12385635492382      0.35991844237193      1.20851891792583
  O   0.48154976657955     -1.00726684150582      1.71001813672232
  C   1.00955350444108      1.24456860612580     -0.99065803964519
  N   1.55557520346190      2.02619953142313     -1.68049595365843
