10
Coordinates from ORCA-job run
  C   -0.91603969075914     -0.44856529164153      0.23327699591884
  C   0.31262597406866      0.05575144664674      0.00846193532189
  H   -1.02206842342412     -1.28622554960558      0.91633935357754
  C   -2.07040111596876      0.08516547821099     -0.40157534950698
  N   -3.03816826369374      0.51164618035880     -0.92011581769288
  N   1.47847866502082     -0.55886342348816      0.69957152630229
  O   1.24520006273225     -1.45738408170743      1.49503056894590
  O   2.57638249471993     -0.10231819703424      0.39934516168324
  C   0.61234103372048      1.14603133785802     -0.85459558303440
  N   0.82164926358362      2.05376210040239     -1.57473879151543
