10
Coordinates from ORCA-job run
  C   -0.89706023975922     -0.51171781475243      0.16376274360044
  C   0.31197599591184      0.06167126423382      0.00804990363581
  H   -0.96591224713406     -1.45018219531186      0.70606881778271
  C   -2.07802670180539      0.07645856650949     -0.36534077586360
  N   -3.06958892341201      0.54646798984710     -0.79359186046045
  N   1.50484843558839     -0.60751653559261      0.59511720325895
  O   2.56558827292194     -0.00341999741138      0.47766399921605
  O   1.32677273972550     -1.68763299774950      1.13991612394982
  C   0.56488501670608      1.28260723033728     -0.67661619879798
  N   0.73551765125693      2.29326448989008     -1.25602995632175
