10
Coordinates from ORCA-job run
  C   -0.91930384959656     -0.34206083700847      0.36309349766172
  C   0.31190131263171      0.06076455188134     -0.00634829493294
  H   -1.04426375277237     -0.82770622023604      1.32654458816034
  C   -2.05289265043665     -0.14392244313145     -0.47120357708291
  N   -3.00500850428050      0.01088902541339     -1.14717500463382
  N   1.45381720697147     -0.18202671160885      0.91696636818484
  O   2.55371117185818      0.17428984532523      0.50828632379570
  O   1.20083128298480     -0.71019244782141      1.99003760667686
  C   0.63604522300043      0.71059695247530     -1.22942502974837
  N   0.86616255963947      1.24936828471095     -2.25077647808142
