10
Coordinates from ORCA-job run
  C   -0.90350192216826     -0.46529141440006      0.24856203161529
  C   0.31211257846822      0.05927656116681     -0.00032375387792
  H   -0.98238054899970     -1.30297021023079      0.93527884807313
  C   -2.07877010928137      0.04821626546847     -0.36436153329739
  N   -3.06425334389515      0.45880458668743     -0.86197227320437
  N   1.50033612582158     -0.52916736292013      0.67599672748659
  O   2.57772199783073     -0.00877051368423      0.40750909314926
  O   1.30299196806052     -1.46963858427331      1.43163064750424
  C   0.57706004844508      1.15203706650139     -0.87144965252204
  N   0.75768320571836      2.05850360568443     -1.60087013492680
