10
Coordinates from ORCA-job run
  C   -0.91600179755402     -0.12214248345036     -0.55419840822247
  C   0.31459667360137      0.28998545488707     -0.18432669332816
  H   -1.31092276782061      0.28010170411535     -1.48414891715150
  C   -1.75433128755923     -1.03194647351821      0.14858317315635
  N   -2.53752974944512     -1.76642751665586      0.63158376795630
  N   0.99136383541525     -0.16832577063220      1.05478490728937
  O   2.10821925828250      0.29938595662667      1.25276052986104
  O   0.38454029173864     -0.96107694167268      1.76080504558424
  C   1.06790325292989      1.20962471510320     -0.97168236974757
  N   1.65216229041134      1.96982135519703     -1.65416103539759
