10
Coordinates from ORCA-job run
  C   -0.97401464538407     -0.07275112347278     -0.47635787854552
  C   0.30015431011290      0.29004412048700     -0.22329772290056
  H   -1.47789528673201      0.40831529966162     -1.31085233560190
  C   -1.72831594964015     -1.01901282457158      0.27229372368508
  N   -2.44099548709793     -1.76902404372290      0.83458618817169
  N   1.07787459738632     -0.26522221876016      0.90930315282674
  O   0.78115502573992     -1.38962046948853      1.28997701071559
  O   1.94624225493060      0.47269333252892      1.36332734335520
  C   0.98645623598358      1.27076844458111     -0.99555966746705
  N   1.53033894470083      2.07280948275731     -1.66341981423927
