10
Coordinates from ORCA-job run
  C   -0.91388600912987     -0.36050977416201      0.35939940182530
  C   0.31059826658360      0.06674919676462     -0.00491885163592
  H   -1.03294994707551     -0.85231872320884      1.32047811117741
  C   -2.04814082473453     -0.18079401295490     -0.47818179590866
  N   -3.00023245325870     -0.03769027249281     -1.15654613325850
  N   1.45384964453173     -0.15664716052074      0.92160913972952
  O   1.20684877670661     -0.69151222443373      1.99290580177280
  O   2.54888355811194      0.21790640664593      0.51597335529896
  C   0.62598410580909      0.72565950548591     -1.22539921108003
  N   0.84904488245564      1.27015705887658     -2.24531981792089
