10
Coordinates from ORCA-job run
  C   -0.99189916275340      0.08978737279949     -0.40944423846913
  C   0.33814657157590      0.22641473663110     -0.22713286766964
  H   -1.42727149432612      0.60479070752273     -1.26255689967710
  C   -1.88876418046993     -0.65957922590169      0.40198695075340
  N   -2.73019213516870     -1.23741553874744      0.98893883357668
  N   1.07962874697262     -0.41350782506190      0.88829937852926
  O   2.28820328089855     -0.20379489676369      0.91050020142436
  O   0.42951374090939     -1.08512016638038      1.67658857396831
  C   1.14110082076054      1.00951152379198     -1.10769379938667
  N   1.76153381160115      1.66891331210980     -1.85948613304946
