10
Coordinates from ORCA-job run
  C   -0.82527308044533     -0.64028428868373     -0.05810209401194
  C   0.29967183564096      0.09284073296021      0.05067024597347
  H   -0.78595950297928     -1.69863755085483      0.18263525566679
  C   -2.05523085690224     -0.06473956003800     -0.47782970727138
  N   -3.08374142762238      0.39390627290910     -0.82308037520083
  N   1.55214673244090     -0.57595185358014      0.49742486174403
  O   1.48916806079114     -1.77239648788719      0.74069629977936
  O   2.54030368300535      0.14544881036196      0.58033224500673
  C   0.40895416653689      1.48359733937373     -0.22702920238519
  N   0.46096038953400      2.63521658543889     -0.46671752930104
