10
Coordinates from ORCA-job run
  C   -1.03730511476615      0.22730886079969     -0.18618814146029
  C   0.31091058485122      0.27306505183020     -0.21546384564555
  H   -1.56901408450164      0.97704671513892     -0.76731578801247
  C   -1.83952523926918     -0.70156463079498      0.53373568310747
  N   -2.61045761475459     -1.40422055460960      1.07978930017067
  N   1.17552328224324     -0.67476421255391      0.53138229011800
  O   2.37849119840226     -0.43615026186010      0.49463946126910
  O   0.62036449771432     -1.59587857437760      1.11311450925168
  C   1.01532725170907      1.25484148500285     -0.97213415093450
  N   1.55668523837144      2.08131612142452     -1.61155931786411
