10
Coordinates from ORCA-job run
  C   -0.84592773254444     -0.61067513861796      0.07212539267046
  C   0.30101382668931      0.09481567713279      0.03714510026198
  H   -0.84630512606270     -1.58409350199560      0.55366155299384
  C   -2.04881144917764     -0.11338817468265     -0.49856629229732
  N   -3.05525769158321      0.28287524352978     -0.96478267676456
  N   1.52290565802184     -0.49120519360405      0.65325774523444
  O   2.53619460836922      0.19576633243864      0.58306579639391
  O   1.41291181573110     -1.59303454176224      1.17085724521209
  C   0.46425446332681      1.37860492402470     -0.55341135731618
  N   0.55802162722970      2.44033437353659     -1.05335250638866
