10
Coordinates from ORCA-job run
  C   -1.01410209194926      0.06447317518035     -0.38509241187832
  C   0.29319127966753      0.32554836904261     -0.17994737701791
  H   -1.56543956085725      0.73915405771662     -1.03524503502006
  C   -1.74423316955841     -1.00890281563330      0.19722495603913
  N   -2.44215320553111     -1.84777721877873      0.63969227245145
  N   1.13873045750116     -0.49635251740926      0.71772126867251
  O   0.82353467495590     -1.67016386618305      0.85870048198313
  O   2.07563953769340      0.09449674771499      1.24463566212370
  C   0.95585889180733      1.43940512353899     -0.77116830110644
  N   1.47897318627071      2.35911894481078     -1.28652151624719
