10
Coordinates from ORCA-job run
  C   -0.82689424372135     -0.63882817478843     -0.06291625125073
  C   0.30098128035919      0.08999178366135      0.04507307724370
  H   -0.77651368614428     -1.71027806085066      0.10749064629847
  C   -2.07361826263057     -0.04153080899686     -0.39377186983363
  N   -3.11396301194235      0.43699645240626     -0.66960383321002
  N   1.57207338306494     -0.60082406358226      0.39505061447100
  O   2.56135676160077      0.11808575381831      0.48460828957186
  O   1.52182807581972     -1.81095795998407      0.56092946377594
  C   0.39719245952002      1.49610120930104     -0.14784769652737
  N   0.43755724407392      2.66024386901532     -0.32001244053922
