10
Coordinates from ORCA-job run
  C   -1.03603080722984      0.15964188402671     -0.28571467173893
  C   0.29689235752134      0.32872279194782     -0.16707169733719
  H   -1.57544371326187      0.85335721806522     -0.92575640810274
  C   -1.79855694099583     -0.86626102491984      0.33916870810325
  N   -2.51468799419828     -1.68314673887365      0.79337937825643
  N   1.14686713622725     -0.57625240967110      0.64226247660903
  O   2.31089531440916     -0.67805998879163      0.26910392112749
  O   0.61533485691870     -1.14048288452545      1.58894087352154
  C   1.00245339244894      1.36329910344136     -0.84620679748727
  N   1.55227639816043      2.23918204930055     -1.40810578295160
