10
Coordinates from ORCA-job run
  C   -0.98801688267288     -0.03963545384815     -0.42825923135890
  C   0.32993851128499      0.19823095588091     -0.26298995320276
  H   -1.43281574978821      0.28249892308331     -1.36692380052545
  C   -1.86027889344970     -0.67121108458391      0.50162450050963
  N   -2.68007874666649     -1.17564532925102      1.17959451809021
  N   1.08099546709927     -0.18125637670303      0.95995174924254
  O   0.45602871628812     -0.74916577042737      1.84426368579818
  O   2.27132429207128      0.11605942264989      0.96452668776108
  C   1.11000923480352      0.84253496326840     -1.26765048772524
  N   1.71289405103011      1.37758974993097     -2.12513766858928
