10
Coordinates from ORCA-job run
  C   -0.81100665464344     -0.65582965881683     -0.07773423846130
  C   0.29610160045401      0.09934247690818      0.05930060960802
  H   -0.75889048354806     -1.71166529727898      0.17140382731970
  C   -2.03862921371668     -0.10675407444989     -0.53785886193042
  N   -3.06470221939209      0.32947728433122     -0.91768532627969
  N   1.54720584904340     -0.54275690402868      0.54705137289034
  O   1.49834655418358     -1.73753403550680      0.80150834877426
  O   2.52005943080186      0.19678842453591      0.64904085794010
  C   0.38749614492966      1.49003888663578     -0.22503304016631
  N   0.42501899188777      2.64089289767009     -0.47099354969469
