10
Coordinates from ORCA-job run
  C   -0.89583140611568     -0.50693300468401      0.18566975643747
  C   0.31158095584257      0.06270915702636      0.00576007328984
  H   -0.95953133465332     -1.43227986738385      0.75067900015143
  C   -2.08171919540783      0.07097058161415     -0.34357069517477
  N   -3.07559674666817      0.53398909712171     -0.77397324664875
  N   1.51113325466950     -0.59811509575860      0.58881574274302
  O   2.57980213627562     -0.02943814904498      0.39340395578151
  O   1.33046236224787     -1.63829859322739      1.20521370642466
  C   0.55779445373366      1.26870283319787     -0.70719568029931
  N   0.72290552007578      2.26969304113873     -1.30480261270509
