10
Coordinates from ORCA-job run
  C   -0.75810969397660     -0.68902351097796     -0.21377171000911
  C   0.28524269207770      0.10725479215061      0.08992643850079
  H   -0.64070449413865     -1.76500335182117     -0.12320490103936
  C   -2.00306856285927     -0.15643658294088     -0.64652270983072
  N   -3.04231219923815      0.26595102662734     -1.00565772669782
  N   1.56137723456710     -0.51753770953489      0.53157690756044
  O   1.58173073622275     -1.73611166666076      0.62809343183395
  O   2.48349334052913      0.25844161122751      0.75839332079759
  C   0.28544194762531      1.52817698091214      0.02245078901809
  N   0.24690899919069      2.70328841101807     -0.04128384013384
