10
Coordinates from ORCA-job run
  C   -1.01370359487536      0.11930604862835     -0.34604455241225
  C   0.32483281419923      0.24398111109836     -0.22940941971584
  H   -1.49708700935507      0.70301900836634     -1.12577626602433
  C   -1.86234915924436     -0.69767991803396      0.45195658669057
  N   -2.66642349571622     -1.32479661228369      1.04057213900297
  N   1.12573118402128     -0.47843914249002      0.79043254061745
  O   0.53923933468260     -1.30035904672872      1.48016819999611
  O   2.31345771555675     -0.17528206947460      0.84361620207273
  C   1.07870492037703      1.09950176088965     -1.08529221860612
  N   1.65959729035413      1.81174886002830     -1.82022321162129
