10
Coordinates from ORCA-job run
  C   -1.06602075997775      0.20732877737229     -0.03008774326579
  C   0.27072519422381      0.38748160494492     -0.02782507068237
  H   -1.69265702797437      1.09566685257572     -0.03660861029464
  C   -1.73093295867688     -1.05020550285211      0.00006131017553
  N   -2.37487995534892     -2.03489335778141      0.04555313606905
  N   1.22799119390416     -0.74297857178732      0.02199960184092
  O   0.85527169961689     -1.80898575303978     -0.44881566313212
  O   2.30814987371922     -0.49487469769966      0.54756897096560
  C   0.87081430969602      1.67948715621949     -0.02715705185605
  N   1.33253843081781      2.76197349204785     -0.04468887982012
