10
Coordinates from ORCA-job run
  C   -0.99553691376699      0.06971881335042     -0.43025416853584
  C   0.32342154852403      0.26293579794986     -0.22454523387725
  H   -1.44155867329478      0.53770969749887     -1.30429619966552
  C   -1.85319145930963     -0.71813125341646      0.38719582441207
  N   -2.63999983078482     -1.35902474370213      0.98444735103056
  N   1.05313424367188     -0.35616699222752      0.90715803932361
  O   2.24452925125895     -0.57142075933994      0.71010172548850
  O   0.40808347678573     -0.60239706506966      1.91728721409517
  C   1.13173678599404      1.03917482747610     -1.10400472085420
  N   1.76838157092159      1.69760167748046     -1.84308983141708
