10
Coordinates from ORCA-job run
  C   -0.96740337991569     -0.04775862948677     -0.49200238335338
  C   0.30130862088579      0.30520837393633     -0.20020686950396
  H   -1.46234390539910      0.48212796924904     -1.30199782441821
  C   -1.72612134139829     -1.04271734943743      0.18530563751209
  N   -2.44144938822995     -1.83078788325559      0.68897307989478
  N   1.06731678967959     -0.31387882279633      0.90719709784886
  O   1.92750556526178      0.39853667102103      1.41432176427141
  O   0.76860904762314     -1.45877326947635      1.21877530829912
  C   0.99227739160844      1.33339938899915     -0.90380320589270
  N   1.54030059988430      2.17564355124692     -1.51656260465801
