10
Coordinates from ORCA-job run
  C   -0.88603081973233     -0.52719007539487      0.17352119592262
  C   0.31034500201411      0.06965568858359      0.00892728131498
  H   -0.93404631631238     -1.46354055385851      0.72181268820904
  C   -2.08130954094350      0.03491412846165     -0.35202303698952
  N   -3.08371958508829      0.48354897895967     -0.77792469844938
  N   1.52052105652058     -0.57694931060098      0.58556401019181
  O   1.35870058675285     -1.63221482694542      1.18123177419379
  O   2.57794289459826      0.01729393327598      0.40609459483723
  C   0.53536910056791      1.29194223099458     -0.68295579380308
  N   0.68322762162279      2.30453980652431     -1.26524801542749
