10
Coordinates from ORCA-job run
  C   -0.95174001031102     -0.14156069181961     -0.48554680017963
  C   0.28884437589359      0.30609699959972     -0.20050345038016
  H   -1.42625024087474      0.25717660912359     -1.37908247289403
  C   -1.70453173903692     -1.08991914170253      0.26167329368691
  N   -2.42192373042362     -1.86219761075566      0.78619440220974
  N   1.06953708101628     -0.14754392490760      0.97770499712345
  O   0.50880382615936     -0.89993409545405      1.76182813358653
  O   2.21746908288690      0.27949607076439      1.04909927493147
  C   0.95439775215092      1.25718920391817     -1.02839241717873
  N   1.46539360253925      2.04119658123357     -1.74197496090555
