10
Coordinates from ORCA-job run
  C   -0.82790570958372     -0.63677700044852     -0.06385115709478
  C   0.30033806384366      0.09107896546893      0.04556479941974
  H   -0.77984413140755     -1.70691322385435      0.11480417948252
  C   -2.07205514365953     -0.04164885047166     -0.40773490268318
  N   -3.11155114663436      0.43255034895118     -0.69392524526382
  N   1.56766878616556     -0.60039030628346      0.40895202636271
  O   1.51335206222561     -1.80927033311012      0.58215307742899
  O   2.55764918981589      0.11713543953862      0.50160930561204
  C   0.40149169957260      1.49544347129273     -0.15566358483274
  N   0.45085632966185      2.65879148891664     -0.33090849843148
