10
Coordinates from ORCA-job run
  C   -0.90082939346774     -0.44171341464696      0.29595106222935
  C   0.31191827541070      0.06153017713582     -0.00522139459803
  H   -0.97657787526766     -1.19918495475526      1.07057945371703
  C   -2.07771853871367     -0.00654184506014     -0.37212680848093
  N   -3.06438052798964      0.34081410892374     -0.91360823603606
  N   1.50214588776858     -0.44190417459237      0.73324733602558
  O   1.30835443830071     -1.29365320804604      1.58854737564186
  O   2.57724847082599      0.05038070396247      0.40868063568574
  C   0.57197228608815      1.05405232736409     -0.99037557246896
  N   0.74786697704458      1.87622027971466     -1.81467385171559
