14

C	-0.097693	-0.013354	-1.537836
C	0.0	0.0	0.0
Br	-1.920284	-0.516272	-2.197437
H	1.108845	0.0	0.0
C	0.106162	1.347976	-2.063391
N	0.325406	2.399697	-2.543205
N	0.864457	-0.968054	-1.985876
H	1.731849	-0.774522	-1.44664
H	1.022945	-0.884958	-2.98203
C	-0.468933	-1.24063	0.587433
N	-0.836787	-2.227346	1.109175
C	-0.584623	1.162973	0.630957
N	-1.034803	2.108255	1.166181
F	2.516879	0.0	0.0
