14

C	-0.102055	0.095691	-1.561367
C	0.0	0.0	0.0
Br	0.198306	-1.727888	-2.277847
H	1.108072	0.0	0.0
C	-1.429579	0.502417	-2.024537
N	-2.493469	0.872346	-2.36093
N	0.922389	0.954999	-2.078288
H	0.646134	1.922327	-1.945218
H	1.765516	0.756391	-1.508866
C	-0.63529	-1.127496	0.641564
N	-1.140006	-2.031959	1.199367
C	-0.433926	1.264748	0.568225
N	-0.753969	2.30925	1.004678
F	2.513211	0.0	0.0
