14

C	-0.04862	-0.237688	-1.53439
C	0.0	0.0	0.0
Br	-1.85934	-0.757679	-2.155044
H	1.108675	0.0	0.0
C	0.267294	1.023004	-2.216379
N	0.510417	2.026305	-2.778415
N	0.900486	-1.245008	-1.941368
H	1.768213	-0.976401	-1.440422
H	0.593678	-2.136468	-1.562257
C	-0.457575	-1.171584	0.718281
N	-0.795273	-2.145689	1.284093
C	-0.61673	1.221643	0.460171
N	-1.108412	2.221558	0.836484
F	2.50178	0.0	0.0
