14

C	-0.116023	-0.077972	-1.543555
C	0.0	0.0	0.0
Br	0.184973	-2.06685	-2.053493
H	1.10806	0.0	0.0
C	-1.454417	0.184051	-2.074078
N	-2.54521	0.420042	-2.446841
N	0.868445	0.772748	-2.045701
H	1.749983	0.605404	-1.52171
H	0.968249	0.73535	-3.048997
C	-0.605415	-1.07929	0.747968
N	-1.095164	-1.915999	1.414747
C	-0.479545	1.292596	0.463361
N	-0.876523	2.322659	0.867145
F	2.52659	0.0	0.0
