14

C	-0.391637	0.210209	-1.468234
C	0.0	0.0	0.0
Br	0.353503	2.017459	-2.013291
H	1.107028	0.0	0.0
C	0.309384	-0.743708	-2.331289
N	0.798566	-1.509335	-3.076743
N	-1.790811	0.118079	-1.688347
H	-2.031231	0.309744	-2.653197
H	-2.282316	0.76364	-1.080326
C	-0.447636	-1.310167	0.445687
N	-0.772705	-2.374393	0.826663
C	-0.551817	1.040102	0.843658
N	-1.007368	1.879936	1.531344
F	2.424681	0.0	0.0
