17

C	0.0	0.0	0.0
C	-0.29347	-0.044006	-1.538767
Cl	1.767155	0.0	0.0
H	0.478265	0.602837	-1.967389
H	-0.302646	-0.875064	0.559218
N	-0.589335	1.154829	0.683464
O	-0.610175	1.109152	1.936035
O	-0.565454	2.236412	0.039999
C	-1.606863	0.472532	-2.136637
H	-2.41074	-0.261331	-2.072688
H	-1.409289	0.685727	-3.20189
H	-1.925402	1.391602	-1.651805
C	-0.051699	-1.470408	-2.037165
H	0.953515	-1.82939	-1.807255
H	-0.187405	-1.515041	-3.12315
H	-0.780824	-2.147604	-1.578927
H	-2.079953	0.0	0.0
