17

C	0.0	0.0	0.0
C	-0.328719	-0.078143	-1.526213
Cl	1.767048	0.0	0.0
H	0.540286	0.370939	-2.017729
H	-0.311795	-0.859887	0.575812
N	-0.514258	1.179377	0.710113
O	-0.561571	1.104692	1.954699
O	-0.468136	2.26493	0.089372
C	-1.535857	0.634327	-2.145048
H	-2.440467	0.034049	-2.083213
H	-1.295551	0.813977	-3.207077
H	-1.717289	1.590995	-1.66238
C	-0.363771	-1.559513	-1.896426
H	-1.234337	-2.013515	-1.41307
H	0.538409	-2.086138	-1.57326
H	-0.463053	-1.683095	-2.979841
H	-2.125114	0.0	0.0
