17

C	0.0	0.0	0.0
C	-0.281075	0.000888	-1.548802
Cl	1.763662	0.0	0.0
H	0.504022	-0.67079	-1.91614
H	-0.305475	-0.932123	0.459971
N	-0.578454	1.049391	0.847401
O	-0.572474	2.223249	0.409258
O	-0.596803	0.786458	2.072437
C	-0.028226	1.353332	-2.217722
H	-0.837969	2.045497	-1.994804
H	0.029073	1.201334	-3.302202
H	0.90248	1.811501	-1.883233
C	-1.566216	-0.604152	-2.11785
H	-1.842676	-1.529222	-1.61053
H	-1.374159	-0.827377	-3.18211
H	-2.413751	0.073002	-2.042259
H	-2.117779	0.0	0.0
