12
Coordinates from ORCA-job run
  C   -0.48025875624131      0.19877414294384     -0.19723377674917
  C   0.99760015565743      0.41146646257966      0.15172693063033
  F   -0.56193877231508      0.18137903691742     -1.59900367892362
  H   1.09285297089682      0.57975375761009      1.22654584735712
  H   1.36152249234170      1.29329222560864     -0.37963222770086
  C   -1.26352228479194      1.36747883740048      0.25195504075902
  N   -1.86625804329428      2.30894314101194      0.60891413868075
  N   -0.98752551062369     -0.97056116715836      0.40360894862279
  H   -0.46948425331419     -1.78997627132019      0.10756941941574
  H   -1.97242094639946     -1.09558312536921      0.20797425492739
  C   1.77932040756210     -0.75874724700287     -0.23843078719503
  N   2.37011254052191     -1.72521979322145     -0.54399410982446
