19
Coordinates from ORCA-job run
  C   -0.75323574262069      0.13376995650996      0.27261379471183
  C   0.75705254950507      0.20207300979042      0.53220447106357
  F   -1.32417237927951      1.06288167657781      1.15650918727606
  H   0.90280193968577      0.05897418830520      1.60482094612489
  C   -1.19054579046598      0.52751326058189     -1.12352301940344
  H   -2.27785673210299      0.44505396672154     -1.18088422358011
  H   -0.90814141093809      1.55494914542023     -1.34765617821811
  H   -0.75396113704492     -0.12626486051664     -1.88000614042586
  C   -1.28455317581287     -1.23240881296878      0.66862943508227
  H   -0.93016252681316     -1.51580114720127      1.66241861524356
  H   -2.37476565751579     -1.18441888005167      0.69639221692958
  H   -0.99294707421911     -2.00115347159549     -0.04843541895085
  N   1.23878100551740      1.60273403829150      0.29056589228309
  O   1.44816976467289      1.93275751532041     -0.87695474485116
  O   1.38486211940913      2.32464734197189      1.27345128801269
  C   1.59872112179932     -0.76452107072953     -0.27867766218594
  H   1.34661467429363     -1.79324514369460     -0.01850485362183
  H   2.65676815795145     -0.61253942495584     -0.05636441914324
  H   1.45457029397845     -0.61500128777703     -1.34759918634701
