19
Coordinates from ORCA-job run
  C   -0.73896770615255      0.15429640191613      0.29850888763109
  C   0.78060460704821      0.17418754400878      0.50831349227920
  F   -1.25139437892158      1.09314666566424      1.20788123038581
  H   0.95609809659838      0.01874614562821      1.57473981760513
  C   -1.21046150434427      0.57318897944703     -1.07904627587433
  H   -0.82128284242531     -0.08799621189768     -1.85478811492241
  H   -2.30114127261648      0.52513236727730     -1.09930617010851
  H   -0.90316416774518      1.59289250158247     -1.30562055412696
  C   -1.29882524003648     -1.19814012684023      0.70230112306360
  H   -2.38579841272781     -1.11870860711107      0.76353147180817
  H   -1.05158648089788     -1.97026623632389     -0.02768664071242
  H   -0.92278676897529     -1.49801692184548      1.68321624446831
  N   1.29677689049221      1.56135703332424      0.26034917790037
  O   1.47734039808861      1.89414539399235     -0.91116432787573
  O   1.49769642872697      2.27055900601758      1.24276130833440
  C   1.56453103393674     -0.81098165683614     -0.33717026586004
  H   1.38765625370172     -0.64815462325484     -1.39926432034780
  H   1.29089900364876     -1.83394281468244     -0.07621677754608
  H   2.63380606260123     -0.69244484006656     -0.15133930610182
