19
Coordinates from ORCA-job run
  C   -0.64427236354556      0.13218799414381     -0.22606917801309
  C   0.78833418390127     -0.19351644852231      0.23286076450505
  F   -0.56688854589784      1.12550837866667     -1.20929881811284
  H   0.75783682343058     -1.11200137930519      0.82221768999320
  C   -1.27292945440189     -1.08936903933321     -0.87357155236854
  H   -1.40091462886970     -1.89396946957262     -0.14614720611758
  H   -2.25428798072098     -0.81592979806735     -1.26552740087691
  H   -0.66867077347961     -1.45401458431900     -1.70500779328578
  C   -1.50849902798206      0.67917077699447      0.89370767803578
  H   -1.12596685842774      1.64257758754410      1.23346492190989
  H   -1.53630796003491     -0.00611824166136      1.74302979563057
  H   -2.52405151458157      0.82832766361439      0.52293331724926
  N   1.23417301555902      0.84998513786060      1.21354664679251
  O   1.16690667576211      0.55972078291318      2.40802612374908
  O   1.59340847967910      1.93466222989566      0.76211894661380
  C   1.80025256203127     -0.27801443959432     -0.89386101678654
  H   1.53789616922062     -1.08504431305680     -1.57869587684892
  H   1.82938688302347      0.66021630790230     -1.44285192230039
  H   2.79359431533443     -0.48537914610301     -0.49087511976853
