19
Coordinates from ORCA-job run
  C   -0.72840115964280      0.21678656587593      0.28606933526663
  C   0.78900290669631      0.15280643684037      0.50058467710849
  F   -1.18045389636040      1.23662839540925      1.13846067657356
  H   0.95432664999944      0.04624776648484      1.57460519444230
  C   -1.17125568462598      0.58504515674665     -1.11526851595532
  H   -2.26277563762079      0.60187712164576     -1.13972046571082
  H   -0.82008438537994     -0.14036803698924     -1.85066842782338
  H   -0.80260184292132      1.57028858398821     -1.39633014974290
  C   -1.37360804434196     -1.07185518028256      0.76396566646027
  H   -1.01605946680244     -1.34041327682460      1.76074939619695
  H   -2.45297893342580     -0.91847722847374      0.81872450967462
  H   -1.17897368405775     -1.89822562143931      0.07885045476678
  N   1.39275263432189      1.48865186418510      0.17867730325995
  O   1.59260733035657      1.74568412503187     -1.00856132420766
  O   1.64060961045037      2.23521624888141      1.12192913587133
  C   1.51100220203756     -0.92497403612144     -0.28513430164613
  H   1.35429590839871     -0.80535544350783     -1.35606029193055
  H   1.16642239533722     -1.91232084010915      0.02446370043124
  H   2.58417309758110     -0.86924260134152     -0.09233657303536
