16

C	0.0	0.0	0.0
C	-0.583664	0.191136	-1.40358
Br	1.948679	0.0	0.0
H	-1.686001	0.146213	-1.29144
N	-0.473717	1.119133	0.76812
H	-1.502277	1.080017	0.741776
H	-0.174304	1.011583	1.73219
C	-0.378178	-1.316577	0.545751
N	-0.621694	-2.330875	1.089731
N	-0.183362	-0.823075	-2.421915
O	-0.487025	-0.54996	-3.578819
O	0.352754	-1.856473	-2.037125
N	-0.226229	1.535526	-1.955857
O	-1.082474	2.408139	-1.879268
O	0.897241	1.653695	-2.440021
Br	-3.617751	0.0	0.0
