12

C	0.0	0.0	0.0
C	-0.403958	-0.770183	-1.268328
F	1.375069	0.0	0.0
H	0.545197	-1.02709	-1.757654
H	-0.37556	1.016635	-0.041935
H	-0.366318	-0.50276	0.891298
N	-1.074004	0.068265	-2.337842
O	-1.722813	-0.536325	-3.179159
O	-0.778697	1.256041	-2.367215
C	-1.107591	-2.029436	-1.056336
N	-1.428005	-3.151343	-0.920158
Br	-3.225128	0.0	0.0
