12

C	0.0	0.0	0.0
C	-0.520715	-0.231245	-1.398839
F	1.375471	0.0	0.0
H	-1.630263	-0.23512	-1.296954
H	-0.367108	-0.791621	0.649121
H	-0.371024	0.963158	0.350493
N	-0.122762	-1.594079	-1.900617
O	0.13735	-1.712641	-3.09519
O	-0.138588	-2.506664	-1.082317
C	-0.078021	0.784973	-2.34235
N	0.240302	1.64862	-3.070911
Br	-3.506661	0.0	0.0
