12

C	0.0	0.0	0.0
C	-0.234098	0.28647	-1.490445
F	1.377703	0.0	0.0
H	0.430367	-0.396689	-2.024842
H	-0.391356	0.78305	0.640532
H	-0.389575	-0.974255	0.282761
N	0.383217	1.649072	-1.788958
O	0.20038	2.5489	-0.97923
O	1.004567	1.744606	-2.84299
C	-1.501334	0.265201	-2.226047
N	-2.160108	0.307233	-3.20269
Br	-3.279088	0.0	0.0
