12

C	0.0	0.0	0.0
C	-0.519597	0.061664	-1.417248
F	1.375808	0.0	0.0
H	-1.629687	0.057935	-1.320591
H	-0.370895	-0.905754	0.473547
H	-0.366136	0.873637	0.539818
N	-0.15057	-1.182147	-2.18441
O	-0.152612	-2.236695	-1.560188
O	0.071971	-1.066024	-3.386592
C	-0.047345	1.234327	-2.138922
N	0.328092	2.223928	-2.647131
Br	-3.521397	0.0	0.0
