12

C	0.0	0.0	0.0
C	-0.249948	0.10403	-1.51005
F	1.377592	0.0	0.0
H	0.484216	-0.567698	-1.96238
H	-0.380338	-0.938166	0.398628
H	-0.391975	0.849516	0.548821
N	0.236445	1.473561	-1.978577
O	0.063769	2.435524	-1.241745
O	0.764063	1.505229	-3.087207
C	-1.500224	-0.156716	-2.229335
N	-2.153629	-0.368538	-3.187324
Br	-3.319126	0.0	0.0
