12

C	0.0	0.0	0.0
C	-0.521705	0.092781	-1.413805
F	1.375845	0.0	0.0
H	-1.633494	0.097668	-1.320198
H	-0.367084	0.861111	0.559101
H	-0.368757	-0.915725	0.455325
N	-0.171251	-1.135636	-2.211909
O	-0.0203	-1.001327	-3.422771
O	-0.128701	-2.199354	-1.601992
C	-0.042847	1.275879	-2.113789
N	0.311278	2.266329	-2.635451
Br	-3.515514	0.0	0.0
