12

C	0.0	0.0	0.0
C	-0.227826	-0.03817	-1.528009
F	1.377676	0.0	0.0
H	0.526889	-0.732113	-1.907624
H	-0.39008	-0.894571	0.477452
H	-0.399087	0.897383	0.457063
N	0.242422	1.295917	-2.104013
O	0.057662	2.313607	-1.447287
O	0.767296	1.245487	-3.212839
C	-1.46102	-0.368805	-2.242319
N	-2.181962	-0.643637	-3.128249
Br	-3.254855	0.0	0.0
