12

C	0.0	0.0	0.0
C	-0.521131	-0.103968	-1.413787
F	1.375701	0.0	0.0
H	-1.631609	-0.093729	-1.319747
H	-0.369219	0.929229	0.434314
H	-0.367537	-0.844783	0.577399
N	-0.156216	-1.425565	-2.038653
O	-0.075095	-2.391792	-1.288678
O	-0.024321	-1.458288	-3.259302
C	-0.047576	0.976916	-2.267119
N	0.321717	1.891679	-2.903759
Br	-3.514705	0.0	0.0
