18

C	-0.303811	0.007015	-1.486095
C	0.0	0.0	0.0
Br	-2.557767	-0.177634	-1.515561
H	1.099986	0.0	0.0
N	0.05175	1.173998	-2.072062
H	0.550099	1.150113	-2.942708
H	0.23241	1.935344	-1.434176
C	0.127888	-1.230875	-2.223864
H	1.217011	-1.29268	-2.11192
H	-0.32512	-2.11461	-1.786307
H	-0.139978	-1.161174	-3.281359
N	-0.439295	-1.224243	0.634143
H	0.057361	-1.333504	1.512702
H	-1.440469	-1.190305	0.804727
N	-0.40696	1.279994	0.570591
H	-1.409586	1.275544	0.732614
H	0.080896	1.423435	1.446294
Br	3.572313	0.0	0.0
