18

C	-0.313763	0.001819	-1.494654
C	0.0	0.0	0.0
Br	-2.350092	0.020737	-1.664811
H	1.098813	0.0	0.0
N	0.17779	1.17233	-2.154133
H	0.094771	1.937965	-1.490024
H	1.172143	1.020885	-2.313583
C	0.184761	-1.249936	-2.179424
H	-0.286615	-2.135989	-1.762432
H	-0.003622	-1.182922	-3.252801
H	1.26346	-1.313261	-1.993313
N	-0.447448	-1.22239	0.643927
H	-1.43572	-1.157754	0.862332
H	0.073347	-1.347659	1.503392
N	-0.406071	1.27349	0.591664
H	0.166925	1.450903	1.408124
H	-1.379907	1.232249	0.871754
Br	3.568085	0.0	0.0
