18

C	-0.288912	-0.003636	-1.503161
C	0.0	0.0	0.0
Br	-2.266099	0.150651	-1.792297
H	1.105243	0.0	0.0
N	0.325873	1.130836	-2.14699
H	0.147996	1.92842	-1.541233
H	1.332458	0.966268	-2.104542
C	0.181412	-1.279789	-2.172466
H	0.083795	-1.174677	-3.254311
H	1.237481	-1.427363	-1.916
H	-0.400612	-2.143975	-1.850288
N	-0.555543	-1.162946	0.701341
H	-0.134095	-2.000808	0.312233
H	-0.202381	-1.108431	1.652986
N	-0.439903	1.242696	0.596962
H	-1.395527	1.128943	0.917314
H	0.157208	1.46589	1.383826
Br	3.58541	0.0	0.0
