13

C	0.0	0.0	0.0
C	-0.48385	-0.23354	-1.430833
Cl	1.767915	0.0	0.0
H	-0.12429	0.588106	-2.052237
H	-1.599444	-0.191824	-1.257053
N	-0.442707	1.383061	0.472757
O	-0.514556	2.253992	-0.381733
O	-0.570039	1.532566	1.677058
C	-0.476987	-1.007216	0.94149
N	-0.610903	-1.894509	1.701098
C	-0.027302	-1.505988	-1.953125
N	0.313806	-2.531831	-2.415195
F	-2.499553	0.0	0.0
