13

C	0.0	0.0	0.0
C	-0.3063	-0.048147	-1.509473
Cl	1.770392	0.0	0.0
H	0.308783	0.723979	-1.977072
H	0.084929	-1.009532	-1.859489
N	-0.419391	1.314306	0.62593
O	-0.533765	1.329329	1.841784
O	-0.478652	2.277345	-0.124907
C	-0.494744	-1.129244	0.770984
N	-0.593712	-2.132073	1.378883
C	-1.674156	0.111505	-2.00916
N	-2.493582	0.240654	-2.847513
F	-2.284196	0.0	0.0
