13

C	0.0	0.0	0.0
C	-0.318326	0.077902	-1.505684
Cl	1.770349	0.0	0.0
H	0.081132	-0.844181	-1.941646
H	0.278564	0.898609	-1.910984
N	-0.423695	1.252548	0.737236
O	-0.487603	2.276474	0.072708
O	-0.535765	1.16178	1.950075
C	-0.495487	-1.192591	0.670041
N	-0.597179	-2.240363	1.195699
C	-1.697902	0.254199	-1.973866
N	-2.523541	0.419425	-2.801463
F	-2.296216	0.0	0.0
