13

C	0.0	0.0	0.0
C	-0.306475	-0.023732	-1.509806
Cl	1.770207	0.0	0.0
H	0.316885	0.748323	-1.966975
H	0.073037	-0.9848	-1.872059
N	-0.421532	1.302616	0.646127
O	-0.53712	1.298708	1.861936
O	-0.480513	2.277362	-0.089674
C	-0.497939	-1.143063	0.748462
N	-0.597599	-2.160591	1.330823
C	-1.672063	0.159982	-2.006587
N	-2.49044	0.316854	-2.841001
F	-2.285567	0.0	0.0
