13

C	0.0	0.0	0.0
C	-0.287009	0.044708	-1.51446
Cl	1.769947	0.0	0.0
H	0.337556	0.843645	-1.922823
H	0.112406	-0.893332	-1.911486
N	-0.423571	1.276899	0.700414
O	-0.491997	2.279976	0.005044
O	-0.539921	1.219793	1.914434
C	-0.518047	-1.175222	0.686042
N	-0.636194	-2.221142	1.213844
C	-1.641738	0.226842	-2.039837
N	-2.452738	0.38704	-2.879199
F	-2.286515	0.0	0.0
