13

C	-0.052531	0.011569	-1.504347
C	0.048521	-0.061442	0.020129
F	0.083251	-1.330534	-1.979919
H	1.110045	-0.258728	0.20041
H	-0.166964	0.927448	0.432102
C	-1.412298	0.400189	-1.96618
N	-2.478941	0.732806	-2.328434
N	0.919575	0.88643	-1.978458
H	0.994274	0.829659	-2.985935
H	1.829255	0.668341	-1.444824
C	-0.844644	-1.050895	0.603478
N	-1.559901	-1.836046	1.104479
F	2.733937	0.175551	-0.367254
