13

C	-0.094634	-0.181844	-1.482753
C	-0.061187	0.004936	0.032467
F	-1.369175	-0.632909	-1.878163
H	0.992054	0.216198	0.241437
H	-0.706038	0.837405	0.326114
C	0.024589	1.159082	-2.133908
N	0.129092	2.190138	-2.687336
N	0.899533	-1.103975	-1.859034
H	1.780583	-0.741062	-1.367502
H	1.021794	-1.087461	-2.865206
C	-0.508359	-1.201753	0.716654
N	-0.887203	-2.134908	1.319762
F	2.612381	0.159792	-0.46482
