13

C	-0.071236	0.043885	-1.515219
C	-0.046621	-0.02571	0.014672
F	0.061743	-1.325385	-1.937086
H	1.012974	-0.187461	0.237343
H	-0.666676	-0.862076	0.344651
C	-1.401162	0.426585	-2.057322
N	-2.448943	0.725291	-2.496216
N	0.938191	0.880316	-1.963948
H	1.028481	0.845951	-2.970933
H	1.82805	0.618955	-1.413297
C	-0.513012	1.207125	0.63314
N	-0.901487	2.177561	1.168284
F	2.67466	0.050349	-0.329543
