13

C	-0.174037	0.079984	-1.487402
C	0.03741	0.014194	0.031564
F	-1.45845	-0.410236	-1.766841
H	1.067476	0.352695	0.155243
H	-0.00976	-1.043338	0.31285
C	-0.157693	1.493831	-1.935391
N	-0.201385	2.608753	-2.29761
N	0.794917	-0.651042	-2.228917
H	0.722383	-1.617676	-1.919823
H	1.706863	-0.270785	-1.81912
C	-0.946879	0.759601	0.802954
N	-1.738082	1.352583	1.437259
F	2.587684	0.440254	-0.771906
