13

C	-0.276373	0.083116	-1.323801
C	-0.013566	0.137867	0.177153
F	0.105911	1.305899	-1.862068
H	1.057634	0.315657	0.267917
H	-0.209621	-0.845179	0.615538
C	0.506814	-1.010187	-1.992155
N	0.360772	-1.895639	-2.773584
N	-1.699861	-0.029277	-1.582072
H	-1.78921	-0.191905	-2.581066
H	-2.009271	-0.893224	-1.147681
C	-0.811216	1.154652	0.858093
N	-1.416965	1.961486	1.458193
F	2.078136	-0.650717	-1.153437
