16

C	0.0	0.0	0.0
C	-0.505088	0.196024	-1.470841
Br	2.000981	0.0	0.0
H	0.383836	0.348888	-2.087892
N	-0.202586	1.356554	0.809517
O	-0.548049	1.239065	1.97801
O	0.062893	2.409609	0.244552
N	-0.532391	-1.078735	0.656483
H	-0.259109	-1.042228	1.63209
H	-1.576081	-0.87499	0.556591
C	-1.340665	1.395276	-1.700372
N	-1.92609	2.309337	-2.151686
N	-1.179208	-1.010175	-1.932735
H	-1.387138	-0.873007	-2.917374
H	-2.065335	-0.980353	-1.41501
F	-2.716419	0.0	0.0
