17

C	-0.463499	-0.010302	-1.457725
C	0.0	0.0	0.0
Cl	-2.408601	-0.060007	-1.410532
H	1.095942	0.0	0.0
N	-0.00464	1.110286	-2.128788
H	-0.385041	1.236256	-3.05445
H	-0.094915	1.921065	-1.526685
C	-0.151851	-1.247497	-2.172785
N	0.080014	-2.237015	-2.762116
C	-0.461384	-1.204272	0.80397
H	-1.543213	-1.197144	0.9624
H	-0.184323	-2.139585	0.311049
H	0.044131	-1.181788	1.772495
N	-0.378069	1.297793	0.559777
H	0.344916	1.584443	1.208771
H	-1.261438	1.232163	1.052087
Br	3.530298	0.0	0.0
