17

C	-0.542386	0.004119	-1.434921
C	0.0	0.0	0.0
Cl	0.292536	-1.324969	-2.395559
H	1.094051	0.0	0.0
N	-1.968389	-0.152936	-1.446024
H	-2.322803	-0.057085	-2.39072
H	-2.200265	-1.081476	-1.114422
C	-0.216538	1.259134	-2.122997
N	0.007508	2.225718	-2.750411
C	-0.450193	-1.233458	0.778734
H	-1.524546	-1.20447	0.996541
H	-0.20986	-2.160803	0.25387
H	0.087279	-1.245752	1.729021
N	-0.418669	1.260285	0.601871
H	-1.285416	1.158765	1.113014
H	0.310397	1.587673	1.222101
Br	3.564881	0.0	0.0
