17

C	-0.518073	0.045635	-1.443393
C	0.0	0.0	0.0
Cl	0.21818	1.436192	-2.297016
H	1.094024	0.0	0.0
N	-0.177617	-1.146684	-2.188416
H	-0.444959	-1.031733	-3.159097
H	-0.685807	-1.936236	-1.807596
C	-1.98095	0.290177	-1.423487
N	-3.155844	0.324246	-1.460917
C	-0.471694	-1.262055	0.71004
H	-0.085397	-1.243639	1.731731
H	-1.566265	-1.324759	0.750105
H	-0.065435	-2.158625	0.23898
N	-0.485131	1.209832	0.672155
H	-0.958645	0.974789	1.534326
H	0.312011	1.791379	0.899589
Br	3.611574	0.0	0.0
