17

C	-0.262738	-0.032346	-1.537683
C	0.0	0.0	0.0
Cl	-0.00881	1.692091	-2.222464
H	1.098095	0.0	0.0
N	0.608518	-0.975249	-2.118265
H	0.583406	-0.957079	-3.12837
H	1.561678	-0.825974	-1.778326
C	-1.664202	-0.321186	-1.863771
N	-2.799238	-0.555062	-2.060046
C	-0.504614	-1.289939	0.629085
H	-0.124307	-1.332746	1.65016
H	-1.599946	-1.308286	0.666461
H	-0.153729	-2.162886	0.079736
N	-0.511873	1.134544	0.729074
H	-1.491628	1.288058	0.514078
H	0.00254	1.9649	0.47084
Br	3.571774	0.0	0.0
