17

C	-0.31569	-0.048828	-1.504027
C	0.0	0.0	0.0
Cl	-0.041999	1.65202	-2.223773
H	1.104122	0.0	0.0
N	0.523501	-1.016874	-2.101311
H	1.488253	-0.864075	-1.8021
H	0.461579	-1.003517	-3.110631
C	-1.729527	-0.327054	-1.784408
N	-2.85407	-0.576884	-2.015439
C	-0.487267	-1.273517	0.674632
H	-0.143756	-2.155046	0.135048
H	-1.579794	-1.281652	0.737149
H	-0.074664	-1.315941	1.686904
N	-0.622362	1.152607	0.637371
H	-0.543476	1.021514	1.639688
H	-0.0785	1.97828	0.4136
Br	3.584438	0.0	0.0
