17

C	-0.424678	-0.004927	-1.470819
C	0.0	0.0	0.0
Cl	-2.373069	-0.043569	-1.481878
H	1.096792	0.0	0.0
N	0.063379	1.110917	-2.124329
H	-0.263815	1.236935	-3.069631
H	-0.030326	1.925758	-1.529598
C	-0.099531	-1.243152	-2.177891
N	0.145988	-2.232771	-2.761404
C	-0.473376	-1.212523	0.783196
H	-0.133773	-2.140045	0.314767
H	-0.032402	-1.169072	1.782211
H	-1.563073	-1.239447	0.872139
N	-0.393832	1.293993	0.554062
H	-1.301492	1.228851	1.00092
H	0.297939	1.568804	1.240864
Br	3.531519	0.0	0.0
