17

C	-0.543042	-0.046333	-1.433493
C	0.0	0.0	0.0
Cl	0.314067	-1.390926	-2.352793
H	1.097905	0.0	0.0
N	-1.965896	-0.225902	-1.441572
H	-2.319636	-0.164249	-2.389364
H	-2.183812	-1.147592	-1.082088
C	-0.239593	1.191134	-2.161811
N	-0.080765	2.146746	-2.82452
C	-0.445769	-1.208929	0.81905
H	-0.205895	-2.152047	0.322427
H	0.09531	-1.190668	1.767552
H	-1.519591	-1.174253	1.039554
N	-0.41996	1.277745	0.564357
H	-1.273762	1.183491	1.100915
H	0.320098	1.628404	1.159092
Br	3.566514	0.0	0.0
