17

C	-0.237683	0.033371	-1.533425
C	0.0	0.0	0.0
Cl	-1.980996	0.435534	-1.923756
H	1.100286	0.0	0.0
N	0.600186	1.061463	-2.083027
H	1.547729	0.926819	-1.716831
H	0.626104	1.007375	-3.094385
C	-0.032753	-1.287826	-2.151861
N	0.151685	-2.329921	-2.664673
C	-0.588606	-1.21603	0.679333
H	-0.194982	-2.144762	0.262917
H	-0.3282	-1.169112	1.7371
H	-1.680552	-1.223961	0.590466
N	-0.415356	1.219984	0.66758
H	0.156938	1.982762	0.329589
H	-1.379231	1.432352	0.43254
Br	3.536691	0.0	0.0
