17
Coordinates from ORCA-job run
  C   0.47307657631464      0.28171560290161     -0.51929320089209
  C   -0.60033237947441     -0.65713611595423      0.03603517264443
  H   0.35816541655241      0.27751275525240     -1.61907301269888
  H   -0.40427661631944     -1.67070508983523     -0.34653625733808
  C   1.87372040154006     -0.19672220699390     -0.18040649515307
  H   2.00068085966957     -0.22358104290365      0.90111345893712
  H   2.04743991709334     -1.19989951040697     -0.57897107419640
  H   2.62541451894985      0.47071597030781     -0.61292824359565
  N   0.23818645956685      1.60137090417063      0.06316773856375
  H   -0.68819079319205      1.91032451398907     -0.20824611380391
  H   0.91827969400665      2.26415223034062     -0.28837398009204
  N   -1.90701087350820     -0.14175005824930     -0.42084968180792
  H   -2.64863635912266     -0.67418470225898      0.02081729680704
  H   -1.99471396211880     -0.28943447789662     -1.42248024496807
  N   -0.49322152220365     -0.70533894047933      1.47340458316324
  H   -0.57784390393954      0.24004667985333      1.82838179478282
  H   -1.21973743381461     -1.28408651183726      1.87623825964770
