17
Coordinates from ORCA-job run
  C   0.46789663008169      0.50742409249545     -0.19219315538496
  C   -0.52440092176668     -0.50384919766946      0.37854308470378
  H   -0.10522576492769      1.15491502812226     -0.88838403662859
  H   0.02547162687882     -1.12108768473303      1.09674076978625
  C   1.58983392386041     -0.16262057201806     -0.96830617595478
  H   1.20846222831689     -0.72066471980333     -1.82232289960385
  H   2.30370536586415      0.58635477442073     -1.32462114607754
  H   2.12391648214441     -0.84919445004709     -0.30732551143300
  N   1.03268742362964      1.24877596346775      0.93027442014731
  H   1.56816899256504      2.03785096699866      0.58878960770886
  H   0.26984211647437      1.59425654848473      1.50054446447275
  N   -1.00459973537193     -1.38057165612002     -0.68246035782472
  H   -1.63340013846337     -2.07637353865751     -0.29857567097162
  H   -1.52828179299221     -0.83768496776235     -1.36186650760531
  N   -1.53599323997642      0.23267596434102      1.14547512781985
  H   -2.08687022303353     -0.40805521980342      1.70485366499693
  H   -2.16921297328359      0.69584866828367      0.50083432184864
