17
Coordinates from ORCA-job run
  C   0.45921745523822      0.24432286193888     -0.50608040018631
  C   -0.74165472646272     -0.57818404019636     -0.01259512998885
  H   0.40811614406317      0.25363958816143     -1.61072281369319
  H   -0.62076563224957     -1.61290647476443     -0.37195679470973
  C   1.78295475053381     -0.37752540263554     -0.09591741668303
  H   1.87305076553527     -0.38306191848383      0.99210659144403
  H   2.62439960363524      0.19492659519595     -0.49650615105529
  H   1.87021370948935     -1.40228234165984     -0.46863537666266
  N   0.33500828028248      1.57677977499292      0.07661843832983
  H   1.06604596249828      2.18449581222817     -0.27240016778201
  H   -0.56379751974937      1.95595100686181     -0.20127787675994
  N   -1.95326454279959      0.06292399275730     -0.52385694321087
  H   -2.05553506300978     -0.11955892375332     -1.51589440539744
  H   -2.74388646614360     -0.34281826406701     -0.03805795767677
  N   -0.87794664229951     -0.63208872369508      1.43173591650250
  H   -0.63219897193437      0.28278473307045      1.79710532597622
  H   -0.23095710662729     -1.30739827595150      1.81733516155352
