13
Coordinates from ORCA-job run
  C   1.06667099058540      0.13611552707120      0.46025316186483
  C   -0.46791893351345      0.05783443660152      0.36148087090385
  Cl  1.57752243414660      0.43938251264564      2.14128400691321
  H   -0.80537199902751     -0.71056345498773      1.06550815431684
  H   1.43089180897112      0.97586104552601     -0.13744647015817
  C   1.67622790557302     -1.09835272001267     -0.02591059430603
  N   2.13754903572384     -2.09914393565995     -0.43215175924359
  C   -0.92715088162289     -0.29013863836882     -1.05864263802662
  H   -0.55757789680968     -1.27410809900673     -1.35025654988247
  H   -2.01697742985987     -0.30212285024556     -1.10227249612842
  H   -0.56635371351888      0.45165678251108     -1.77462143795450
  C   -1.03878902753450      1.33988560963797      0.78036708255803
  N   -1.50772229311319      2.37569378428804      1.07240866914304
