13
Coordinates from ORCA-job run
  C   1.09827635966067      0.16618919943437      0.36489620766238
  C   -0.43739907719031      0.06123847581087      0.39498731353971
  Cl  1.73981827111173      0.53889215626833      1.98602348645040
  H   -0.70200852707946     -0.69379678729067      1.14333153923619
  H   1.39812073413421      0.98765495302822     -0.29103087331214
  C   1.68603498542539     -1.07832190637226     -0.12310603511372
  N   2.12924463923295     -2.08907277278987     -0.52462814787852
  C   -1.00360172187872     -0.33229621062495     -0.97375288821854
  H   -0.64386516290188     -1.31931044257719     -1.26755609834686
  H   -0.71186639747032      0.39399143539610     -1.73566075821061
  H   -2.09315146752159     -0.35917783674855     -0.92993780027652
  C   -0.99707379831648      1.34398814844888      0.82679248181545
  N   -1.46152883720618      2.37902158801674      1.12864157265278
