13
Coordinates from ORCA-job run
  C   1.04371508862111     -0.41753337897685      0.09496481107261
  C   -0.36169653955641      0.18722027287074      0.26249519010503
  Cl  1.46735912877921     -0.63042607111611     -1.62324595051867
  H   -0.50735933934859      0.31459139227579      1.34274230418560
  H   1.04494866956364     -1.41469730723624      0.54332199843169
  C   2.05338859827249      0.40018592662071      0.76112968285163
  N   2.84708673005140      1.05375836478339      1.32869888965304
  C   -1.45952233351101     -0.72786455559105     -0.28366202098117
  H   -1.36036271845915     -0.85629811522374     -1.36108575237926
  H   -1.40334334966268     -1.70733280555359      0.19739167103988
  H   -2.43960089338307     -0.29684958069682     -0.07499621329013
  C   -0.42359434926287      1.51716593998478     -0.34684193300685
  N   -0.50301869210407      2.57907991785899     -0.84091267716342
