13
Coordinates from ORCA-job run
  C   1.10445337708465      0.17785472865791      0.34121720355684
  C   -0.42973823295343      0.06597633893912      0.40480570765569
  Cl  1.77710638552936      0.57374263012850      1.94429339074278
  H   -0.67530066922862     -0.67492237279030      1.17332480702669
  H   1.38604136800839      0.99331860913661     -0.33020675834054
  C   1.68955256207772     -1.06833308955493     -0.14559541759630
  N   2.13065937423409     -2.07899749928630     -0.54968965074548
  C   -1.02231633043433     -0.35717236961944     -0.94384883259685
  H   -0.66453667510234     -1.34842862379595     -1.22536452406935
  H   -2.11062271454928     -0.38731859915997     -0.87664820466547
  H   -0.74954443663373      0.35471160965569     -1.72608313371648
  C   -0.98617711246992      1.35501906820151      0.82168095838182
  N   -1.44957689556255      2.39354956948755      1.11311445436666
