13
Coordinates from ORCA-job run
  C   0.99983463067588     -0.04668441301909      0.71285747641402
  C   -0.50353466525475      0.17257319058286      0.44781358346751
  Cl  1.26482513119980     -1.64811202829719      1.45627407524497
  H   -1.01621779611276     -0.00178677399628      1.40040348412578
  H   1.35610914804087      0.68998239969426      1.43615893505777
  C   1.78112377608569      0.07462147882042     -0.51443700511354
  N   2.38729251997070      0.18506543255114     -1.51431534431356
  C   -1.07257446982282     -0.75644940449298     -0.62524458994379
  H   -0.57985477958661     -0.58551762955280     -1.58386622437649
  H   -0.93473340199367     -1.79824144309413     -0.33488856866279
  H   -2.14007364008319     -0.56892982764594     -0.74779113595212
  C   -0.69839833894691      1.57857168915605      0.08329404137371
  N   -0.84479811417224      2.70490732929368     -0.21525872732146
