13
Coordinates from ORCA-job run
  C   1.03464698094742     -0.32290470821407      0.31721602596723
  C   -0.38675116896318      0.24529960904684      0.15612132223519
  Cl  1.62618814740651     -1.05337488816813     -1.19726314879291
  H   -0.63836016031715      0.70384608888728      1.12092532303797
  H   1.00301211015825     -1.12480782053216      1.05966168157601
  C   1.96484398442290      0.70631064933569      0.77252991691127
  N   2.68639001334188      1.54564215677666      1.16518209947629
  C   -1.41660087786042     -0.84015752712108     -0.16340051877107
  H   -2.41674260469162     -0.40557065313498     -0.19083999577172
  H   -1.39681373273294     -1.61333639390974      0.60846888755520
  H   -1.21232684076711     -1.29952503720358     -1.13014991134221
  C   -0.40249161310752      1.30781168171134     -0.85122858437488
  N   -0.44399423783700      2.15076684252593     -1.66722309770635
