13
Coordinates from ORCA-job run
  C   1.01040938532256     -0.04306216566233      0.69871339462432
  C   -0.49373250035330      0.19129018573896      0.45160364114325
  Cl  1.26352924952265     -1.62841966964500      1.48033507487874
  H   -0.99426802279383      0.04485674329866      1.41537673146110
  H   1.38933413705656      0.70685692195386      1.39625014257309
  C   1.77305167860358      0.03165268691447     -0.54366755522377
  N   2.36289436078872      0.09974389853872     -1.55706571138909
  C   -1.09160259105298     -0.75314364954669     -0.59192362129387
  H   -0.96218609694409     -1.78999327528157     -0.28084469755736
  H   -2.15848537940456     -0.55462972843820     -0.70177503729608
  H   -0.61240567062508     -0.60978389843839     -1.56185227718092
  C   -0.67533614813295      1.59170566685833      0.05925431424515
  N   -0.81120240198728      2.71292628370918     -0.26240439898456
