14

C	-0.139213	0.042026	-1.540421
C	0.0	0.0	0.0
Br	-0.297024	-1.899121	-2.215948
H	1.093509	0.0	0.0
H	-0.330114	0.992464	0.333737
C	-1.361697	0.664896	-2.045909
N	-2.291495	1.269973	-2.436113
N	1.016418	0.634311	-2.094842
H	1.82764	0.506056	-1.446231
H	0.863924	1.584464	-2.396787
N	-0.746425	-1.029593	0.702644
H	-0.142877	-1.839424	0.80124
H	-0.948822	-0.698629	1.637613
F	2.742075	0.0	0.0
