14

C	-0.547371	0.032888	-1.415912
C	0.0	0.0	0.0
Br	-0.01001	1.681869	-2.338881
H	1.092507	0.0	0.0
H	-0.334314	-0.970322	0.413613
C	0.027808	-1.073162	-2.203447
N	0.371678	-2.013405	-2.820829
N	-2.004742	-0.002702	-1.439506
H	-2.291049	-0.856585	-0.96701
H	-2.33146	-0.052143	-2.399897
N	-0.455673	1.14975	0.76575
H	0.327625	1.44752	1.33207
H	-1.23933	0.93494	1.363749
F	2.640552	0.0	0.0
