14

C	-0.605249	0.00568	-1.397869
C	0.0	0.0	0.0
Br	0.393011	1.415649	-2.501804
H	1.095197	0.0	0.0
H	-0.389921	-0.904102	0.484158
C	-0.358904	-1.241799	-2.120103
N	-0.204801	-2.268565	-2.670139
N	-1.993459	0.288432	-1.350599
H	-2.364304	0.515273	-2.26418
H	-2.085381	1.079153	-0.715076
N	-0.484572	1.208938	0.701405
H	-0.777652	0.952305	1.635737
H	0.334412	1.798954	0.808746
F	2.643434	0.0	0.0
