14

C	-0.54749	0.060133	-1.414926
C	0.0	0.0	0.0
Br	-0.010268	1.725894	-2.30806
H	1.092521	0.0	0.0
H	-0.333336	-0.978134	0.395074
C	0.029965	-1.029627	-2.222924
N	0.369496	-1.962963	-2.852695
N	-2.004348	0.022596	-1.440385
H	-2.33126	-0.013281	-2.400778
H	-2.289876	-0.837024	-0.979189
N	-0.454791	1.134551	0.790014
H	0.331219	1.421075	1.358308
H	-1.233839	0.904469	1.389311
F	2.641889	0.0	0.0
