14

C	-0.604796	0.004257	-1.398148
C	0.0	0.0	0.0
Br	0.382294	1.426006	-2.497305
H	1.094856	0.0	0.0
H	-0.389131	-0.904983	0.483389
C	-0.346256	-1.239481	-2.123273
N	-0.163072	-2.259348	-2.677743
N	-1.995096	0.275255	-1.350282
H	-2.093928	1.06343	-0.713335
H	-2.368737	0.500161	-2.263432
N	-0.488579	1.207257	0.701782
H	0.326524	1.802866	0.801436
H	-0.770945	0.949734	1.638518
F	2.644238	0.0	0.0
