14

C	-0.047734	0.296497	-1.512322
C	0.0	0.0	0.0
Br	-0.625938	-1.793806	-2.446231
H	1.092107	0.0	0.0
H	-0.453906	-0.959334	0.239377
C	-1.20166	0.982242	-2.067594
N	-2.132376	1.584671	-2.465542
N	1.158989	0.708714	-1.9176
H	1.996856	0.419578	-1.289419
H	1.281697	0.998894	-2.876072
N	-0.501183	1.15375	0.73111
H	0.164311	1.395451	1.452336
H	-1.393246	0.955185	1.16103
F	2.775292	0.0	0.0
