14

C	-0.035394	0.311115	-1.510174
C	0.0	0.0	0.0
Br	-0.577608	-1.800347	-2.470735
H	1.09113	0.0	0.0
H	-0.455162	-0.959638	0.228297
C	-1.189442	0.982683	-2.081098
N	-2.126266	1.578093	-2.476136
N	1.170575	0.728726	-1.906646
H	2.009357	0.435363	-1.271799
H	1.298451	1.02368	-2.861232
N	-0.503976	1.143404	0.746915
H	-1.366229	0.920374	1.219726
H	0.18827	1.411192	1.432025
F	2.77602	0.0	0.0
