14

C	-0.023848	-0.001083	-1.538888
C	0.0	0.0	0.0
Br	-0.250374	-2.243468	-2.178651
H	1.091279	0.0	0.0
H	-0.361488	0.992762	0.29432
C	-1.201841	0.440149	-2.264347
N	-2.144429	0.894743	-2.804976
N	1.157784	0.479485	-1.96215
H	1.296262	0.594167	-2.954685
H	2.004806	0.293502	-1.291982
N	-0.773654	-1.015082	0.692582
H	-0.56332	-0.909454	1.680106
H	-0.410306	-1.919997	0.41032
F	2.801529	0.0	0.0
