14

C	-0.150336	0.098486	-1.53215
C	0.0	0.0	0.0
Br	-0.127528	-1.777091	-2.249131
H	1.093637	0.0	0.0
H	-0.480474	-0.885474	0.423848
C	-1.440671	0.649431	-1.956376
N	-2.489122	1.087195	-2.258867
N	0.951902	0.816302	-2.116131
H	0.765101	1.804869	-1.977172
H	1.779742	0.574403	-1.530263
N	-0.416515	1.283164	0.562521
H	0.275976	1.570891	1.241436
H	-1.319484	1.224893	1.013919
F	2.702075	0.0	0.0
