18

C	-0.583158	0.019932	-1.40758
C	0.0	0.0	0.0
Cl	0.32668	-1.150308	-2.47702
H	1.091693	0.0	0.0
N	-1.981719	-0.190789	-1.421049
H	-2.174698	-1.162976	-1.222113
H	-2.355178	0.054582	-2.329482
N	-0.324102	1.374991	-2.064793
O	0.731694	1.925593	-1.811776
O	-1.184065	1.781258	-2.847331
C	-0.423834	-1.269903	0.733686
H	-0.162713	-2.169547	0.171157
H	-1.499736	-1.270969	0.944755
H	0.115233	-1.30919	1.682496
N	-0.46887	1.218572	0.658617
H	0.316267	1.653211	1.124601
H	-1.19247	1.013923	1.334632
Cl	3.469259	0.0	0.0
