18

C	-0.297391	0.034135	-1.522675
C	0.0	0.0	0.0
Cl	-1.978416	0.545994	-1.863117
H	1.096751	0.0	0.0
N	0.588319	0.863411	-2.282496
H	0.425893	1.824902	-2.001548
H	1.541721	0.617013	-2.003578
N	-0.13648	-1.388979	-2.068037
O	-1.105188	-2.139713	-2.077247
O	1.006941	-1.69099	-2.382097
C	-0.586595	-1.190059	0.731545
H	-0.334515	-1.078833	1.785782
H	-1.675444	-1.228377	0.629938
H	-0.170592	-2.132641	0.375648
N	-0.360546	1.243814	0.667625
H	0.329497	1.956279	0.47117
H	-1.278424	1.568274	0.39248
Cl	3.397147	0.0	0.0
