18

C	-0.269713	-0.235535	-1.492518
C	0.0	0.0	0.0
Cl	-0.299948	1.369606	-2.423115
H	1.103866	0.0	0.0
N	0.674445	-1.135182	-1.965978
H	1.615388	-0.886523	-1.659381
H	0.614368	-1.313605	-2.956853
N	-1.676731	-0.783207	-1.766785
O	-2.616727	-0.179698	-1.264332
O	-1.76749	-1.792881	-2.46499
C	-0.488509	-1.195071	0.805937
H	-0.035238	-1.161855	1.800323
H	-1.576187	-1.16253	0.912087
H	-0.185918	-2.130279	0.333823
N	-0.578463	1.226048	0.536287
H	-0.05279	2.010646	0.166371
H	-0.39131	1.212524	1.533884
Cl	3.437002	0.0	0.0
