18

C	-0.3887	0.003389	-1.48086
C	0.0	0.0	0.0
Cl	-2.259907	-0.343674	-1.601696
H	1.09376	0.0	0.0
N	-0.033324	1.165133	-2.142776
H	-0.346588	1.992177	-1.662018
H	-0.277404	1.151633	-3.122125
N	0.192242	-1.144642	-2.306569
O	0.687287	-2.092766	-1.719547
O	0.10617	-1.020206	-3.525516
C	-0.533433	-1.163271	0.820207
H	-0.391841	-2.121823	0.327759
H	-1.594445	-1.02304	1.039796
H	0.017628	-1.16656	1.761613
N	-0.396687	1.241326	0.653634
H	-1.350997	1.507659	0.444115
H	0.253338	1.988655	0.45151
Cl	3.432116	0.0	0.0
