18

C	-0.302922	0.000914	-1.51714
C	0.0	0.0	0.0
Cl	-0.21671	1.639489	-2.189748
H	1.097282	0.0	0.0
N	0.55628	-0.841617	-2.289129
H	0.385122	-1.809174	-2.047931
H	1.513518	-0.608516	-2.020623
N	-1.742341	-0.48816	-1.69128
O	-1.905665	-1.632685	-2.10994
O	-2.636435	0.244179	-1.279897
C	-0.444774	-1.319938	0.633683
H	-0.020534	-1.369819	1.638404
H	-0.092206	-2.197133	0.087473
H	-1.536905	-1.375759	0.714235
N	-0.489344	1.165439	0.702686
H	0.190947	1.43597	1.399189
H	-1.377202	0.979043	1.150356
Cl	3.390732	0.0	0.0
