18

C	-0.218162	-0.011749	-1.533107
C	0.0	0.0	0.0
Cl	-0.1646	1.719038	-2.210423
H	1.098498	0.0	0.0
N	0.6961	-0.872721	-2.122296
H	1.635472	-0.712038	-1.752526
H	0.669139	-0.872506	-3.131524
N	-1.63543	-0.425446	-1.930609
O	-2.551953	0.007888	-1.235781
O	-1.773529	-1.141425	-2.917391
C	-0.486993	-1.313533	0.602157
H	-0.032809	-1.411619	1.588782
H	-0.188987	-2.167023	-0.009092
H	-1.574206	-1.310475	0.721071
N	-0.500947	1.118492	0.760483
H	-1.456192	1.317026	0.48957
H	0.065557	1.935152	0.572119
Cl	3.417212	0.0	0.0
