18

C	-0.530148	0.001068	-1.430823
C	0.0	0.0	0.0
Cl	0.193874	-1.299752	-2.406526
H	1.093905	0.0	0.0
N	-1.939752	-0.080361	-1.472033
H	-2.27536	0.62843	-0.824475
H	-2.263248	0.127049	-2.409385
N	-0.053709	1.304773	-2.151738
O	0.900625	1.917036	-1.69522
O	-0.697594	1.622857	-3.152073
C	-0.482982	-1.234029	0.745383
H	-0.186829	-2.145	0.226427
H	-0.012241	-1.247471	1.732215
H	-1.570478	-1.230457	0.855786
N	-0.551479	1.215805	0.629569
H	0.161146	1.935066	0.569302
H	-0.697683	1.029688	1.614728
Cl	3.49482	0.0	0.0
