12
Coordinates from ORCA-job run
  C   0.74745104908713      0.24370842134398      0.30356764448375
  C   -0.69177102448600      0.63054567640135      0.03231218699971
  Br  1.79176482955409      1.96986535680635      0.16053255751901
  H   -1.03924922169926      1.37732185528065      0.74445433766486
  H   0.87764657548642     -0.04565919518752      1.34391578153734
  H   -0.83696784629799      0.97306455768847     -0.99113704819297
  N   1.16633143463073     -0.78838575229230     -0.55029122584876
  H   1.12711922296523     -0.53656339101056     -1.52926918875728
  H   2.08196370762102     -1.14731968360577     -0.31998968593348
  N   -1.53762193336276     -0.58769256714147      0.21786879471986
  O   -1.54942258532964     -1.06868278340370      1.34769537641764
  O   -2.13824420816897     -1.02020249487946     -0.76065953060968
