12
Coordinates from ORCA-job run
  C   0.83855846151616      0.21329472612125      0.15298920009908
  C   -0.58494524399674      0.31662131839904      0.65781455124165
  Br  1.80261247029088      1.71940749817334      0.93659043363476
  H   -1.06140475080208      1.21967750103496      0.27861201107375
  H   1.32843672877522     -0.67516009284855      0.56153407524339
  H   -0.64180541421980      0.29498676233718      1.74703608199419
  N   0.87175899568941      0.33723955950043     -1.28603037368101
  H   1.82337396123698      0.47670026415444     -1.60230450606574
  H   0.53479210142755     -0.53388376504130     -1.68224645632503
  N   -1.42543963585958     -0.83407424710350      0.18514038513448
  O   -0.85387139642481     -1.80885655990857     -0.30413159412107
  O   -2.63306627763317     -0.72695296481874      0.35599619177156
