14

C	0.011117	0.014632	0.007872
C	-0.470315	0.001246	-1.444959
F	1.422031	-0.037734	-0.009611
H	-1.576159	0.014388	-1.282848
H	-0.2777	0.963486	0.464282
N	-0.519135	-1.056223	0.777326
H	-0.376245	-1.894056	0.218525
H	-1.542051	-0.84991	0.701499
N	-0.052262	-1.244409	-2.089738
H	0.928362	-1.186921	-2.337728
H	-0.587746	-1.383679	-2.936473
C	-0.021134	1.192956	-2.177144
N	0.353325	2.120639	-2.796209
F	-2.82703	-0.109338	-0.104662
