14

C	0.034875	-0.019968	-0.057494
C	-0.281299	-0.186018	-1.54933
F	1.415737	-0.272687	0.109151
H	0.517244	0.350575	-2.078137
H	-0.081889	1.050938	0.182141
N	-0.7099	-0.912579	0.7481
H	-0.515448	-0.691058	1.719308
H	-1.725151	-0.667294	0.585934
N	-1.572034	0.328096	-1.988747
H	-1.486962	1.338083	-2.029298
H	-2.279154	0.146385	-1.237608
C	-0.131003	-1.602154	-1.939759
N	0.025172	-2.702551	-2.316489
F	-3.061764	0.073577	0.185158
