14

C	0.005475	0.011504	0.009019
C	-0.485952	0.062264	-1.439734
F	1.415843	-0.049711	-0.020699
H	-1.590469	0.075702	-1.268895
H	-0.274206	0.942167	0.506663
N	-0.527152	-1.087199	0.736571
H	-1.548959	-0.870632	0.676599
H	-0.393637	-1.901803	0.142295
N	-0.080068	-1.157684	-2.139179
H	-0.620224	-1.256696	-2.988627
H	0.899771	-1.096108	-2.389345
C	-0.034129	1.28087	-2.124514
N	0.341267	2.231229	-2.707573
F	-2.833984	-0.086903	-0.087647
