14

C	0.152834	-0.079707	-0.065954
C	-0.436654	0.144357	-1.456738
F	1.342425	-0.853368	-0.272781
H	0.391288	0.511536	-2.074773
H	0.53486	0.886881	0.285798
N	-0.724747	-0.719228	0.811799
H	-1.722272	-0.743014	0.473887
H	-0.676016	-0.33268	1.741523
N	-1.486863	1.146822	-1.39291
H	-2.286249	0.669501	-0.911606
H	-1.784894	1.346292	-2.341906
C	-0.837954	-1.146826	-2.069779
N	-1.116212	-2.114899	-2.673753
F	-3.124448	-0.483614	-0.180436
