14

C	0.039816	-0.049123	-0.044138
C	-0.146806	-0.31521	-1.552302
F	1.440553	-0.029606	0.164721
H	0.524214	0.36679	-2.089585
H	-0.340128	0.953967	0.159018
N	-0.592117	-0.943851	0.84196
H	-0.51752	-1.895321	0.499213
H	-1.594554	-0.637791	0.840095
N	-1.525857	-0.149651	-2.000145
H	-1.601503	0.769986	-2.416522
H	-2.153546	-0.123482	-1.160828
C	0.327811	-1.6815	-1.860892
N	0.702662	-2.770336	-2.091401
F	-2.875112	0.174668	0.285122
