17

C	0.0	0.0	0.0
C	-0.580717	0.034872	-1.430786
F	1.364512	0.0	0.0
H	-1.086298	-0.906619	-1.604687
N	-0.177832	1.403068	0.742006
O	-0.798697	1.402807	1.796615
O	0.44753	2.344392	0.271081
N	-0.544563	-1.057361	0.686265
H	-0.273658	-0.998478	1.661322
H	-1.60072	-0.829516	0.569057
N	0.560976	0.119753	-2.408963
O	0.88392	1.229799	-2.82071
O	1.094142	-0.946717	-2.698674
N	-1.566967	1.080552	-1.888641
O	-1.65895	2.162443	-1.345101
O	-2.151348	0.729972	-2.911824
F	-2.655371	0.0	0.0
