17

C	0.0	0.0	0.0
C	-0.604195	-0.108654	-1.398589
F	1.340486	0.0	0.0
H	-1.705821	0.013741	-1.23575
N	-0.345029	1.43287	0.539478
O	0.014671	1.62663	1.699306
O	-0.93554	2.232284	-0.171893
N	-0.556899	-0.991537	0.795978
H	-1.596766	-0.822816	0.68165
H	-0.256741	-0.844093	1.753743
N	-0.30212	-1.47288	-1.934274
O	0.837454	-1.653764	-2.364417
O	-1.19771	-2.306944	-1.89859
N	-0.064877	0.828537	-2.421973
O	0.873054	1.568737	-2.146213
O	-0.627845	0.7637	-3.514283
F	-2.79213	0.0	0.0
