17

C	0.0	0.0	0.0
C	-0.227827	0.084215	-1.540045
F	1.396547	0.0	0.0
H	0.187188	1.013789	-1.909898
N	-0.388287	1.366489	0.597363
O	-0.237002	2.340664	-0.138577
O	-0.700319	1.404589	1.774232
N	-0.520629	-1.009307	0.770953
H	-1.577751	-0.797623	0.654888
H	-0.27366	-1.890595	0.337884
N	-1.606168	-0.018988	-2.130106
O	-2.021519	-1.140882	-2.383755
O	-2.115507	1.045727	-2.445716
N	0.564884	-1.000929	-2.216744
O	1.088223	-0.681392	-3.284836
O	0.620385	-2.116502	-1.711183
F	-2.607385	0.0	0.0
