17

C	0.0	0.0	0.0
C	-0.265096	0.222895	-1.519883
F	1.392197	0.0	0.0
H	-0.041942	1.244515	-1.798883
N	-0.39668	1.28628	0.744995
O	-0.670943	1.189367	1.927461
O	-0.288641	2.33807	0.116993
N	-0.513406	-1.096951	0.654739
H	-0.291481	-1.914678	0.099437
H	-1.566376	-0.873396	0.586989
N	-1.613201	-0.097095	-2.102427
O	-1.893696	-1.279671	-2.237133
O	-2.231437	0.861553	-2.544605
N	0.689765	-0.634916	-2.304928
O	0.847757	-1.803857	-1.969668
O	1.228606	-0.092483	-3.270915
F	-2.602794	0.0	0.0
