17

C	0.0	0.0	0.0
C	-0.611144	0.052027	-1.397621
F	1.340451	0.0	0.0
H	-1.713302	0.152398	-1.21254
N	-0.339929	1.362701	0.702337
O	-0.042998	1.397841	1.894998
O	-0.845524	2.274247	0.062793
N	-0.550475	-1.077964	0.678799
H	-1.590268	-0.907339	0.586224
H	-0.257255	-1.032151	1.648052
N	-0.311561	-1.241864	-2.0874
O	0.817509	-1.361615	-2.56543
O	-1.201183	-2.082686	-2.123101
N	-0.085103	1.100399	-2.315222
O	0.91876	1.737209	-2.016255
O	-0.726696	1.224267	-3.358122
F	-2.790562	0.0	0.0
