17

C	0.0	0.0	0.0
C	-0.607661	-0.241279	-1.380219
F	1.340399	0.0	0.0
H	-1.708318	-0.103161	-1.226411
N	-0.338791	1.484895	0.399697
O	-0.042985	1.766411	1.55946
O	-0.845952	2.243247	-0.415774
N	-0.553887	-0.906917	0.89022
H	-1.594239	-0.750878	0.75931
H	-0.257028	-0.65977	1.828083
N	-0.310712	-1.652594	-1.78152
O	0.823557	-1.874683	-2.209151
O	-1.206307	-2.477734	-1.653817
N	-0.077514	0.589173	-2.496936
O	-0.712976	0.486973	-3.547305
O	0.923952	1.277609	-2.334492
F	-2.786349	0.0	0.0
