17

C	0.0	0.0	0.0
C	-0.634931	0.045073	-1.381122
F	1.340417	0.0	0.0
H	-1.733654	0.207733	-1.165648
N	-0.316067	1.373194	0.712128
O	-1.09882	2.165818	0.211207
O	0.248348	1.500678	1.800058
N	-0.570523	-1.06344	0.694099
H	-0.255836	-1.031868	1.657
H	-1.608068	-0.866684	0.608131
N	-0.435294	-1.284278	-2.033718
O	0.724068	-1.585416	-2.314711
O	-1.427315	-1.971975	-2.240346
N	-0.041072	1.03665	-2.315835
O	-0.351896	0.900908	-3.499161
O	0.675765	1.92588	-1.865459
F	-2.825703	0.0	0.0
