15
Coordinates from ORCA-job run
  C   0.75268416389985     -0.48584235302346     -0.01836826114352
  C   -0.62193290434975      0.17186817397842     -0.20893872506864
  H   0.83409034585356     -1.29325344107891     -0.75429202282413
  H   -0.65008301645975      0.62913531528138     -1.20601338509305
  H   0.77934872338432     -0.95433187498250      0.97139475322590
  C   1.91524934143958      0.48781515534862     -0.17396430591964
  H   1.87361863360082      1.27612662300986      0.58072749958818
  H   1.89998453781178      0.96139473625880     -1.15940055577366
  H   2.87139864295840     -0.02898775590222     -0.06685888982946
  C   -0.80109859203525      1.25502922916628      0.76313848981038
  N   -0.93686928915892      2.10470107745578      1.56227620084855
  C   -1.76788582265072     -0.83807330530679     -0.09308360144838
  H   -1.65041500822199     -1.61755883935621     -0.84965590057180
  H   -2.73690197107036     -0.35718926594378     -0.23949094554707
  H   -1.76318778500159     -1.30883347490528      0.89252964974633
