15
Coordinates from ORCA-job run
  C   0.79564374022978      0.60836255252075     -0.12281284222741
  C   -0.64744161213276      0.18574453656568     -0.44771507465623
  H   1.14855725634473      1.27115538656396     -0.91888056613392
  H   -0.64083588822600     -0.36984384625167     -1.39416460505348
  H   0.78458700061408      1.20245770894268      0.79740304729229
  C   1.74703072849930     -0.57523344106994      0.02212857902334
  H   1.51071032815034     -1.18624701970725      0.89494721958938
  H   2.77491682246410     -0.22468663939743      0.13760215243648
  H   1.71304598480193     -1.21782063329647     -0.86233299787723
  C   -1.46781559078923      1.38272985542736     -0.66145789157911
  N   -2.11726655669995      2.34964002420802     -0.80972822844952
  C   -1.28109752374238     -0.69172551009338      0.63701041501433
  H   -1.24739739480634     -0.18381525740311      1.60386331631725
  H   -0.74840279849830     -1.63946101441406      0.72261551097822
  H   -2.32423449620932     -0.90925670259514      0.40152196532562
