15
Coordinates from ORCA-job run
  C   0.74713438013988     -0.20867295116913     -0.77640682394094
  C   -0.74398427159533      0.09302097306920     -0.54114779623045
  H   1.08509812420142      0.37251873562911     -1.64025960173227
  H   -1.28242339148954     -0.12142418726363     -1.47196934738427
  H   0.82818673103410     -1.26511689939282     -1.05566045978660
  C   1.63918514644786      0.08835154433147      0.42448186516175
  H   1.40190905778379     -0.55230065968487      1.27586923920712
  H   2.68707964538962     -0.08276955776192      0.16873317180020
  H   1.53968769840799      1.12946073191779      0.74093264987115
  C   -0.92974369496233      1.52121634412461     -0.26184943295030
  N   -1.05727452653664      2.66284784420957     -0.01843179086279
  C   -1.36167712417089     -0.74841245397292      0.58129849643515
  H   -0.92819794361717     -0.49714200895783      1.54986649463668
  H   -2.43882103889175     -0.58244397800715      0.64126118210338
  H   -1.18615879214103     -1.80913347707149      0.38528215367220
