15
Coordinates from ORCA-job run
  C   0.75728894282143     -0.20686075943206     -0.76679610491695
  C   -0.73171085771469      0.11928767733802     -0.55223764367310
  H   1.12204964875802      0.38375175776510     -1.61322930839721
  H   -1.25674936781499     -0.06150383353510     -1.49774939527239
  H   0.82317257167865     -1.25924197683528     -1.06493150997200
  C   1.63319063983913      0.04998146064957      0.45508580298512
  H   2.68197271847261     -0.13749515209361      0.21477680613109
  H   1.36785259120390     -0.60097128507524      1.29023625837094
  H   1.54879271295172      1.08698602641907      0.78907519862831
  C   -0.89512921801117      1.54375056426631     -0.24172470981728
  N   -1.00549467726290      2.68148789209239      0.02727548708663
  C   -1.38718794670450     -0.73617173251864      0.53780459029319
  H   -0.96519089740879     -0.51882134017836      1.51957029176419
  H   -1.23150296923592     -1.79532516986113      0.31801336199162
  H   -2.46135389157250     -0.54785412900105      0.58383087479786
