13
Coordinates from ORCA-job run
  C   0.46516022430546     -0.74869464493680     -0.04149932531252
  C   -1.01643319385868     -0.40678628930916     -0.12263323273085
  F   0.65073561121022     -1.81437043372684     -0.92031042029737
  H   -1.62019484580110     -1.25558869606823      0.19756843024598
  H   0.70055340619484     -1.11097627585218      0.96180027012305
  H   -1.28822876767505     -0.08812811794405     -1.12714719344553
  C   1.36844920537252      0.39167385890717     -0.44220583444731
  H   1.29325209504571      1.21817268788061      0.26706886454141
  H   2.40356849030804      0.04774447059431     -0.45829085820849
  H   1.10492002533058      0.75673765726941     -1.43680370198179
  N   -1.29884431723314      0.71977466957953      0.80354373182608
  O   -1.58829632911125      1.80932566230589      0.31402800794399
  O   -1.17564160408815      0.48011545130032      2.00388126174334
