13

C	-0.538475	0.047865	-1.427213
C	0.0	0.0	0.0
Cl	-0.063109	-1.431235	-2.321993
H	1.092636	0.0	0.0
H	-0.031028	0.871177	-1.934421
H	-0.301482	0.928221	0.501695
C	-2.047	0.210534	-1.499002
H	-2.348194	1.125606	-0.97876
H	-2.543883	-0.640741	-1.027167
H	-2.382381	0.273392	-2.536209
C	-0.547623	-1.118629	0.759814
N	-1.037921	-1.998284	1.363598
Br	3.538474	0.0	0.0
