11

C	-0.537027	-0.200353	-1.390811
C	0.0	0.0	0.0
F	-0.248074	-1.491539	-1.843166
H	1.092983	0.0	0.0
H	-0.079268	0.503597	-2.08992
H	-1.627453	-0.103159	-1.404473
H	-0.329973	0.993375	0.32879
N	-0.59121	-1.007113	0.897222
H	-0.275305	-1.907669	0.553169
H	-0.149071	-0.897716	1.803468
Cl	3.66193	0.0	0.0
