11

C	-0.503792	-0.030983	-1.428067
C	0.0	0.0	0.0
F	-0.231457	1.177282	-2.070724
H	1.093656	0.0	0.0
H	-1.593795	-0.161787	-1.466059
H	-0.019155	-0.828412	-1.997619
H	-0.318434	-0.933144	0.48199
N	-0.486814	1.135078	0.782007
H	-0.019836	1.964354	0.442742
H	-1.478229	1.267143	0.616721
Cl	3.645424	0.0	0.0
