11
Coordinates from ORCA-job run
  C   0.87669216660517     -0.49204142332207      0.03751293999693
  C   -0.62577528522358     -0.42163324140696     -0.23742126516651
  Cl  1.33686782486344     -2.12277670763236      0.60264409508524
  H   -0.85258931076118     -1.16487258995939     -1.00470476204653
  H   1.41767439203211     -0.29771699325166     -0.88920269790893
  H   -1.16220298171124     -0.70830269592342      0.67639132037650
  C   1.25884036684364      0.50870138975947      1.02985542005508
  N   1.50669694505606      1.33657219944014      1.82466639634333
  N   -0.92564470214138      0.90677058477677     -0.74772381646670
  H   -1.76838545864623      0.89467193915261     -1.30541147811734
  H   -1.06317395691682      1.56062753836688      0.01239384784894
