11
Coordinates from ORCA-job run
  C   0.70568239573544     -0.36424128473812      0.40689646305625
  C   -0.37706475556821      0.32972201834074     -0.41408544911065
  Cl  0.22678185103917     -0.44405725743209      2.13124445807400
  H   0.00267035679597      0.41783983698659     -1.43616404223467
  H   0.80065469332009     -1.39617341197744      0.06474305922772
  H   -0.51542985918692      1.34437044294354     -0.01618028276290
  C   1.98683270299355      0.32418416814224      0.28607521468571
  N   3.00309519282085      0.89511728125541      0.14623807040359
  N   -1.57096681534395     -0.49966801089576     -0.43338172328384
  H   -2.18803905632652     -0.19934398754726     -1.17626560155081
  H   -2.07421670627946     -0.40874979507785      0.43987983349560
