11
Coordinates from ORCA-job run
  C   0.88730863685799     -0.45373182403160      0.06763019930248
  C   -0.60426123695808     -0.44697249903649     -0.26490255836525
  Cl  1.40160408959284     -2.07302532084772      0.61689537743400
  H   -0.77030501200247     -1.21788146602715     -1.02005655996182
  H   1.45134975398472     -0.21300715043443     -0.83486253952676
  H   -1.16545473702693     -0.73109119692750      0.63545386101476
  C   1.18820933805120      0.54221720169319      1.09243482486739
  N   1.36823359731633      1.36676973668222      1.90898416380334
  N   -0.93500201849304      0.85240348329255     -0.82893625243583
  H   -0.97875293280653      1.55355592131409     -0.09879138835446
  H   -1.84292947851603      0.82176311432282     -1.27384912777785
