16
Coordinates from ORCA-job run
  C   -0.74448907940471     -0.05603125307608     -0.48925628237386
  C   0.74944669230249     -0.37134434265491     -0.21898144571067
  Br  -1.43470961371795     -1.14250599599557     -1.90203118960578
  H   1.16751962927979     -0.59442475781547     -1.20550995033073
  N   -1.60493811257328     -0.20729005952197      0.76365698515936
  O   -2.76172930641022     -0.57189076738229      0.63229989723056
  O   -1.04878527355899      0.10264667899906      1.81129671536250
  N   -0.87554379444367      1.40045779228694     -0.91081841571306
  O   -0.10208085069738      1.74603157362550     -1.79362152515388
  O   -1.72341489336802      2.08391174282472     -0.35747101409599
  N   0.79053724853520     -1.58301318659283      0.55565144934592
  H   0.65583768643695     -1.38581303400999      1.53906455547620
  H   1.66116573876306     -2.07519752755019      0.41558260844638
  N   1.37870049318823      0.78660548192997      0.39919492667661
  H   2.08260179595516      0.48304428338744      1.05698634274292
  H   1.80688163971334      1.38381337154566     -0.29604365745649
