16
Coordinates from ORCA-job run
  C   -0.68042005278540      0.13191634008493     -0.52049502125003
  C   0.64907198256846     -0.52582035654520     -0.09774426568105
  Br  -0.92562948226535      0.01067464497371     -2.41811446321171
  H   0.62485721296909     -1.51298349101292     -0.57456127442262
  N   -1.82583497802061     -0.61253841410855      0.15704147530491
  O   -2.58690365385909      0.04056113079824      0.85515991208701
  O   -1.86083264757633     -1.81106126887064     -0.06696346825015
  N   -0.76197745261860      1.58650455703024     -0.06079994669004
  O   -0.34379736661258      1.78598284369443      1.07135196669867
  O   -1.25599261573539      2.41106085926147     -0.81195964594299
  N   0.65109992031207     -0.75140574534539      1.31964734371671
  H   1.27398445197894     -1.50716614088184      1.56616463002894
  H   0.87878904452866      0.09103878150176      1.82842685239706
  N   1.72191463779679      0.34087851770309     -0.57044683306885
  H   2.58114118077832      0.07786385074443     -0.10509254133897
  H   1.85952981854099      0.24249389097224     -1.56961472037691
