16
Coordinates from ORCA-job run
  C   -0.68273479772021      0.12868303809536     -0.51907766687202
  C   0.65390885711204     -0.51849682711239     -0.10286286363133
  Br  -0.92823336456382      0.01893757072927     -2.41747698997127
  H   0.63867867292932     -1.50282689013863     -0.58572663542357
  N   -1.82025540088812     -0.63150976211068      0.15345848687560
  O   -1.84240754743297     -1.82920257454434     -0.07684717134346
  O   -2.58915573322083      0.00992290803128      0.85396276154989
  N   -0.77769551345738      1.57889257718955     -0.04928457673866
  O   -1.28002311328187      2.40407769064359     -0.79416231886066
  O   -0.36009150679166      1.77450432176104      1.08390251380584
  N   0.66005819572878     -0.75354178934739      1.31320416579100
  H   1.29199020253899     -1.50380338729662      1.55341708793750
  H   0.87788331022417      0.08759633090911      1.82833646430750
  N   1.71709799789275      0.36167999073716     -0.57245926699582
  H   1.86482864411364      0.25930478027560     -1.56969128713662
  H   2.57615109681716      0.11578202217808     -0.09769270329391
