16
Coordinates from ORCA-job run
  C   -0.67005278192722      0.33704950397053     -0.43799037678479
  C   0.82135563300595      0.04826540645749     -0.17159714119097
  Br  -0.95998825339104      0.73819556344300     -2.28923092180672
  H   1.34163343615778      0.90726278837168     -0.61180762768185
  N   -1.57050915622167     -0.81415490760723      0.00329970325643
  O   -1.21215818453986     -1.38961463271236      1.02193241494952
  O   -2.58149781931846     -1.03771495090613     -0.64244956732475
  N   -1.07562173180238      1.54985874680227      0.39364739286825
  O   -1.97219196745439      1.39668683273999      1.20965560822641
  O   -0.43473553358521      2.56340146360527      0.16982414296387
  N   1.13346613803203     -1.22442589292180     -0.81081763552732
  H   1.97565401884497     -1.60075103565216     -0.39575090933621
  H   1.29145450439348     -1.10722799336639     -1.80443710353138
  N   1.07553154219431      0.09189084817342      1.24044942703666
  H   2.04437652735277      0.30546580144089      1.42919236577798
  H   0.79328362825900     -0.76418754183860      1.69608022810486
