16
Coordinates from ORCA-job run
  C   -0.61757877610601      0.13089886228532     -0.53064799759028
  C   0.67445503060006     -0.60299725875439     -0.07567452423118
  Br  -0.78975795513045      0.11341788996571     -2.43877630034342
  H   0.57937309237705     -1.58113108345608     -0.55579784255270
  N   -1.80034847962833     -0.60311256041986      0.10180448923947
  O   -2.40837675671876     -0.01839108422539      0.98428796918098
  O   -1.97251334007384     -1.74174189756734     -0.30033787158848
  N   -0.71188095357747      1.57116510355920     -0.05050236706030
  O   0.12630714076656      1.92287011971300      0.77773445580294
  O   -1.61907905599649      2.25306641275349     -0.49792438585623
  N   0.56932063637748     -0.81164430683236      1.34775649299200
  H   0.82222828064809      0.03126973677027      1.84683669010903
  H   1.21110136693118     -1.54665661239508      1.61552866733118
  N   1.91648550014081     -0.01764188527497     -0.51775633839746
  H   2.00629412097843     -0.03031473080015     -1.52555624274887
  H   2.01297014841170      0.93094329467870     -0.17997489428668
