16
Coordinates from ORCA-job run
  C   -0.66983435364798      0.01437581194529     -0.39719529223847
  C   0.64741795037991     -0.10180309563183      0.37294893922157
  Br  -0.62161047348706     -0.93806198950687     -2.04623521891329
  H   0.45627761672515      0.39295397566484      1.32632695495610
  N   -1.85553150854668     -0.46533432182306      0.44893918567485
  O   -1.67496895298558     -0.52934804851444      1.65650774065539
  O   -2.90090166234022     -0.67230755723769     -0.15166770607024
  N   -0.95915725522483      1.50635143678514     -0.61801046494524
  O   -0.98162752017451      1.95403962566504     -1.74841713021623
  O   -1.12178037749627      2.11657555417982      0.43236118975777
  N   1.62312481141610      0.69113501768308     -0.34489776594307
  H   1.93110151817905      0.22106863793025     -1.18797185128234
  H   2.42839514455544      0.87350729494325      0.23947165708406
  N   0.89033547198816     -1.50444533271334      0.63381457561433
  H   1.39246938324157     -1.62767948201473      1.50215571338616
  H   1.41529020741772     -1.93202752735474     -0.11813052674135
