16
Coordinates from ORCA-job run
  C   -0.60073640570288      0.06877424092819     -0.48955556041470
  C   0.63445071659368     -0.03840604660721      0.40710051025105
  Br  -0.33911903134333     -0.78132722743871     -2.17413644308792
  H   0.39509519247036      0.56628044870575      1.28314541180058
  N   -1.79085632881691     -0.53798141395012      0.26799713573473
  O   -2.33276180627003     -1.53745104862893     -0.16364738306945
  O   -2.06086419427235      0.07659682611524      1.29340291364926
  N   -1.01432305308402      1.53011519399561     -0.70064588836746
  O   -0.56368342531798      2.34687680574127      0.08965544585349
  O   -1.81908336543527      1.73918792807399     -1.59801542984319
  N   1.74352696989270      0.58552418325200     -0.28175592119478
  H   2.38922453075808      1.00046533181189      0.37559844647824
  H   2.23837291583346     -0.08099700123345     -0.86018571473585
  N   0.72043505580737     -1.41857483519178      0.83663963880419
  H   1.05190413431780     -2.01576065026501      0.08814778347157
  H   1.34941809456929     -1.50432273530867      1.62425505467024
