16
Coordinates from ORCA-job run
  C   -0.68222155118408      0.12630879560139     -0.35236791654942
  C   0.70053085915401     -0.09300818813973      0.26526396536348
  Br  -0.83295554911809     -0.67304992545478     -2.07521801070542
  H   0.68943779056288      0.49353270916621      1.18521309861037
  N   -1.72980508842585     -0.43324202793328      0.62092137456507
  O   -1.74536840811700      0.16316756529545      1.69150293055658
  O   -2.40962654345686     -1.38598270188628      0.29104945386747
  N   -1.02783298049346      1.61730784811001     -0.43756860027894
  O   -0.36328226442784      2.37504787435719      0.25458179777166
  O   -1.98871046153962      1.90910905565569     -1.13624742047137
  N   1.68570416131987      0.48231503772664     -0.62514491798968
  H   2.00381558102951     -0.19541429454733     -1.30580830316652
  H   2.47987480371008      0.83086836117658     -0.10634784147981
  N   0.77552552054297     -1.49042560850375      0.63675654286034
  H   1.54860419569092     -1.64657711098283      1.27015369916510
  H   0.89630993475253     -2.08095738964118     -0.17773985211896
