16
Coordinates from ORCA-job run
  C   -0.69004218056093      0.11733050775753     -0.36619234896207
  C   0.70830038014866     -0.15232104121430      0.22366122958851
  Br  -0.94615413761842     -0.64353665336415     -2.08791445176677
  H   0.72224080901056      0.41948469657177      1.16017474669447
  N   -1.70144432661374     -0.41637308797933      0.65343801369639
  O   -1.65469101993540      0.19131617777137      1.71779539890905
  O   -2.41190950150980     -1.35842596776442      0.36585900764722
  N   -1.01824231459040      1.60398531363886     -0.44432300005509
  O   -0.09183765394801      2.39009356726436     -0.27343995295779
  O   -2.18636971635755      1.88588274503297     -0.66450134580331
  N   1.74218411899954      0.21869251029707     -0.72183641232852
  H   2.63409779229470     -0.09415463431878     -0.35763606174168
  H   1.77678976899029      1.22532137285825     -0.82849840057151
  N   0.73614102357065     -1.55263620930877      0.56125911212438
  H   1.38617381196239     -1.73479371789307      1.31309711025964
  H   0.99476314615745     -2.09886557934937     -0.25194264473290
