16
Coordinates from ORCA-job run
  C   -0.75982071164082      0.13020598399594     -0.46462346851792
  C   0.62439654641128     -0.52041621938594     -0.26968554699378
  Br  -1.32704876052261      0.08571695606859     -2.28514374269031
  H   0.52885692767875     -1.47797620503600     -0.78794623395842
  N   -1.75347700360069     -0.65185584907357      0.39743028481346
  O   -2.23657988911484     -0.07052202773358      1.35667531147885
  O   -1.92234690847607     -1.81154214118380      0.06238613055481
  N   -0.80420399308190      1.56358056660864      0.04786929310422
  O   0.11144640357448      1.88925482278942      0.80121505286716
  O   -1.75067956897539      2.25742356526155     -0.28207907555069
  N   0.79534174238223     -0.82133533077455      1.13702894877917
  H   1.46086529088957     -1.57195982080371      1.26106982098032
  H   1.10110568266328     -0.00572109960920      1.64988246548476
  N   1.60615078063569      0.27141101162190     -0.97879462667153
  H   2.39540205420138     -0.30013760101921     -1.24700309337038
  H   1.93159140697566      1.03387338827354     -0.39928152030974
