16
Coordinates from ORCA-job run
  C   -0.62691132509728      0.02160733906931     -0.34893641744663
  C   0.73847029418884     -0.06580172192612      0.37429373539463
  Br  -0.69246859601729     -1.03281141606035     -1.93938691934039
  H   0.58231254660690      0.48592620443947      1.30506736717922
  N   -1.79369050243754     -0.39419083064750      0.54220943084300
  O   -2.90947808004725     -0.19238069031451      0.08635912210177
  O   -1.52210768314228     -0.87436866718718      1.63705525070339
  N   -0.90640741734684      1.49767642902812     -0.63299787402354
  O   -0.92032795250396      1.90288824255806     -1.77835768221277
  O   -1.06025403667229      2.14331803143751      0.39786889629923
  N   1.65462760392271      0.69101710397351     -0.44617376526244
  H   1.89435409557643      0.16819055253472     -1.28170383688090
  H   2.50821350255468      0.83348194937706      0.07987554685162
  N   1.19877645306296     -1.38585818758082      0.71702877390176
  H   0.58279773902337     -1.82233464691298      1.39033228705203
  H   1.27209335832886     -1.97635969178831     -0.10253391515998
