16
Coordinates from ORCA-job run
  C   -0.69489534669144      0.14117652485397     -0.34897274523308
  C   0.70840525319681     -0.17179604512924      0.20640767488420
  Br  -0.99807389081719     -0.56429522156199     -2.08634008443766
  H   0.74925126272939      0.36943649288950      1.16012451303895
  N   -1.69795839024086     -0.40229234389735      0.67397101435493
  O   -1.62410199781770      0.17730841143658      1.75236997647294
  O   -2.42728656793980     -1.32612742219155      0.37481206188882
  N   -0.99376618770032      1.63573738004913     -0.37734900747763
  O   -0.05073313827073      2.39760153778845     -0.18837148932036
  O   -2.15779679260015      1.94759205711912     -0.57779553292552
  N   1.73128823865947      0.21193372309556     -0.74573103535507
  H   2.62135330589047     -0.14511953822311     -0.42025755707582
  H   1.79417785181096      1.22075824523596     -0.80838717768523
  N   0.71610580297510     -1.58223517638920      0.50022472077426
  H   1.38589770861290     -1.79999188757665      1.22488477842745
  H   0.93813288820310     -2.10868673749920     -0.33659011033120
