16
Coordinates from ORCA-job run
  C   -0.68697679605969      0.14172082841480     -0.56414888252789
  C   0.64094779636663     -0.53938793214491     -0.17571111632864
  Br  -1.00267517255460      0.08391243058953     -2.44413570806952
  H   0.59061043201608     -1.50304035201464     -0.68902022476332
  N   -1.80784206808401     -0.60282914785463      0.16434059073286
  O   -2.39922435982547      0.00358000276023      1.04419923776984
  O   -1.96142683391974     -1.76260253622616     -0.17798919040435
  N   -0.76276506560598      1.58333234658454     -0.07940343316585
  O   0.05415778676236      1.90033176321533      0.78318147786709
  O   -1.64074433186336      2.29286354651190     -0.53973078621476
  N   0.61266563909988     -0.82039142727424      1.24507508449361
  H   0.86749036907257     -0.00392522985485      1.78374447074168
  H   1.23529053297917     -1.58473913825929      1.46830259030434
  N   1.72987519651215      0.21607903832089     -0.75604288641477
  H   2.52955166822061     -0.38039018136548     -0.91747706932545
  H   2.00006520688342      0.97548598859698     -0.14518415469486
