16
Coordinates from ORCA-job run
  C   -0.68348760657875      0.13401539910590     -0.51754033258391
  C   0.65373282406430     -0.51745117817746     -0.10887457569258
  Br  -0.93302476161942      0.03832014664295     -2.41556288220131
  H   0.63350424838852     -1.49942256682348     -0.59645926757213
  N   -1.81747184634772     -0.63191719104726      0.15552728150646
  O   -1.84833260289880     -1.82554091540001     -0.09397596273540
  O   -2.57169461531061      0.00080263579385      0.87945277053912
  N   -0.78190869454933      1.58083864915298     -0.03768279832362
  O   -0.33648301717856      1.77815852873292      1.08457889711302
  O   -1.31778566227218      2.40131930244592     -0.76432952959630
  N   0.66362693158435     -0.75872780561721      1.30562359746170
  H   1.29356107286228     -1.51179728660519      1.54194450022311
  H   0.88290980435746      0.07952155902321      1.82466230569892
  N   1.71783403709600      0.36066356650861     -0.58041283456545
  H   1.86692903758337      0.25395461207608     -1.57691370678893
  H   2.57609085081903      0.11726254418822     -0.10303746248276
