16
Coordinates from ORCA-job run
  C   -0.72863721032197      0.08953592481100     -0.44699170382649
  C   0.70017189561402     -0.51952252268057     -0.32239452465388
  Br  -1.42933778004936     -0.09312434449955     -2.21172140959169
  H   0.63849410584278     -1.44961524225863     -0.89066403747189
  N   -1.66140382862051     -0.63837817322896      0.51074794407905
  O   -1.67408108003144     -1.85516607195777      0.38786913660534
  O   -2.28642100085081      0.03066068705935      1.32337525560660
  N   -0.74403676596516      1.54920557939731     -0.00953216875786
  O   0.01337146355053      1.80026243285693      0.92621411504205
  O   -1.49818717303258      2.33147687592103     -0.55970604335548
  N   1.12910622145447     -0.86532948844412      1.00970539024102
  H   0.64585547754110     -1.67711514283601      1.37012303588345
  H   1.03287767958066     -0.08872194093057      1.64946370146484
  N   1.57651083207891      0.39147320616542     -1.02353789245536
  H   2.39552278855015     -0.11829606358848     -1.32895850510885
  H   1.89219437465912      1.11165428421356     -0.38399229370080
