13
Coordinates from ORCA-job run
  C   -0.79055959945203      0.37575252399998      0.15490988247725
  C   0.53079198612195      0.24693646558938     -0.05156057681187
  H   -1.15797442763226      1.35508276942304      0.43491073546235
  C   -1.75566047338988     -0.75708587768202      0.00326627395209
  H   -1.31136700443669     -1.60355906790909     -0.52401087246516
  H   -2.12234640801138     -1.10824837794841      0.97344665624357
  H   -2.62878709500405     -0.43418458377539     -0.56938240573593
  N   1.23834280436127     -0.88682777908296     -0.41116107196716
  H   0.92898017718969     -1.72018779937465      0.06394390229780
  H   2.23606238954225     -0.75160890341347     -0.33849839635315
  N   1.38463323989728      1.45782981136747      0.05686941590657
  O   0.84273078218206      2.54840925325169      0.18819120138907
  O   2.60415362863179      1.27669156555444      0.01807525560458
