13
Coordinates from ORCA-job run
  C   -0.79933263815491      0.43564000827450     -0.00673343592760
  C   0.53057992778296      0.24613511845189      0.02693985648951
  H   -1.16588459635252      1.44998962176860     -0.09500324684052
  C   -1.74979749946494     -0.71818839503098      0.07297911412800
  H   -2.72984298149568     -0.39259522279586      0.42327628251979
  H   -1.89833759234841     -1.19517510398728     -0.90336458997609
  H   -1.37799462185166     -1.48255381447540      0.76193465826776
  N   1.20416404907690     -0.95554531651470      0.14268679490586
  H   2.19717388896467     -0.85598050014304     -0.00826090142951
  H   0.79843802893376     -1.70136368322168     -0.40107859221496
  N   1.42659531298064      1.42651821413410      0.00182906299359
  O   0.92785534666072      2.54281960880680      0.07682256456273
  O   2.63538337526848      1.19829946473305     -0.09202756747856
