13
Coordinates from ORCA-job run
  C   -0.62351456715608      0.05897071638459     -0.64549777388207
  C   0.48733155821178      0.22503241034214      0.08226735108244
  H   -0.70519830443999      0.62701956497004     -1.56662303870247
  C   -1.73930214681331     -0.85223423567381     -0.25956565211058
  H   -2.66844451127924     -0.28568932782519     -0.14587846224859
  H   -1.91478744383356     -1.59034405646207     -1.04774425982061
  H   -1.51629839730224     -1.36673569957299      0.67321531123486
  N   0.76965638188367     -0.41330816184622      1.29957703024480
  H   1.64698322563164     -0.91661456622628      1.23813606808554
  H   0.87692351119917      0.27009519515076      2.04021300881728
  N   1.52679048506636      1.17761752492536     -0.43586561163281
  O   1.33229050741168      1.75216529595474     -1.50078360006686
  O   2.52756970142012      1.31402533987891      0.26954962899907
