13
Coordinates from ORCA-job run
  C   -0.56155131812361     -0.69104513110321      0.05073412022365
  C   0.67254587562846     -0.15096769989816      0.04763600677005
  H   -0.58611583138465     -1.75783349159544      0.26659616128139
  C   -1.87718245035999     -0.02542290920049     -0.22686885011113
  H   -2.68893539463818     -0.66112811009825      0.12985809870048
  H   -2.02188136013458      0.14531123833298     -1.29655267719687
  H   -1.96154407450183      0.94756429789993      0.25858582893712
  N   1.88685444138437     -0.80512401854112      0.19785122199370
  H   2.56588226410522     -0.24999777530280      0.69822603190544
  H   1.78824622559748     -1.73308167999092      0.58040465111381
  N   0.87166512073173      1.28984118235917     -0.18390884036344
  O   0.02479122331826      1.90318632231138     -0.82858395306423
  O   1.88722527837732      1.78869777482692      0.30602219981004
