13
Coordinates from ORCA-job run
  C   -0.50470392006433     -0.72816964876280     -0.23591362424559
  C   0.65464940312161     -0.14059757309213      0.10076424287467
  H   -0.48479855712902     -1.81173135651215     -0.33590768298392
  C   -1.80361845945225     -0.03713315294018     -0.52696333247327
  H   -2.18902159148956     -0.33813241525554     -1.50438547280604
  H   -1.69762368454745      1.04620136769157     -0.53150792302888
  H   -2.56350988798380     -0.30325958364842      0.21447124292018
  N   1.90839254694000     -0.71347171636232      0.27352502774284
  H   1.88825129336486     -1.71726079210874      0.37086729469364
  H   2.43700552814570     -0.27835826943571      1.01653225212561
  N   0.72269099417539      1.30685922980909      0.33508062913288
  O   1.15883293322154      1.65946880520293      1.43134383347162
  O   0.47445340169732      2.05558510541439     -0.60890648742374
