13
Coordinates from ORCA-job run
  C   -0.55835480190393     -0.67039488806456     -0.34421458259755
  C   0.61428543990967     -0.24135432850607      0.14643120005826
  H   -0.54916650704250     -1.73052317835959     -0.58344706493141
  C   -1.82546627886319      0.09036602459157     -0.58191564171996
  H   -1.64055919640827      1.07331355590353     -1.01518155871120
  H   -2.47722066774584     -0.47563699091954     -1.24826256815913
  H   -2.35868078376492      0.26112517362186      0.35664936163011
  N   1.72556250599386     -1.08100830698643      0.33828478000283
  H   1.85018608267701     -1.29829267000560      1.32000933282761
  H   2.56668331066381     -0.62098624846609      0.01238254864774
  N   0.82260585444285      1.19915050755276      0.45750018244111
  O   1.98456069353873      1.60422517706111      0.40128762312275
  O   -0.15343565149728      1.89101617257704      0.73947638738885
