13
Coordinates from ORCA-job run
  C   -0.82153619094928      0.28799688085819      0.26813134064122
  C   0.50658069634388      0.28706928998412      0.06359110251826
  H   -1.24393996970927      1.08732183636130      0.86286960140490
  C   -1.69462165746928     -0.78461538058826     -0.30483679173103
  H   -1.69909423645553     -1.68666697461478      0.31900724472029
  H   -2.72777593681103     -0.44512856819292     -0.38533384898946
  H   -1.35167693831913     -1.07413607282142     -1.30275955383072
  N   1.24109180656289     -0.62958399853396     -0.66516021370219
  H   2.23611865886565     -0.50519484791300     -0.55040002920342
  H   0.94769389562211     -1.58449317008959     -0.52859011533912
  N   1.31960293249548      1.40119498611718      0.60614311053273
  O   2.54390976923933      1.29084461243203      0.50140776134476
  O   0.74264717058416      2.35339140700110      1.11693039163378
