13
Coordinates from ORCA-job run
  C   -0.80474922925047      0.41556000589764     -0.09265040293198
  C   0.52592092058744      0.25739162075057      0.00687703000543
  H   -1.18236576450561      1.39995035566699     -0.33652720492972
  C   -1.74111139910410     -0.73213760542656      0.12398456123829
  H   -1.38002935806347     -1.38298538461171      0.92595455929009
  H   -1.85233213688497     -1.34645273285068     -0.77768969365147
  H   -2.73610069973713     -0.37776432668228      0.39533719407847
  N   1.21170325365336     -0.90320259940047      0.31387618102421
  H   0.83545098488716     -1.72578653389461     -0.13146343508692
  H   2.20781520345128     -0.80750936674735      0.18207358772695
  N   1.40565285143088      1.43830959147301     -0.16095589385618
  O   0.88911360798609      2.54404235592690     -0.26551426891067
  O   2.62003176554952      1.22158461989854     -0.18130221399649
