13
Coordinates from ORCA-job run
  C   -0.80554835869547      0.42125630864705     -0.03790880981885
  C   0.51885361906988      0.24784347447277      0.10894046972490
  H   -1.18751613052363      1.43376455491202     -0.04535522458856
  C   -1.72976800474316     -0.74597601626205     -0.19291612735648
  H   -2.74509578052527     -0.48084053222686      0.10405177206209
  H   -1.77843438322771     -1.09564788613197     -1.23123518480446
  H   -1.40198327172548     -1.58716879428571      0.42514330498325
  N   1.20844766378668     -0.94957857833723      0.15001769766420
  H   0.88517101932205     -1.62715393081724     -0.52281253203391
  H   2.20893690487419     -0.81890356234795      0.12741838710744
  N   1.38117476093442      1.43560421648127      0.31762646194763
  O   0.84822132106502      2.52883945534634      0.46335353199695
  O   2.59854064038848      1.23596129054956      0.33367625311579
