13
Coordinates from ORCA-job run
  C   -0.82043977424130      0.38380821780423      0.08802852688028
  C   0.51767640451145      0.26066420489643      0.08416947340223
  H   -1.24513715723273      1.30639009214955      0.46162573835601
  C   -1.70318963059511     -0.72087529652908     -0.40343280421108
  H   -1.25337869551443     -1.22591170045472     -1.26345050192300
  H   -1.88180895169466     -1.47742716727965      0.37024485431809
  H   -2.67753865394558     -0.33579552575681     -0.70615615719154
  N   1.25962465649257     -0.82131481557307     -0.35255789696293
  H   2.23698458490030     -0.73700673970244     -0.11457650435256
  H   0.86896536708897     -1.71263119008410     -0.08879168523593
  N   1.34683608173244      1.40572759240964      0.52899078442170
  O   2.55996396649153      1.20280578967471      0.62538771509474
  O   0.79344180200655      2.47156653844531      0.77051845740400
