13
Coordinates from ORCA-job run
  C   -0.72251948410488      0.33544129166966     -0.43956973702717
  C   0.52837898984230      0.24803214091171      0.04357448051348
  H   -0.94838760776759      1.14579534351339     -1.12032962551509
  C   -1.77528128370902     -0.65675498088722     -0.05482841847448
  H   -1.66062826342645     -0.96179840394155      0.98953069875101
  H   -1.73091188329779     -1.56173334968218     -0.67267901778189
  H   -2.77289787859254     -0.23347227299492     -0.17746120246630
  N   1.02480998747497     -0.69703672616413      0.92235457187433
  H   0.70314766943727     -1.63373887887474      0.73346025033677
  H   2.02789444375488     -0.64059392873419      1.01989865968622
  N   1.51623185974397      1.28982880321268     -0.32540524829540
  O   2.67928817550295      1.09972673388680      0.03962166455040
  O   1.13087527514192      2.26530422808468     -0.95816707615189
