13
Coordinates from ORCA-job run
  C   -0.79916069033363      0.43528698276193      0.02970939857903
  C   0.52952330758693      0.24679845558650     -0.03992166190033
  H   -1.16363720777840      1.44878029267716      0.13486665180568
  C   -1.75079635463861     -0.71870317072957     -0.02991249836124
  H   -1.39597294765946     -1.48081639697518     -0.73018874258231
  H   -1.87469203446799     -1.19845603488601      0.94851218956640
  H   -2.73947037639825     -0.39278369670764     -0.35479283560430
  N   1.19995292592451     -0.95415006749147     -0.18100986921171
  H   2.19661904713364     -0.85452918031353     -0.05634072067245
  H   0.80961392794410     -1.70269877101443      0.37025219779400
  N   1.42532639114034      1.42727766158460     -0.03267647880077
  O   2.63640658663379      1.19919022115203      0.02572797172390
  O   0.92428742491303      2.54380370435562     -0.08622560233590
