13
Coordinates from ORCA-job run
  C   -0.63533734974023     -0.67618196621299      0.15069994435840
  C   0.61996531297697     -0.20560862456464      0.17190929978775
  H   -0.70564891234904     -1.70290500195970      0.49982323306032
  C   -1.89874364357826      0.00688184832587     -0.27007914161028
  H   -2.66337910485021     -0.73702154053999     -0.49681900592070
  H   -2.27457598558415      0.64987353452784      0.53008184876314
  H   -1.75356152696527      0.64701255330510     -1.13984511397369
  N   1.72432562523458     -0.97260928057070      0.58773896960533
  H   2.44922052621640     -0.94284196135072     -0.11946490519564
  H   2.12013769743314     -0.59525570962043      1.44131268788404
  N   0.92105863890826      1.16468017654029     -0.32434116801140
  O   0.04518463305834      2.02470340649189     -0.25404346487145
  O   2.05235408923947      1.34027256562820     -0.77897318387581
