13
Coordinates from ORCA-job run
  C   -0.60934092544742     -0.70461416241405     -0.10470650863590
  C   0.59337408118214     -0.21868965337684      0.23868877402216
  H   -0.67646689684690     -1.78205287551271      0.02117045278546
  C   -1.81303905461465      0.01560538870537     -0.62784086653046
  H   -1.67987012733001      0.28629594773142     -1.67813840747254
  H   -2.69157030356976     -0.62516017830205     -0.54654792528726
  H   -2.00048791149808      0.94598243290140     -0.09146574987314
  N   1.65167897330594     -1.02461207278834      0.69321653465272
  H   2.33592608859972     -1.17217210590261     -0.03912629257290
  H   2.11851371958454     -0.57562543308324      1.47141323874100
  N   0.85233120855778      1.24678082534431      0.21753765129478
  O   1.73162206939797      1.65395877364643      0.97819440921359
  O   0.18432907867874      1.95530311305092     -0.53239531033751
