13
Coordinates from ORCA-job run
  C   -0.62432885916859     -0.60189064622389      0.20780168179171
  C   0.64634726433375     -0.15520629880492      0.18801955605831
  H   -0.76915371226701     -1.52109669755295      0.77294328037437
  C   -1.83526479320633     -0.01672234772746     -0.45693845515719
  H   -1.84569504496765     -0.22916350585475     -1.52889253427184
  H   -2.73589164229401     -0.44550928796715     -0.01502266378519
  H   -1.88233073358329      1.06796390545072     -0.35360800919236
  N   1.77108607718633     -0.76975221508012      0.71959762687299
  H   1.54523476323540     -1.49325297998264      1.38496577003189
  H   2.43909365821243     -0.10508106175663      1.08244064129973
  N   1.00139551938588      1.09878518991011     -0.49775817386914
  O   1.99971960511862      1.68914602499399     -0.07947853641491
  O   0.28978789801447      1.48377992059568     -1.42207018373837
