13
Coordinates from ORCA-job run
  C   -0.62032657354786     -0.63822389740012     -0.04761481389448
  C   0.61701434531877     -0.19235089965439      0.24392244955896
  H   -0.74882351666610     -1.71383630205703      0.06126481589079
  C   -1.82686256470849      0.14721612236054     -0.46964146710704
  H   -1.58772983924690      0.91303847322506     -1.20827351861565
  H   -2.56794266066434     -0.52838031925812     -0.89956986158900
  H   -2.28619673433594      0.66185800545840      0.37803733211388
  N   1.68848989871389     -0.92340010617619      0.73659141329779
  H   2.57544027709836     -0.59385724028065      0.38393407243972
  H   1.57227525977934     -1.91843228823749      0.62018451744044
  N   0.96488779669971      1.23234639338441      0.10703375407391
  O   0.06630030919323      2.06590843629911      0.18868830105263
  O   2.15347400236633      1.49011362233647     -0.09555699466195
