13
Coordinates from ORCA-job run
  C   -0.58662217895893     -0.02121289782389     -0.68207363477048
  C   0.46620925631700      0.28267970625728      0.08852067881683
  H   -0.61871642334391      0.41060590192114     -1.67666596343137
  C   -1.68256748816611     -0.93556114088388     -0.24663346499002
  H   -1.64637269064166     -1.87733062795721     -0.80371267354355
  H   -2.65668303100007     -0.48390065157692     -0.45213152429367
  H   -1.60254452899033     -1.15532020320889      0.81751928240941
  N   0.71492847394852     -0.21111719976272      1.37312455672124
  H   1.22100770558948      0.47303442230051      1.92029083105813
  H   1.25751643986674     -1.06540306744636      1.34746583603453
  N   1.45909887939685      1.27370482789832     -0.44055904684029
  O   2.30060962337258      1.67652527764865      0.36427497362045
  O   1.37413596260985      1.63429565263396     -1.60841985079123
