16

C	0.0	0.0	0.0
C	-0.577396	-0.174565	-1.40865
Br	1.955992	0.0	0.0
H	-1.660196	-0.004237	-1.263862
H	-0.26969	0.99787	0.349992
C	-0.505926	-1.042009	0.977935
H	-0.188766	-0.788768	1.991816
H	-0.11935	-2.03464	0.73936
H	-1.599147	-1.037881	0.932195
C	-0.381038	-1.566058	-2.010383
H	-0.937171	-2.297961	-1.424167
H	0.676182	-1.842134	-2.036193
H	-0.773579	-1.587774	-3.028967
C	-0.075288	0.856421	-2.316223
N	0.322024	1.670245	-3.065171
Br	-3.892623	0.0	0.0
