16

C	0.0	0.0	0.0
C	-0.579859	-0.140768	-1.410534
Br	1.956024	0.0	0.0
H	-1.663222	0.019243	-1.259764
H	-0.268875	0.989197	0.374435
C	-0.505439	-1.065009	0.953334
H	-0.179024	-0.842519	1.971158
H	-1.599281	-1.056076	0.915272
H	-0.127592	-2.052514	0.682411
C	-0.37482	-1.513304	-2.052035
H	-0.924204	-2.267379	-1.487224
H	-0.768348	-1.508642	-3.070315
H	0.684409	-1.78037	-2.087356
C	-0.085474	0.917148	-2.291432
N	0.309671	1.750045	-3.019933
Br	-3.896371	0.0	0.0
