16

C	0.0	0.0	0.0
C	-0.57752	-0.175061	-1.408528
Br	1.955958	0.0	0.0
H	-1.660276	-0.004609	-1.26379
H	-0.269663	0.998013	0.349593
C	-0.505961	-1.041582	0.978414
H	-0.188549	-0.788109	1.992138
H	-1.59921	-1.037295	0.932937
H	-0.119727	-2.03442	0.739975
C	-0.381286	-1.566796	-2.009643
H	-0.773484	-1.588825	-3.028342
H	-0.93775	-2.298355	-1.423375
H	0.675835	-1.843125	-2.034973
C	-0.075321	0.855439	-2.316603
N	0.322305	1.668809	-3.065892
Br	-3.892753	0.0	0.0
