19

C	-0.51719	0.00965	-1.449927
C	0.0	0.0	0.0
Cl	0.327464	1.25158	-2.389288
H	1.089098	0.0	0.0
N	-0.099591	-1.355917	-2.019435
O	-0.99878	-2.188392	-2.151867
O	1.087426	-1.537253	-2.239492
C	-2.009713	0.180628	-1.633008
H	-2.255158	0.061777	-2.689006
H	-2.563087	-0.560026	-1.059401
H	-2.302323	1.177784	-1.309324
C	-0.487512	-1.18575	0.812678
H	-0.055241	-2.10397	0.412477
H	-0.114499	-1.072716	1.832668
H	-1.573793	-1.265335	0.841323
N	-0.460237	1.268267	0.651908
O	-1.605309	1.278776	1.119637
O	0.315113	2.218259	0.675508
Br	3.52569	0.0	0.0
