19

C	-0.48662	0.028512	-1.4613
C	0.0	0.0	0.0
Cl	0.503483	1.117465	-2.481156
H	1.092367	0.0	0.0
N	-0.216132	-1.387232	-1.916003
O	-1.171881	-2.197153	-1.919749
O	0.971694	-1.749793	-2.054754
C	-1.944162	0.389901	-1.656095
H	-2.591071	-0.224645	-1.029032
H	-2.062855	1.438719	-1.388983
H	-2.230949	0.254685	-2.699803
C	-0.475133	-1.229878	0.757208
H	-0.144228	-1.168799	1.792555
H	-0.02657	-2.127529	0.326037
H	-1.56406	-1.329647	0.74608
N	-0.354086	1.244242	0.720585
O	-0.335077	2.348709	0.117628
O	-0.40902	1.19119	1.977234
Br	2.704711	0.0	0.0
