16

C	0.0	0.0	0.0
C	-0.421574	0.041589	-1.526104
Br	1.924742	0.0	0.0
H	0.483081	-0.275147	-2.050562
H	-0.333441	-0.920343	0.468855
N	-0.40909	1.076454	0.967631
O	-0.390004	2.244675	0.594154
O	-0.613671	0.70547	2.120265
C	-0.775212	1.425799	-2.050096
H	-0.943336	1.319508	-3.125008
H	-1.691912	1.773805	-1.577157
H	0.021559	2.149521	-1.871876
N	-1.460271	-0.898308	-1.892886
H	-2.244	-0.673477	-1.233779
H	-1.142037	-1.838215	-1.667853
H	-2.86609	0.0	0.0
