16

C	0.0	0.0	0.0
C	-0.514195	0.031551	-1.48599
Br	1.92461	0.0	0.0
H	0.346047	-0.338038	-2.055482
H	-0.315205	-0.921215	0.48221
N	-0.411489	1.073702	0.976732
O	-0.323127	2.246623	0.62964
O	-0.722336	0.683536	2.098357
C	-0.855822	1.422019	-2.005627
H	-1.73973	1.795513	-1.489242
H	-0.034558	2.129354	-1.881608
H	-1.093362	1.311789	-3.065691
N	-1.624743	-0.854088	-1.741385
H	-1.371496	-1.801557	-1.470579
H	-2.418291	-0.55775	-1.107411
H	-3.344854	0.0	0.0
