16

C	0.0	0.0	0.0
C	-0.619123	0.150536	-1.369283
Br	1.916393	0.0	0.0
H	-1.694538	0.269267	-1.095742
H	-0.356334	-0.906718	0.483126
N	-0.401179	1.102155	0.957084
O	-0.556026	2.233414	0.507292
O	-0.477507	0.792109	2.139724
C	-0.469751	-1.150161	-2.137953
H	-0.969554	-1.960761	-1.60201
H	0.581386	-1.4005	-2.309333
H	-0.96201	-1.053093	-3.11117
N	-0.034029	1.250631	-2.143662
H	-0.271153	2.113652	-1.667422
H	-0.524347	1.268358	-3.032183
H	-3.169247	0.0	0.0
