16

C	0.0	0.0	0.0
C	-0.368735	-0.071505	-1.532036
Br	1.931933	0.0	0.0
H	0.576903	0.043831	-2.065215
H	-0.297762	-0.879894	0.549528
N	-0.396296	1.160206	0.834037
O	-0.352324	2.287245	0.328098
O	-0.502689	0.952377	2.046804
C	-1.314507	0.954302	-2.151767
H	-1.110261	1.953729	-1.776317
H	-1.144664	0.929287	-3.236378
H	-2.347544	0.691737	-1.932618
N	-0.843672	-1.415479	-1.868346
H	-0.132499	-2.081141	-1.57587
H	-1.655828	-1.549247	-1.263332
H	-2.132011	0.0	0.0
