16

C	0.0	0.0	0.0
C	-0.257424	-0.080313	-1.542008
Br	1.933239	0.0	0.0
H	0.455188	0.641631	-1.96377
H	-0.278683	-0.875963	0.567665
N	-0.573221	1.179866	0.63403
O	-0.565827	2.229347	-0.062906
O	-0.59688	1.195931	1.886211
C	-1.601851	0.297241	-2.153312
H	-1.967903	1.23048	-1.731194
H	-1.425867	0.445052	-3.232366
H	-2.340574	-0.489658	-2.01904
N	0.047416	-1.461565	-1.9592
H	-0.187785	-1.54173	-2.94422
H	1.04807	-1.610256	-1.881607
H	-1.959394	0.0	0.0
