16

C	0.0	0.0	0.0
C	-0.382245	0.044018	-1.521622
Br	1.924693	0.0	0.0
H	-1.447636	0.265168	-1.493156
H	-0.315074	-0.901009	0.512521
N	-0.578034	1.127709	0.765821
O	-0.61849	2.23423	0.180651
O	-0.580953	1.011867	2.006202
C	-0.200937	-1.33245	-2.138508
H	0.856446	-1.608764	-2.214254
H	-0.718381	-2.090401	-1.542591
H	-0.627481	-1.322402	-3.144989
N	0.248335	1.060258	-2.353919
H	0.059128	1.948958	-1.902578
H	1.254437	0.937906	-2.352818
H	-2.294401	0.0	0.0
