12

C	0.0	0.0	0.0
C	-0.535428	-0.368506	-1.365353
Cl	1.782486	0.0	0.0
H	-0.167274	0.286853	-2.151058
H	-0.354164	-0.718114	0.737403
H	-1.636322	-0.35203	-1.287917
C	-0.419328	1.354675	0.359155
N	-0.619235	2.476337	0.639182
N	-0.12613	-1.747322	-1.735535
O	0.105677	-1.958775	-2.925666
O	-0.088069	-2.593984	-0.845758
Cl	-3.405948	0.0	0.0
