12

C	0.0	0.0	0.0
C	-0.461112	0.019536	-1.444859
Cl	1.782495	0.0	0.0
H	-1.559076	0.061992	-1.445671
H	-0.367502	-0.892447	0.501566
H	-0.006117	0.837212	-2.00098
C	-0.424692	1.215256	0.694226
N	-0.582392	2.241513	1.242802
N	-0.05627	-1.23204	-2.138048
O	0.20525	-1.142671	-3.33704
O	-0.051779	-2.275339	-1.489947
Cl	-3.287131	0.0	0.0
