12

C	0.0	0.0	0.0
C	-0.548194	0.203251	-1.3987
Cl	1.782185	0.0	0.0
H	-0.292863	-0.636512	-2.041674
H	-0.351924	-0.97766	0.331862
H	-1.640501	0.303542	-1.291818
C	-0.430785	0.991948	0.988373
N	-0.69105	1.759751	1.83687
N	-0.016267	1.414741	-2.066965
O	0.190228	1.332983	-3.276777
O	0.143388	2.425387	-1.390533
Cl	-3.427365	0.0	0.0
