12

C	0.0	0.0	0.0
C	-0.538575	-0.260517	-1.390538
Cl	1.782328	0.0	0.0
H	-1.641043	-0.242012	-1.306813
H	-0.349258	-0.779028	0.675594
H	-0.166251	0.451039	-2.123728
C	-0.424189	1.315497	0.481232
N	-0.622031	2.39534	0.897337
N	-0.143331	-1.610221	-1.86433
O	-0.063786	-2.511555	-1.032682
O	0.028429	-1.748355	-3.074247
Cl	-3.416392	0.0	0.0
