12

C	0.0	0.0	0.0
C	-0.553484	0.207945	-1.392578
Cl	1.782645	0.0	0.0
H	-1.650982	0.278692	-1.290849
H	-0.343535	-0.98107	0.3321
H	-0.277446	-0.619163	-2.044209
C	-0.416082	0.988208	1.000592
N	-0.640234	1.748634	1.866009
N	-0.053696	1.438881	-2.052729
O	0.139535	2.432701	-1.358166
O	0.089214	1.388969	-3.274074
Cl	-3.424562	0.0	0.0
