12

C	0.0	0.0	0.0
C	-0.501172	0.051713	-1.45019
Br	1.957622	0.0	0.0
H	-1.60261	-0.009736	-1.272035
H	-0.301886	-0.964198	0.404867
H	-0.136698	-0.796058	-2.03718
N	-0.522952	1.022128	0.849957
H	-0.318077	1.926609	0.433674
H	-1.550021	0.825708	0.743522
C	-0.145021	1.294269	-2.11806
N	0.142155	2.303872	-2.646654
F	-2.784708	0.0	0.0
