12

C	0.0	0.0	0.0
C	-0.516605	-0.050054	-1.442828
Br	1.95698	0.0	0.0
H	-1.617968	-0.077073	-1.25174
H	-0.287427	-0.927169	0.493567
H	-0.239973	0.872586	-1.964598
N	-0.548393	1.084299	0.7536
H	-0.390708	1.943875	0.232842
H	-1.5728	0.847052	0.671286
C	-0.073552	-1.199399	-2.216153
N	0.268518	-2.133721	-2.842048
F	-2.808335	0.0	0.0
