12

C	0.0	0.0	0.0
C	-0.513251	0.115882	-1.441042
Br	1.95851	0.0	0.0
H	-0.160998	-0.708835	-2.067423
H	-0.293971	-0.986096	0.356787
H	-1.614278	0.048785	-1.252727
N	-0.533365	0.970033	0.902245
H	-0.360088	1.896299	0.521376
H	-1.558422	0.761456	0.794107
C	-0.16602	1.382965	-2.064774
N	0.111912	2.411177	-2.561222
F	-2.799717	0.0	0.0
