15

C	0.014294	-0.01844	0.014293
C	-0.537008	-0.447215	-1.341942
F	1.42322	0.074899	-0.114515
H	-0.238617	0.332721	-2.051018
H	-1.62989	-0.438922	-1.284847
C	-0.522895	1.312479	0.481097
H	-0.078597	1.587348	1.440205
H	-0.266562	2.070445	-0.262974
H	-1.612878	1.253132	0.556552
C	-0.207251	-1.079876	1.015458
N	-0.341675	-1.94161	1.801274
N	-0.053654	-1.735934	-1.818041
H	-0.507299	-2.478197	-1.299565
H	0.94279	-1.80453	-1.648506
Br	-4.041719	0.483442	-0.379958
