15

C	0.0	0.0	0.0
C	-0.204911	0.168048	-1.524432
F	1.393523	0.0	0.0
H	0.330799	-0.638347	-2.022503
H	-0.368264	0.876651	0.523377
N	-0.541289	-1.167781	0.559599
H	-1.58092	-0.898576	0.525628
H	-0.391097	-1.947443	-0.073282
N	0.44659	1.426595	-2.013396
O	0.387138	2.428205	-1.309789
O	0.994446	1.359473	-3.115637
N	-1.579734	0.150478	-2.121573
O	-2.110594	1.222174	-2.370682
O	-1.978421	-0.960979	-2.443116
F	-2.66861	0.0	0.0
