17

C	-0.560886	0.034482	-1.403494
C	0.0	0.0	0.0
F	0.024707	1.081906	-2.073234
H	1.088101	0.0	0.0
N	-0.089948	-1.178634	-2.249032
O	-0.655129	-1.305271	-3.337208
O	0.81798	-1.875441	-1.82765
N	-1.959605	0.214773	-1.479842
H	-2.391051	-0.556543	-0.983281
H	-2.237822	0.183061	-2.455034
N	-0.485859	-1.174837	0.731082
O	-1.230453	-1.992811	0.146826
O	-0.07012	-1.326786	1.878707
N	-0.301969	1.20032	0.726727
H	0.561341	1.738103	0.783984
H	-1.026406	1.735937	0.268904
H	2.525075	0.0	0.0
