17

C	-0.262138	0.018584	-1.490187
C	0.0	0.0	0.0
F	0.166601	-1.159993	-2.059921
H	1.094765	0.0	0.0
N	-1.733333	0.125283	-1.910312
O	-2.005846	-0.202886	-3.060082
O	-2.520995	0.602134	-1.099048
N	0.400514	1.137126	-2.033803
H	1.353382	1.104082	-1.658626
H	0.436328	1.033729	-3.042924
N	-0.529385	-1.234123	0.636845
O	-0.152433	-1.456749	1.782786
O	-1.299817	-1.960594	-0.00413
N	-0.360806	1.150162	0.760511
H	0.467103	1.71968	0.893606
H	-1.10615	1.677512	0.335275
H	2.626797	0.0	0.0
