17

C	-0.631711	0.042482	-1.370743
C	0.0	0.0	0.0
F	-0.008342	1.064283	-2.083755
H	1.093423	0.0	0.0
N	-0.242594	-1.181467	-2.229327
O	0.916473	-1.554688	-2.164776
O	-1.103184	-1.624788	-2.989925
N	-2.013862	0.2448	-1.36299
H	-2.465974	-0.311574	-2.075185
H	-2.399153	0.077017	-0.447878
N	-0.431922	-1.140878	0.749584
O	-0.217456	-1.10796	1.976433
O	-0.843585	-2.153525	0.13922
N	-0.364915	1.223197	0.721775
H	0.253442	1.222599	1.53077
H	-0.020504	1.977363	0.130984
H	2.454871	0.0	0.0
