17

C	-0.638063	0.068932	-1.373982
C	0.0	0.0	0.0
F	-0.008024	1.109764	-2.062444
H	1.095153	0.0	0.0
N	-0.33909	-1.111071	-2.289681
O	-1.25348	-1.507381	-3.010882
O	0.81831	-1.495245	-2.322361
N	-2.023933	0.247796	-1.280813
H	-2.442182	0.34119	-2.196587
H	-2.164458	1.07833	-0.716767
N	-0.440985	-1.176363	0.719269
O	-0.508202	-1.110495	1.960938
O	-0.615742	-2.224342	0.077368
N	-0.336777	1.223726	0.706071
H	0.558889	1.650642	0.938745
H	-0.763169	0.952358	1.586295
H	2.471731	0.0	0.0
