17

C	-0.414497	-0.058983	-1.460154
C	0.0	0.0	0.0
F	-1.789454	-0.075753	-1.620298
H	1.088506	0.0	0.0
N	-0.038086	1.327929	-2.095609
O	-0.769322	2.285298	-1.862887
O	0.978139	1.356862	-2.783116
N	0.183746	-1.115149	-2.133887
H	0.200173	-0.963637	-3.132757
H	1.127263	-1.259187	-1.779754
N	-0.483792	-1.278582	0.633488
O	-1.485505	-1.233986	1.346632
O	0.171058	-2.294642	0.403137
N	-0.436432	1.11978	0.750642
H	-1.262785	1.565987	0.385253
H	0.330863	1.775729	0.821222
H	2.672277	0.0	0.0
