17

C	-0.550871	-0.005817	-1.419292
C	0.0	0.0	0.0
F	-0.101256	1.100699	-2.078554
H	1.088976	0.0	0.0
N	0.045246	-1.183736	-2.23406
O	1.167787	-1.041804	-2.693249
O	-0.673561	-2.178262	-2.344686
N	-1.963586	0.000207	-1.446115
H	-2.310686	-0.191943	-2.376683
H	-2.334915	-0.685647	-0.805751
N	-0.46515	-1.273916	0.64375
O	0.200413	-2.27988	0.389989
O	-1.471184	-1.256814	1.364022
N	-0.414972	1.141986	0.73329
H	0.390629	1.747838	0.829856
H	-1.194572	1.628508	0.317191
H	2.660992	0.0	0.0
