12

C	-0.445909	0.351673	-1.401482
C	0.0	0.0	0.0
Cl	0.039833	1.992323	-1.829046
H	1.093327	0.0	0.0
H	-0.045779	-0.330662	-2.147875
H	-0.36242	0.749296	0.705743
N	-1.94906	0.268389	-1.532024
O	-2.617717	0.832484	-0.674479
O	-2.385472	-0.356063	-2.496447
C	-0.506688	-1.316188	0.371751
N	-0.931743	-2.370915	0.663072
Br	3.442404	0.0	0.0
