12

C	-0.464793	-0.006131	-1.439239
C	0.0	0.0	0.0
Cl	0.022155	1.468479	-2.273163
H	1.092612	0.0	0.0
H	-0.093227	-0.861784	-1.997198
H	-0.357868	0.902234	0.499664
N	-1.971177	-0.097978	-1.502967
O	-2.442538	-0.983308	-2.210114
O	-2.607466	0.707616	-0.835867
C	-0.50704	-1.179546	0.691619
N	-0.945391	-2.128271	1.226264
Br	3.457585	0.0	0.0
