12
Coordinates from ORCA-job run
  C   0.44312077776902     -0.30355965927780     -0.65091408186277
  C   -0.70824699037680     -0.10523019354348      0.34044696176327
  H   0.40224803235151     -1.30127490527235     -1.09254655192983
  H   -0.59859167035628     -0.82940004274720      1.15387849948855
  H   0.44666214302757      0.45047191807697     -1.43598134785126
  N   1.76064090296415     -0.20474628189027      0.05743816776785
  O   2.70879995196255      0.17903338125503     -0.61588070216014
  O   1.79246605343693     -0.55651525443821      1.23349575335050
  C   -1.98165682622872     -0.34263656513048     -0.34724089479324
  N   -2.98146696191306     -0.55721292124288     -0.92365385229559
  C   -0.66955112589920      1.24328077100694      0.91772577676994
  N   -0.61342428673766      2.32778975320373      1.36323227175271
