12
Coordinates from ORCA-job run
  C   0.40746220877433     -0.63739165668099     -0.37355935483611
  C   -0.67703940991138      0.40446854200447     -0.08007545762328
  H   0.37558520365005     -0.93894519056095     -1.42252220781234
  H   -0.48015482019171      1.29473514640860     -0.68570872703260
  H   0.32323860768571     -1.51342213424771      0.26717404894615
  N   1.76721459706567     -0.05161537187778     -0.14017839281539
  O   2.64882441569156     -0.84066425819192      0.17613064703487
  O   1.89763796920888      1.15483559033873     -0.32803392562558
  C   -0.65274766044881      0.79603073353268      1.33376740433052
  N   -0.60877646516131      1.08928587801853      2.46946170327120
  C   -1.98573109933453     -0.14673383768377     -0.44703669103636
  N   -3.01551354702847     -0.60958344105990     -0.76841904680107
