12
Coordinates from ORCA-job run
  C   0.42351497494171     -0.28220863271193     -0.67302545074077
  C   -0.68538206138777     -0.13590275679018      0.37419858085918
  H   0.35569430699626      0.47215708441164     -1.45494307424057
  H   -0.50521441760650     -0.85693280420606      1.17780516478234
  H   0.40366172530298     -1.28013402459688     -1.11575885680242
  N   1.76869169379581     -0.12843812426659     -0.03001015318821
  O   2.66606101943343      0.29444034276297     -0.74818737993772
  O   1.87308366828814     -0.47905871230528      1.14216965652592
  C   -1.97966261342232     -0.42680535810835     -0.25137706260897
  N   -2.99744554438861     -0.68405465885878     -0.77666014150017
  C   -0.67691702680456      1.21136834288679      0.95531910004588
  N   -0.64508572514858      2.29656930178265      1.40146961680551
