12
Coordinates from ORCA-job run
  C   0.42026074136388     -0.64557299561843     -0.34398915471043
  C   -0.68799645550790      0.38216991943742     -0.09331831820541
  H   0.36689482058004     -1.48714939693347      0.34446000863793
  H   -0.51979608226850      1.24491668483034     -0.74562518958519
  H   0.38546959889031     -1.00471413158171     -1.37456293707425
  N   1.76672007941330     -0.01284315691579     -0.15906849129624
  O   1.86288242603156      1.18494669529753     -0.41187609333963
  O   2.67218490444015     -0.76088783649398      0.18775106649641
  C   -0.66050190223125      0.84639082520569      1.29842026394913
  N   -0.61544329841027      1.19837254000844      2.41728220159321
  C   -1.98542599342165     -0.22008133396489     -0.41707883938421
  N   -3.00524883887968     -0.72654781327117     -0.70239451708131
