18

C	-0.598906	0.073757	-1.5943
C	0.095898	0.004452	-0.234688
Br	0.270198	-1.386522	-2.832813
H	1.178083	-0.016584	-0.396072
N	-1.989178	-0.10357	-1.513268
H	-2.207498	-0.92845	-0.970373
H	-2.437456	-0.134504	-2.418834
C	-0.294053	1.29208	-2.34723
N	-0.073367	2.280889	-2.943651
C	-0.258525	-1.241536	0.570668
H	-1.296671	-1.210551	0.927064
H	-0.086934	-2.165306	0.00964
H	0.426932	-1.155597	1.438997
C	-0.198323	1.250305	0.605416
H	0.120624	2.17	0.104341
H	-1.265237	1.325169	0.839019
H	0.410916	1.068994	1.508671
F	1.623963	-0.12057	2.281822
