18

C	-0.362627	-0.024924	-1.494385
C	0.0	0.0	0.0
F	-1.727437	-0.350022	-1.62735
H	1.091187	0.0	0.0
C	-0.167609	1.299743	-2.202434
H	-0.845123	2.063648	-1.818028
H	0.86306	1.63349	-2.070115
H	-0.374237	1.159914	-3.267765
N	0.389082	-1.120295	-2.04598
H	1.35487	-1.060848	-1.726666
H	0.389482	-1.057962	-3.057953
N	-0.492849	-1.109787	0.754805
H	0.196731	-1.847876	0.715755
H	-1.359872	-1.442778	0.353674
N	-0.522536	1.274082	0.592311
O	0.211773	2.259254	0.576867
O	-1.683752	1.26447	0.999737
Br	3.48888	0.0	0.0
