18

C	-0.447609	0.042146	-1.468973
C	0.0	0.0	0.0
F	0.009084	-1.179307	-2.01193
H	1.090866	0.0	0.0
C	-1.947225	0.039568	-1.67119
H	-2.163002	0.002504	-2.742667
H	-2.371259	-0.850934	-1.205588
H	-2.401952	0.93372	-1.246221
N	0.177248	1.147421	-2.100183
H	0.062202	1.075351	-3.103379
H	1.170749	1.153157	-1.87863
N	-0.517115	-1.128278	0.702969
H	-1.393925	-0.887266	1.145912
H	0.153105	-1.408252	1.406468
N	-0.426793	1.31177	0.647057
O	0.318978	2.277757	0.560041
O	-1.525806	1.320976	1.217809
Br	3.509872	0.0	0.0
