18

C	-0.557227	0.087053	-1.424922
C	0.0	0.0	0.0
F	-1.963813	0.378894	-1.265924
H	1.092644	0.0	0.0
C	0.027678	1.1824	-2.28482
H	-0.324511	1.049641	-3.312129
H	1.115636	1.107934	-2.257019
H	-0.275549	2.164091	-1.930251
N	-0.374902	-1.173119	-2.028933
H	-0.863698	-1.22358	-2.911355
H	-0.655511	-1.905867	-1.389821
N	-0.478444	-1.171688	0.66693
H	0.186882	-1.430244	1.384039
H	-1.372186	-0.978189	1.1029
N	-0.411601	1.267474	0.742832
O	0.105092	2.320613	0.388102
O	-1.234846	1.16709	1.651404
Br	3.493083	0.0	0.0
