13

C	0.0	0.0	0.0
C	-0.4106	0.534734	-1.378264
Br	2.025232	0.0	0.0
H	-0.151292	1.601522	-1.401741
H	-0.237672	-1.058891	0.100218
H	0.207828	0.048989	-2.136257
N	-0.579434	0.723344	1.038466
H	-0.362563	1.708043	1.029835
H	-0.491239	0.319403	1.956837
N	-1.799904	0.368428	-1.722866
H	-2.441412	0.700917	-1.006396
H	-2.033757	-0.610563	-1.834232
Br	-4.796218	0.0	0.0
