13

C	0.0	0.0	0.0
C	-0.470621	0.158513	-1.430355
Br	2.069924	0.0	0.0
H	0.01412	-0.588933	-2.068995
H	-0.188296	-1.001166	0.381708
H	-1.547218	-0.039493	-1.374663
N	-0.532039	0.969166	0.792659
H	-0.625202	1.881066	0.379758
H	-0.533363	0.881468	1.789582
N	-0.269998	1.538464	-1.867198
H	-0.987348	1.794483	-2.530183
H	0.637577	1.641415	-2.301298
Br	-4.051095	0.0	0.0
