13

C	0.0	0.0	0.0
C	-0.325207	0.149969	-1.507516
Br	1.958089	0.0	0.0
H	0.247146	-0.60775	-2.052699
H	-0.28351	-0.993385	0.354288
H	0.075456	1.124267	-1.817389
N	-0.56357	0.972004	0.879411
H	-0.535766	1.888767	0.447504
H	-1.540266	0.727522	1.038614
N	-1.704483	0.062873	-1.912298
H	-2.11884	-0.820349	-1.641492
H	-2.294253	0.747812	-1.454255
Br	-4.404978	0.0	0.0
