15

C	-0.606219	-0.076977	-1.496087
C	0.096213	-0.187214	-0.137415
Cl	0.42743	0.912635	-2.650528
H	1.176705	-0.318162	-0.288674
H	-0.30116	-1.096686	0.326592
N	-0.685101	-1.419775	-2.214762
O	0.131025	-2.282953	-1.906992
O	-1.552663	-1.538644	-3.075077
N	-1.898731	0.415774	-1.327923
H	-2.317134	0.720084	-2.195126
H	-1.795044	1.165805	-0.640153
N	-0.183175	1.013624	0.626021
H	-0.534628	0.741445	1.537396
H	0.776623	1.466839	0.827167
H	2.197091	1.776608	1.142468
