12
Coordinates from ORCA-job run
  C   0.96006566370302      0.37116037413930      0.21339150597947
  C   -0.41863604922966     -0.04837145865056     -0.30743519121278
  H   0.96848791514829      0.33431155921473      1.30605524362568
  H   -0.45182754820957      0.01542074533411     -1.40007354436974
  H   1.15840676571572      1.39990222712557     -0.09039962141068
  C   1.98888690510292     -0.51629177976898     -0.32197500759908
  N   2.80658222061526     -1.22868143211836     -0.77007938977253
  N   -1.47845025514794      0.94233274095723      0.16746988938473
  O   -2.61434225216269      0.51211807958562      0.30484994884322
  O   -1.10682487863824      2.10056338199667      0.31174630243789
  C   -0.78631624274732     -1.39325024302491      0.11905939777575
  N   -1.02703224414978     -2.48821419479043      0.46839046631808
