12
Coordinates from ORCA-job run
  C   0.96849621590331     -0.49626802082730      0.02467692037152
  C   -0.43745348830487     -0.08731994093261     -0.41842414279583
  H   1.33984773772481     -1.27783540053132     -0.64358296911693
  H   -0.43198246759312      0.40800981242159     -1.39090301412047
  H   0.92245325077000     -0.90184988346725      1.03696700593078
  C   1.86950907309102      0.65327052164384     -0.01094069273025
  N   2.57199613937242      1.59196165745634     -0.05601385346639
  N   -1.00321948166488      0.93758858141441      0.55240235539393
  O   -1.62468430460276      1.86622170289053      0.05219068352998
  O   -0.80550674516387      0.72779940283188      1.74218177062355
  C   -1.33628649119573     -1.23738973809237     -0.43701856190331
  N   -2.03216943833633     -2.18318869480773     -0.45353550171658
