12
Coordinates from ORCA-job run
  C   0.96449712325394      0.35754263755138      0.20823218653474
  C   -0.41834869384236     -0.05307271146428     -0.30979406284776
  H   1.18678133193590      1.36919664915730     -0.13413355790413
  H   -0.43922403333301     -0.03080202365172     -1.40433422049285
  H   0.96157575090680      0.36291514090269      1.30161676315322
  C   1.97949332915043     -0.57131655198390     -0.28114385967090
  N   2.78628531992473     -1.31710073156909     -0.69312940656660
  N   -1.45674326192693      0.98151048988719      0.11537035593965
  O   -2.59324553876253      0.57884897809783      0.31686613788400
  O   -1.06764607380496      2.14219390477386      0.15918634263509
  C   -0.81871668257196     -1.37170962958423      0.16586014514471
  N   -1.08570857093003     -2.44720615211703      0.55440317619082
