17

C	0.0	0.0	0.0
C	-0.486108	0.119592	-1.452312
F	1.373932	0.0	0.0
H	-1.541498	0.404667	-1.418666
C	-0.346118	1.213599	0.798555
N	-0.508135	2.108569	1.542584
N	-0.496389	-1.207368	0.570614
H	-1.521275	-1.157003	0.488322
H	-0.278272	-1.209	1.561803
C	-0.257517	-1.148326	-2.243891
H	-0.925257	-1.92078	-1.864672
H	0.774812	-1.486013	-2.154891
H	-0.484101	-0.96961	-3.297373
N	0.253008	1.270043	-2.069346
O	-0.171136	2.39933	-1.822058
O	1.239579	1.027503	-2.765238
Cl	-3.487721	0.0	0.0
