17

C	0.0	0.0	0.0
C	-0.480973	0.017045	-1.458153
F	1.397777	0.0	0.0
H	-1.52043	0.356905	-1.452038
C	-0.320552	1.272662	0.711
N	-0.50616	2.217737	1.383513
N	-0.491042	-1.155994	0.662942
H	-0.262387	-1.084156	1.648429
H	-1.516356	-1.113448	0.58065
C	-0.32712	-1.324251	-2.137297
H	0.681521	-1.716289	-2.011218
H	-0.537728	-1.222555	-3.203162
H	-1.044011	-2.016844	-1.700287
N	0.315942	1.072222	-2.169254
O	6.7e-05	2.241529	-1.9537
O	1.234864	0.717563	-2.906883
Cl	-3.464763	0.0	0.0
