17

C	0.0	0.0	0.0
C	-0.490427	0.132218	-1.450544
F	1.374132	0.0	0.0
H	-1.528446	0.471966	-1.412317
C	-0.334487	1.212343	0.80909
N	-0.456693	2.090582	1.580162
N	-0.496636	-1.206715	0.568756
H	-1.521733	-1.151732	0.494619
H	-0.267461	-1.214416	1.557708
C	-0.342175	-1.149745	-2.237219
H	-1.067954	-1.869542	-1.862147
H	-0.546146	-0.95902	-3.292158
H	0.66143	-1.561107	-2.138742
N	0.305073	1.239671	-2.076689
O	-0.032426	2.389552	-1.796261
O	1.249264	0.943455	-2.809244
Cl	-3.468434	0.0	0.0
