17

C	0.0	0.0	0.0
C	-0.456574	-0.105198	-1.476101
F	1.390074	0.0	0.0
H	-1.47183	0.297973	-1.516924
C	-0.368369	1.319998	0.572435
N	-0.527041	2.370902	1.069135
N	-0.477906	-1.016463	0.871082
H	-0.285205	-1.92397	0.462841
H	-1.495764	-0.895533	0.926733
C	-0.412432	-1.516578	-2.014912
H	-0.569334	-1.506161	-3.09437
H	0.547377	-1.99718	-1.817646
H	-1.22925	-2.080789	-1.562947
N	0.411	0.804665	-2.29229
O	1.317229	0.308219	-2.96229
O	0.16902	2.009393	-2.219148
Cl	-3.435583	0.0	0.0
