17

C	0.0	0.0	0.0
C	-0.495248	0.109542	-1.447464
F	1.374157	0.0	0.0
H	-1.56568	0.327537	-1.400219
C	-0.338742	1.228213	0.781547
N	-0.488313	2.148613	1.49614
N	-0.498992	-1.200899	0.582414
H	-1.523869	-1.150713	0.507896
H	-0.26651	-1.198894	1.570337
C	-0.179795	-1.130342	-2.254186
H	0.88019	-1.372329	-2.194281
H	-0.443516	-0.96602	-3.300698
H	-0.763583	-1.962148	-1.866013
N	0.16168	1.309034	-2.059844
O	-0.409986	2.390954	-1.920185
O	1.229201	1.148051	-2.6523
Cl	-3.497202	0.0	0.0
