13

C	0.0	0.0	0.0
C	-0.525644	-0.090742	-1.442848
Br	1.964887	0.0	0.0
H	-0.101441	-0.99968	-1.883064
H	-1.608895	-0.212403	-1.319001
C	-0.403722	1.243006	0.657896
N	-0.626083	2.260528	1.201802
C	-0.379169	-1.180173	0.782205
N	-0.567512	-2.180299	1.370103
N	-0.19741	1.120373	-2.165686
H	-1.039365	1.53442	-2.542111
H	0.461554	0.95082	-2.911115
Cl	-3.502298	0.0	0.0
