13

C	0.0	0.0	0.0
C	-0.507872	-0.135039	-1.45008
Br	1.965393	0.0	0.0
H	-1.58723	0.035149	-1.372244
H	-0.044156	0.671643	-2.025745
C	-0.400506	1.279093	0.588054
N	-0.564475	2.366913	1.001476
C	-0.40307	-1.134946	0.829536
N	-0.602448	-2.073595	1.507434
N	-0.180397	-1.450195	-1.966584
H	-1.027756	-1.99108	-2.077431
H	0.299704	-1.395331	-2.852313
Cl	-3.445454	0.0	0.0
