13

C	0.0	0.0	0.0
C	-0.525123	0.183429	-1.442189
Br	1.948957	0.0	0.0
H	0.161514	-0.348173	-2.106019
H	-1.510752	-0.284871	-1.457768
C	-0.416734	1.068026	0.909693
N	-0.604393	1.947824	1.665906
C	-0.378474	-1.318618	0.521311
N	-0.550243	-2.420357	0.892211
N	-0.55453	1.601235	-1.761693
H	-0.535107	1.716468	-2.766908
H	-1.449857	1.954058	-1.432339
Cl	-3.355396	0.0	0.0
