12
Coordinates from ORCA-job run
  C   -0.61337914799488     -0.84822830382970      0.09377932380043
  C   0.32758830560201      0.09586882616704     -0.13840772697722
  H   -0.41526045306839     -1.88133890346757     -0.16551751499970
  N   -1.84950966969238     -0.54472356180514      0.57375306592898
  H   -1.93444472139501      0.38202669350598      0.96512004346527
  H   -2.36580884847892     -1.27615335431571      1.02977497191558
  N   0.10620073428982      1.44960210865872      0.17978677986333
  H   0.88075251107960      1.81562730942289      0.72067409375116
  H   0.04104646465404      2.01344620347056     -0.66045055306563
  N   1.60185039802108     -0.30696197054322     -0.71881219701796
  O   1.78107332566141     -1.48798465251634     -1.01582910780554
  O   2.44089110132162      0.58781960525247     -0.86387117885871
