12
Coordinates from ORCA-job run
  C   -0.64631355407093     -0.71059996297176     -0.20083488327662
  C   0.41304253601620      0.12461166903165     -0.15837541514678
  H   -0.55353365019488     -1.65152790273032     -0.72747659783080
  N   -1.90187514253190     -0.36983351762795      0.29025901722272
  H   -1.88035670392471      0.19866407678072      1.12560337801322
  H   -2.52019933204964     -1.15728212729236      0.40005805570931
  N   0.41562029685180      1.45577750880437      0.23825563392587
  H   1.05825559433071      1.69783853757593      0.97611875490906
  H   -0.50461401091107      1.85025109588436      0.34670817254179
  N   1.69860000330342     -0.35562125676635     -0.65353787002338
  O   2.67634143788643      0.33806606871052     -0.36665391276499
  O   1.74503252529457     -1.41934418939881     -1.26912433327939
