12
Coordinates from ORCA-job run
  C   -0.57491588824210     -0.81247081205234      0.33677209682627
  C   0.31592739019241      0.06682704605029     -0.17658059066791
  H   -0.35154306312242     -1.87257151674880      0.33244318763446
  N   -1.79704986216886     -0.42956273235910      0.79712076689928
  H   -1.89597410482635      0.56311924054165      0.95266775777470
  H   -2.25700823765120     -1.03574798351990      1.45339725013117
  N   0.05853852333846      1.45115977654415     -0.19315026250613
  H   0.84649708184165      1.96002090113054      0.18976094898513
  H   -0.07401894062733      1.78324373779593     -1.14201963300754
  N   1.57455332629329     -0.43666277876655     -0.71195496707480
  O   2.37122560945582      0.41435687719907     -1.12030720051397
  O   1.78276816551663     -1.64971175581495     -0.71914935448067
