12
Coordinates from ORCA-job run
  C   -0.47437958827098     -0.79909539292211      0.49083226110292
  C   0.33590672824296      0.10241736894111     -0.10990326525662
  H   -0.07347792686092     -1.75001363530064      0.82066626850014
  N   -1.77768556769172     -0.53272041055846      0.77769256785364
  H   -2.39672642039377     -1.31491883712960      0.89886175891445
  H   -2.15646316121470      0.27375213156172      0.30275957565217
  N   -0.14743184327528      1.35071074241283     -0.54664776192913
  H   0.12594017326764      1.51761040519530     -1.50783902823869
  H   0.24461427185785      2.10482418908301      0.00630204776504
  N   1.73842393017104     -0.23698768031717     -0.31439254313960
  O   2.16001616718131     -1.32086563043127      0.08860852286796
  O   2.42126323698658      0.60528674946529     -0.90594040409227
