12
Coordinates from ORCA-job run
  C   -0.80006221562990     -0.20139918875341      0.66244506372125
  C   0.20511081548876      0.43129200568714     -0.00664247515894
  H   -1.34301597950750      0.43277395144396      1.35603017391508
  N   -1.17535135942340     -1.49786245165413      0.62717117841283
  H   -0.78288429636972     -2.08272310263972     -0.09241701039009
  H   -2.05587282856078     -1.75204908571925      1.03593612508479
  N   0.46780116015342      1.79481856133632      0.22686725098758
  H   0.39241554572689      2.32406897630257     -0.63370697877637
  H   1.41345998852803      1.92334121353812      0.56730514291772
  N   1.00980025586214     -0.27097449381593     -0.98358156218765
  O   1.88591476569411      0.37308218139130     -1.56642797983377
  O   0.78268414803795     -1.47336856711698     -1.19297892869242
