12
Coordinates from ORCA-job run
  C   -0.80910325239954     -0.05154890262113      0.57507526266649
  C   0.22911336162929      0.40407678248732     -0.17827644165353
  H   -1.30977534978369      0.68696908675575      1.19708694010435
  N   -1.39880867299421     -1.28911628147774      0.57489449763861
  H   -1.88049948240826     -1.54040489793206      1.42142534718007
  H   -0.86363389644377     -2.02096304999302      0.13377113502985
  N   0.58526032784095      1.75211914659467     -0.33955873831520
  H   0.03811258564453      2.35625997994635      0.25632054898206
  H   1.57602122727209      1.90208679602903     -0.20476674982616
  N   1.04700840224499     -0.49224506852697     -0.95031092955589
  O   2.09701022246821     -0.03464337486994     -1.41037521737757
  O   0.68929452692940     -1.67359021639227     -1.07628565487309
