12
Coordinates from ORCA-job run
  C   -0.49536825341360     -0.72689859885015      0.57488568135011
  C   0.34169502261152      0.09446722020896     -0.09976042932698
  H   -0.10305863354185     -1.59832853848911      1.08517447791137
  N   -1.82392854294980     -0.46497143076951      0.70919412044438
  H   -2.43316490459232     -1.23889569346202      0.90813725910243
  H   -2.17999857851278      0.23991184017500      0.08014812359659
  N   -0.13194543364216      1.23909393823179     -0.76942596267869
  H   0.19219853322182      2.08516924668014     -0.31413841656549
  H   0.22053714914193      1.26215816816995     -1.71899683319333
  N   1.76404279873728     -0.22064588613796     -0.13249256194990
  O   2.17499565946378     -1.21042169525686      0.47293976232686
  O   2.47499518347617      0.54036142949976     -0.79666522101736
