12
Coordinates from ORCA-job run
  C   -0.97556752276419     -0.00217647906096      0.29531138903426
  C   0.29083597124634      0.37040814439620     -0.05210302024811
  H   -1.68722331450544      0.79671920292394      0.48357963997549
  N   -1.43555246604104     -1.26985859867572      0.60228884506208
  H   -0.89334826082091     -2.01205293437439      0.18327539430516
  H   -2.42827361963233     -1.38799110551717      0.46753813452350
  N   0.73910245890629      1.66992689090083     -0.05067245791732
  H   0.21598538495217      2.37579206927514      0.42751872914914
  H   1.48239583655051      1.94847527793589     -0.66039415390733
  N   1.28253258191308     -0.57744054768081     -0.48496106922609
  O   1.03580020759299     -1.78777331104144     -0.37085546026959
  O   2.37331274260253     -0.12302860908150     -0.84252597048120
