12
Coordinates from ORCA-job run
  C   -0.49419875259119     -0.75758311264998      0.53461105561497
  C   0.34178504588106      0.10647024924872     -0.08577447002870
  H   -0.09539300056494     -1.64040132075776      1.01969950296805
  N   -1.83048958525588     -0.52700790987862      0.64877699558178
  H   -2.18665975554259      0.19555496381750      0.04013265956438
  H   -2.42783099371940     -1.32056042611474      0.80120908150317
  N   -0.13813990459331      1.26680693095582     -0.72275377370141
  H   0.15936305420024      2.10096867658110     -0.22895227215647
  H   0.23472869311582      1.33233134608503     -1.66251796084447
  N   1.77005854137286     -0.18347832679412     -0.10099612879295
  O   2.18636424315569     -1.18739116040541      0.47669904782019
  O   2.48041241454165      0.61429008991248     -0.72113373752856
