12
Coordinates from ORCA-job run
  C   -0.47036355447876     -0.85280411616359      0.35679534779860
  C   0.30720356115913      0.11015184010339     -0.18042338760592
  H   -0.13237474237834     -1.88035939344068      0.32531666927554
  N   -1.63032516186433     -0.58834349273954      1.04749912028018
  H   -1.98671249400520      0.35045670096672      0.96484866235159
  H   -2.33920715879852     -1.30227009762980      1.01369280661144
  N   0.00920088999009      1.47361810366798     -0.19330782573175
  H   0.83582677206312      2.04980059884184     -0.21012246967249
  H   -0.63033869782429      1.73819417866357     -0.92866907786484
  N   1.65716893922573     -0.27524332310678     -0.62407534159107
  O   1.91848478653894     -1.46786454678594     -0.77237485595303
  O   2.46043686037242      0.64466354762283     -0.79917964789826
