12
Coordinates from ORCA-job run
  C   -0.99746281297539     -0.06669165160194      0.34714088978559
  C   0.23061903518561      0.41798346966356      0.00741959543201
  H   -1.65296020779604      0.66299282519763      0.81161511011446
  N   -1.52617013891025     -1.29150252837255      0.13979879915174
  H   -2.37089497680366     -1.53547780085849      0.62338431715921
  H   -0.90950881183562     -2.02468826626659     -0.17037358614972
  N   0.56101350333544      1.76265327054407      0.26403563537312
  H   0.78165671051791      2.24749358724122     -0.59792093508919
  H   1.38485638552637      1.82041061346736      0.85086399007380
  N   1.22939406725333     -0.43620593803349     -0.59781782264270
  O   0.94263928867175     -1.62210184970598     -0.82765321091897
  O   2.32781795783054      0.06513426872520     -0.85149278228934
