12
Coordinates from ORCA-job run
  C   -0.53568206659654     -0.86175952190458      0.27365049776948
  C   0.29741073779749      0.09580628566404     -0.19472835325752
  H   -0.40216031450153     -1.89181421961372     -0.03442995888342
  N   -1.50512209906726     -0.60104316341658      1.19244069133970
  H   -1.71580885248041      0.37883377972433      1.31470563018844
  H   -2.28125430403797     -1.23736381477535      1.24249853210280
  N   0.15725151373721      1.44405432292827      0.18644723998584
  H   0.93652176849050      1.74069761707951      0.76350672964022
  H   0.15262845338849      2.04230786990514     -0.63124097843621
  N   1.35431259728706     -0.28281854471563     -1.12395967694550
  O   2.05556291530496      0.63824115808934     -1.55469186167765
  O   1.48533965067799     -1.46614176896477     -1.43619849182618
