12
Coordinates from ORCA-job run
  C   -0.86419600756789     -0.06273804014426      0.48493608554034
  C   0.25823633822539      0.40647518864396     -0.12504049924898
  H   -1.40693519331117      0.65029584968732      1.10140621499779
  N   -1.48341893986566     -1.27727045585465      0.34151779676269
  H   -2.05780493091252     -1.56483988999975      1.11562222583883
  H   -0.92533738728801     -1.99816070347971     -0.08905659716140
  N   0.66322665656846      1.74973880096618     -0.15999781128767
  H   0.06634651549392      2.33512360244579      0.40601215954014
  H   1.63566611924656      1.86159535517905      0.09315667438917
  N   1.12815249024685     -0.46444134292853     -0.86982455720172
  O   0.75472404420954     -1.62303130603223     -1.10945513718188
  O   2.23134029495452     -0.01274705848319     -1.18927655498731
