12
Coordinates from ORCA-job run
  C   -0.47822979978147     -0.78658769308137      0.50651033431243
  C   0.33597045487170      0.09749636615742     -0.11436459435598
  H   -0.08400066196833     -1.73654038541511      0.84700287030277
  N   -1.77678367178534     -0.50342939053370      0.79880239261777
  H   -2.40214280813718     -1.27774594369716      0.93697292346213
  H   -2.15198560969789      0.29907560431643      0.31443069357674
  N   -0.13795973850526      1.34403444630268     -0.56601349401733
  H   0.13308450436142      1.49550173320882     -1.53039866709094
  H   0.26268319528148      2.10208592251873     -0.02470047729281
  N   1.73336496356878     -0.25939652487496     -0.32489152467533
  O   2.14778383672607     -1.34021399799646      0.09340463996958
  O   2.41921533506601      0.56571986309467     -0.93675509680902
