12
Coordinates from ORCA-job run
  C   -0.55816436072898     -0.74941735035878      0.41937472799975
  C   0.39713982725865      0.06291459886782     -0.08027451995713
  H   -0.32983253133309     -1.73264995112423      0.80588309425850
  N   -1.85540258162650     -0.25816797197250      0.57939595670218
  H   -2.53052377640716     -0.97492592626958      0.79584595508386
  H   -2.15880641913821      0.30064939269250     -0.21061480635448
  N   0.15586394688884      1.36171912466737     -0.49036933038034
  H   -0.34530292844757      1.90848605130040      0.19370391916384
  H   0.96162457436767      1.82389828775863     -0.87615261753060
  N   1.73842192509979     -0.45070520626214     -0.30253900044008
  O   1.96337892500966     -1.63535260059487     -0.06287771434216
  O   2.56060339905691      0.34255155129538     -0.77237566420334
