12
Coordinates from ORCA-job run
  C   -0.62693551408267     -0.84157200549073      0.05010134557734
  C   0.29312210647812      0.12143961032168     -0.18671141508415
  H   -0.55676470522011     -1.79292414707112     -0.46352998993189
  N   -1.70273834862012     -0.64173328913252      0.85917397191893
  H   -2.14132309999748     -1.45308581795105      1.25805964330302
  H   -1.63747278341471      0.17353756382499      1.45124008583613
  N   0.23171644505992      1.37208300596438      0.45721769939977
  H   1.12948264809984      1.60233321601555      0.86642079852109
  H   0.01100331287306      2.10940338716397     -0.20297595815176
  N   1.37576163075282     -0.15297702433995     -1.12295170303960
  O   1.41248818290174     -1.24017327357761     -1.69857507386721
  O   2.21066012516957      0.74566877427240     -1.26746940448167
