12
Coordinates from ORCA-job run
  C   -0.48803579834436     -0.77515424947473      0.51499061487183
  C   0.33723178827136      0.09301588847020     -0.11380572875166
  H   -0.10611437990807     -1.72778549568280      0.86191997290724
  N   -1.78181680822695     -0.47143538942338      0.80856476665477
  H   -2.41744937968011     -1.23645607808173      0.95188616504505
  H   -2.14689738732536      0.33179890017753      0.31762831067706
  N   -0.12043378032935      1.34159610258714     -0.57606960814908
  H   0.14906738458956      1.47971142673427     -1.54288629069907
  H   0.29268488219465      2.09930652000123     -0.04376846412833
  N   1.72842582456668     -0.28668383460717     -0.32718615102206
  O   2.12823171812275     -1.37048475994570      0.09748113648029
  O   2.42410593606920      0.52357096924513     -0.94775472388603
