12
Coordinates from ORCA-job run
  C   -0.86261125426837     -0.07917198083914      0.55482406279630
  C   0.21142136790228      0.42039583467401     -0.11691840921415
  H   -1.48637292585783      0.65762907414974      1.05499657860262
  N   -1.21670906892277     -1.38068790451053      0.77429193212028
  H   -2.17379177322762     -1.53611006262302      1.03962273656775
  H   -0.80398355995838     -2.05801257116567      0.15276277294335
  N   0.49800498717974      1.79729655345664     -0.20936387683629
  H   1.38820153682523      1.92801410976863     -0.67049131964025
  H   0.51313169592423      2.23296047474072      0.70155956431844
  N   1.07662472599154     -0.43263149993275     -0.88117259851522
  O   2.02786193452111      0.09603332271189     -1.47027868304105
  O   0.82822233389083     -1.64771535043052     -0.92983276010176
