12
Coordinates from ORCA-job run
  C   -0.81667907735368     -0.07037587238876      0.56073885670216
  C   0.30178802818230      0.39134178170398     -0.06261624597243
  H   -1.46118650807551      0.68394258400724      1.00648181170691
  N   -1.19535700267980     -1.36305373950682      0.81307627284774
  H   -0.70851545408092     -2.06825291776087      0.28195500332672
  H   -2.18149403114961     -1.50894225083450      0.94673897802197
  N   0.76479321267764      1.71595068697953     -0.02614782198675
  H   0.99395408675379      2.06380670823299     -0.94747754069721
  H   0.11284157454319      2.32645132309271      0.44472444507035
  N   1.17111471206411     -0.49041825744804     -0.79476389759462
  O   0.99696271676817     -1.71552091441699     -0.70405135338571
  O   2.02177774235032      0.03607086833953     -1.51765850803913
