12
Coordinates from ORCA-job run
  C   -0.63539717328635     -0.83687023973315      0.00210745689002
  C   0.34313696667153      0.09205554224941     -0.09613279724547
  H   -0.43170713602001     -1.86638757170755     -0.26681863395640
  N   -1.91157539166315     -0.51948376965122      0.35360233319695
  H   -2.48275055031797     -1.25215939199153      0.73698624165157
  H   -2.01713696205536      0.39555794107770      0.76742994390440
  N   0.11332388768242      1.44129074062670      0.23445979589140
  H   0.13831120058157      2.02612820143493     -0.59354023599744
  H   0.83744974482421      1.77988521412308      0.85681075643683
  N   1.66421399542249     -0.32171247865486     -0.55157862502397
  O   1.85395160602726     -1.49864422812289     -0.85740485129031
  O   2.52817981213336      0.56034004034938     -0.58692138445759
