12
Coordinates from ORCA-job run
  C   -0.56527060812942     -0.79196223821720      0.15857782304620
  C   0.40096191157962      0.10675175644965     -0.11983961655526
  H   -0.39324330979101     -1.84959332602770      0.00675957688994
  N   -1.80528416764006     -0.31384632032575      0.62503426202376
  H   -2.50829768073336     -1.03864907408130      0.63683149138747
  H   -1.75128618815408      0.12874447995748      1.53487534722837
  N   0.30544321779219      1.47835478424027      0.06461926119069
  H   -0.65773100820530      1.77295080549194     -0.05897338020403
  H   0.93920648617795      1.98761765739966     -0.53724025381359
  N   1.68661562721567     -0.37510096708173     -0.61351610945921
  O   2.42566457120583      0.47606259437110     -1.12163712614292
  O   1.92522114868196     -1.57933015217644     -0.57749127559143
