12
Coordinates from ORCA-job run
  C   -1.01642519777227     -0.05326897548230      0.29146530424636
  C   0.22101274475662      0.42161316056242     -0.02615080239528
  H   -1.74891963451387      0.71768687906714      0.50810339344633
  N   -1.43992502847148     -1.32881753648242      0.42933207664923
  H   -2.42880850356292     -1.49858738210803      0.45665073204456
  H   -0.82947360976749     -2.06115735559086      0.10462588402485
  N   0.46698678236819      1.80802479544996     -0.04931036525917
  H   1.19024153422174      2.05332118394844      0.61663440785109
  H   0.80113121320626      2.09478797825637     -0.96175479062902
  N   1.30342026704183     -0.47820871700543     -0.36400660918489
  O   1.09441214403574     -1.70152550993434     -0.33812486555782
  O   2.38734728845765      0.02613147931906     -0.66846436523625
