12
Coordinates from ORCA-job run
  C   -0.86567783357839     -0.13657628339531      0.59314694908016
  C   0.20648373706104      0.42930331974999     -0.03023294596325
  H   -1.47547336577178      0.56343459195055      1.15530855148462
  N   -1.23866076480681     -1.43251299037564      0.65717244740751
  H   -2.15788566033327     -1.64919367463977      0.99636688910954
  H   -0.77446780380899     -2.08674837079741      0.04841912648246
  N   0.44813784316838      1.81195012070717      0.08426005519427
  H   0.47025277732869      2.24587382684044     -0.83098128002738
  H   1.35156990558764      1.98253562017139      0.51024476778629
  N   1.10400588671395     -0.36487280270616     -0.84108769455244
  O   0.89678285022837     -1.58466495612171     -0.94328725562026
  O   2.03493242821117      0.22147159861648     -1.39932961038152
