12
Coordinates from ORCA-job run
  C   -0.43530598556158     -0.68860102694677      0.54882293118707
  C   0.43292153194256      0.10671840253738     -0.11113769237257
  H   -0.08899903600455     -1.63742906048629      0.93754275947500
  N   -1.72845287267865     -0.29398209644024      0.87358590621045
  H   -2.32634543048347     -1.05579483962153      1.15033007485035
  H   -2.17202581895615      0.28613359829240      0.17489771730197
  N   0.25207125029638      1.43934966520022     -0.45541963351114
  H   -0.53319610006569      1.87801803909760     -0.00315845319571
  H   0.35113392063797      1.66700717334290     -1.43202673556722
  N   1.74674766443566     -0.42893502873706     -0.45284826765763
  O   2.10397926312834     -1.49906333410016      0.03673832799919
  O   2.39747161330917      0.22757850786156     -1.26832693471976
