12
Coordinates from ORCA-job run
  C   -0.91671729465416     -0.10158952794623      0.50721008797458
  C   0.17290571891808      0.43119030596161     -0.11316884405372
  H   -1.63656875726410      0.63216353704379      0.85681213467626
  N   -1.18319991969400     -1.39138603071973      0.82554559215954
  H   -0.62457170612913     -2.09665583693994      0.37164172595780
  H   -2.13232262980929     -1.62186085269061      1.05994500202066
  N   0.33294355528260      1.82640575967047     -0.20432772784458
  H   0.94518816045341      2.17619648756736      0.52317445712576
  H   0.74806055866669      2.07257100164835     -1.09363177485710
  N   1.16835192515764     -0.41671614551217     -0.73503792126708
  O   2.07404566649006      0.13639090559908     -1.36494163882424
  O   1.05288472258220     -1.64770960368198     -0.63222109306788
