12
Coordinates from ORCA-job run
  C   -0.90186525486850     -0.10065715930461      0.51018172350529
  C   0.25303132135795      0.41050497100252      0.00025023003732
  H   -1.46226978246200      0.58079156505130      1.14451902206733
  N   -1.39736948818293     -1.36626348949998      0.42633449141287
  H   -2.37494570366119     -1.47618236175139      0.63273126274798
  H   -1.01709799953968     -1.94231535586134     -0.30813393590021
  N   0.69247486763363      1.71180400429538      0.31389910488117
  H   1.02957165920475      1.77137527975754      1.26487012975768
  H   1.43422316172475      1.97880766927751     -0.31918102056756
  N   1.03940543268671     -0.32827555415037     -0.95420362963888
  O   2.03869160832606      0.22573352185922     -1.42684249682520
  O   0.66615017778045     -1.46532309067580     -1.28342488147779
