16
Coordinates from ORCA-job run
  C   -0.71311567217684      0.23307580887257      0.21429177926797
  C   0.73337078538803     -0.14777738362454     -0.15715280510138
  F   -0.83551618299613      1.57663709060063      0.22209517843954
  H   0.88922602566116     -1.19884317279305      0.08388781539759
  N   -1.78569201384074     -0.32517150916573     -0.51708825948142
  H   -1.76187952560116     -1.33576983511708     -0.50735577631670
  H   -1.79583112693043      0.03406023639910     -1.46288125187228
  N   -0.87003671594759     -0.24924594462649      1.66037952860872
  O   -0.90884243733286     -1.46966257851570      1.78848252206086
  O   -0.92124738289654      0.59022577242655      2.54516810453556
  N   1.73229973116677      0.67815579018463      0.41454145823414
  H   1.40064702230565      1.59802911683488      0.66224411847093
  H   2.23813921171572      0.24046807537719      1.16666922949764
  N   0.83604619282497     -0.09233223794222     -1.66965550541510
  O   1.26125355603801     -1.09467397799366     -2.23714172557457
  O   0.50117853262198      0.96082474908294     -2.20548441075150
