16
Coordinates from ORCA-job run
  C   -0.78633236920414     -0.09466581924854      0.00983620547482
  C   0.51088451538209      0.33402299961267     -0.67756616478593
  F   -1.79343194347400      0.05423392254012     -0.90657630981587
  H   0.35406099378786      1.30887828739626     -1.13499371198292
  N   -0.78592079269541     -1.41307417557229      0.46617653317407
  H   -0.06209280326774     -1.53870126799585      1.16279083457140
  H   -1.69042861436211     -1.65728881263166      0.85029756877071
  N   -1.15984549238751      0.95183997254839      1.09282355862157
  O   -1.83870376240702      0.54881576737793      2.02944544228704
  O   -0.79817044594591      2.10645530521582      0.88959845823854
  N   0.98150505409295     -0.64182309110314     -1.59294375373532
  H   0.51481192923212     -1.53018662569072     -1.47711924566269
  H   0.96382949480529     -0.32627059378156     -2.54846658559048
  N   1.58828903850683      0.58504447309996      0.36675783874389
  O   2.45570135976151      1.39121523727708      0.06594817392948
  O   1.54584383817520     -0.07949557904447      1.40399115776168
