16
Coordinates from ORCA-job run
  C   -0.62585180082758      0.11930580112851      0.27093313227474
  C   0.79408239478081     -0.20498432816141     -0.22465029078238
  F   -0.70504819131287      1.46721333685316      0.59368191125847
  H   0.98314232745970     -1.26438537557259     -0.07164246082552
  N   -1.63954347309677     -0.33572080510898     -0.56950463859011
  H   -1.62779044846857      0.15458901815441     -1.45440317369213
  H   -2.54418445682991     -0.24398456884454     -0.12333724693571
  N   -0.84036032565763     -0.56143219783506      1.62820863459276
  O   0.13438971553363     -1.04377297982003      2.19619207013415
  O   -1.98530039243287     -0.52191165682009      2.06108191899375
  N   1.85231125837735      0.58002648523644      0.31401169942929
  H   1.56078835086472      1.53843453420259      0.45077614492984
  H   2.17314428929335      0.18724113211794      1.18682814505640
  N   0.80972324229611     -0.01437076898882     -1.72142830811035
  O   0.42458338333479      1.08136980246076     -2.13014431050239
  O   1.23591412668574     -0.93561742900229     -2.40660322723080
