16
Coordinates from ORCA-job run
  C   -0.91533183588625     -0.03139173862173      0.06238879553825
  C   0.40278019719817      0.37782193036863     -0.62425632993804
  F   -1.87313404832022      0.20014075830704     -0.88345870219214
  H   0.31641924119138      1.42182592525551     -0.92895908675003
  N   -1.04352877833834     -1.33850136948828      0.54493709306862
  H   -0.77752535430890     -2.03001562269841     -0.14015048599451
  H   -0.62684929580021     -1.47836871613650      1.45212191350434
  N   -1.24092219177681      0.95692735960677      1.18703126508805
  O   -1.56179520089217      0.51842134113264      2.28034767036254
  O   -1.18746784168129      2.13450247958227      0.85076576830530
  N   0.64638367819163     -0.46325635846245     -1.74106291257819
  H   1.13813877963840     -1.30648774954742     -1.47687259667632
  H   1.19081060187901      0.00915579491031     -2.44712760657409
  N   1.55924960439453      0.34661393638702      0.38156909263433
  O   1.28789288422090      0.45879351831392      1.57418441963295
  O   2.68387956029019      0.22381851109070     -0.09045829743106
