16
Coordinates from ORCA-job run
  C   -0.68343520046211      0.17776818688318      0.11431557364546
  C   0.78490659162967     -0.13202789272735     -0.20902379728322
  F   -0.87675859098119      1.51533557350058      0.18823515442557
  H   0.95792784159508     -1.20139653672236     -0.10244141650076
  N   -1.59641639688768     -0.38072919681250     -0.77971364974665
  H   -1.43148776715042     -1.35936887018488     -0.96426712943771
  H   -2.55800912016849     -0.20097699457419     -0.52375535374377
  N   -0.86065743713070     -0.33572247652898      1.57538500855453
  O   -1.09611382589978      0.46835149191457      2.46587431052570
  O   -0.74589964510895     -1.55360206336248      1.69150166877167
  N   1.72389524525259      0.61478664256647      0.54487450069412
  H   1.41797315296583      1.55935697687927      0.72906067941451
  H   2.00959843920086      0.14496430063712      1.38987069841005
  N   0.95526243236177      0.15925574336509     -1.68319956812664
  O   0.83726494464487     -0.79911538528257     -2.44281980172155
  O   1.16394933613866      1.32412050044902     -1.99389687788131
