16
Coordinates from ORCA-job run
  C   -0.79184024004590     -0.02984108734727     -0.02617315032783
  C   0.55134777451783      0.53426669381699     -0.49263708544377
  F   -1.76017865623974      0.54620573590386     -0.80505917963511
  H   0.47698027649763      1.61924947432238     -0.52893896203213
  N   -0.89833856516081     -1.41704138528444     -0.12927351068310
  H   -0.20545458543316     -1.86248380762455      0.45931176819090
  H   -1.82862837196954     -1.72417534122314      0.12624948366182
  N   -1.11626868705849      0.52912543277966      1.38403683883119
  O   -0.68094177877702      1.64632971081129      1.64419999726881
  O   -1.83093744806303     -0.16493450081455      2.09670820166670
  N   0.97701771226870     -0.03458348067965     -1.71949390117110
  H   0.45215755140215     -0.86357187773443     -1.95954667397441
  H   1.00461655489896      0.62991055865186     -2.47476195974648
  N   1.61319352883409      0.27143636825797      0.56450213601060
  O   2.53727905056818      1.06938013596040      0.61365207898673
  O   1.50099588376015     -0.74927262979637      1.24622391839718
