16
Coordinates from ORCA-job run
  C   -0.71456635272171      0.18731514642834      0.14470072306883
  C   0.75146576771320     -0.16824922852229     -0.09668181245569
  F   -0.86961104349287      1.53234719352122      0.15534924541451
  H   0.89829309446302     -1.23636961882483      0.05667451596752
  N   -1.59598770155814     -0.37435262603061     -0.78465897947420
  H   -2.56079366835736     -0.15335419709706     -0.57542948007346
  H   -1.46144541222760     -1.36830183267073     -0.90333010013576
  N   -0.99705813111907     -0.27478611255223      1.60094878665616
  O   -1.35562956504546      0.55211512591732      2.42344948138746
  O   -0.86891126742919     -1.48399306954122      1.76939622302474
  N   1.56077256393733      0.60036190321615      0.76473284136310
  H   1.48261703910857      1.58737270262591      0.55721483111434
  H   2.52917421420434      0.31525981692941      0.73278063289418
  N   1.00860790303719      0.04577373438282     -1.59013504329861
  O   1.35526693770713      1.16927111812780     -1.93805334915489
  O   0.83880562178063     -0.92941005590999     -2.31595851629824
