16
Coordinates from ORCA-job run
  C   -0.73623777672001      0.18355623527539      0.10061290736983
  C   0.74213271018034     -0.18211497404253     -0.19317191218069
  F   -0.85073772593624      1.52347787081074     -0.07211668645248
  H   0.84824921586021     -1.26569498093939     -0.15066334220723
  N   -1.79156181254417     -0.47644728654189     -0.56179502580879
  H   -1.84680719446271     -1.44012504332522     -0.25784624795068
  H   -1.65123832098700     -0.45051708857159     -1.56464749598552
  N   -0.90094207690670     -0.11258720710411      1.58831161062355
  O   -0.87400852596715     -1.30770061672392      1.87338168054018
  O   -0.99884509365087      0.82834309138953      2.35842734794447
  N   1.71033130385941      0.45720916748280      0.61665653494226
  H   1.49165256458611      1.42314366724649      0.81415786585420
  H   1.91422026698534     -0.05843083989163      1.45888208600353
  N   0.95222399506214      0.19964573336620     -1.64756128385872
  O   1.53781885869892      1.24471832795074     -1.88708174510465
  O   0.45374961194239     -0.56647605638161     -2.47454629372926
