16
Coordinates from ORCA-job run
  C   -0.83127900292187     -0.10186723970826     -0.13002919401974
  C   0.62387512228198     -0.07594431673155     -0.60245285123686
  F   -1.60369601615306      0.31189708471879     -1.16036894616900
  H   0.58767614606525     -0.51906512641414     -1.60525463983151
  N   -1.17650147422408     -1.44025890551188      0.21361709010051
  H   -0.94896716985611     -1.60233748062220      1.18860523367747
  H   -2.17304342797291     -1.56957636671405      0.07848607270863
  N   -1.13181794719386      0.84628013854894      1.04952231090306
  O   -1.84006351957554      1.81700210498987      0.84174672858312
  O   -0.65646648416652      0.48328686610915      2.11947944389078
  N   1.51826168454575     -0.71040637561469      0.32745076857714
  H   2.45880866502517     -0.68250982015229     -0.05133880988902
  H   1.25292343995896     -1.68526895236084      0.40668660301430
  N   1.15359256756037      1.31276567924363     -0.83602603255797
  O   0.79531601122344      2.21483382766817     -0.08877376814766
  O   1.97038140540303      1.40316888255136     -1.75035000960324
