16
Coordinates from ORCA-job run
  C   -0.87490640352523     -0.13425698003647     -0.27579415733401
  C   0.62810964886938     -0.21097253814631     -0.56498330163858
  F   -1.56087556793880      0.29623091959478     -1.36057431623178
  H   0.70975931923398     -0.67975148363581     -1.54914807662276
  N   -1.35014403383715     -1.39272596914691      0.10561208130932
  H   -0.72175359510327     -1.86436949821020      0.73988231924230
  H   -2.31158578378464     -1.37040330992934      0.41764193171430
  N   -1.14233007721783      0.92730926281336      0.81565497955883
  O   -2.25348492314172      1.43237180886721      0.84499464326987
  O   -0.24079508985858      1.08756936453459      1.63735377304349
  N   1.33149027552838     -0.97389208965902      0.40196114545294
  H   1.44723190949720     -0.43495732952805      1.25099930967281
  H   2.23887073583387     -1.25064900618423      0.05533172455346
  N   1.21382105300236      1.19415120034716     -0.77424180800134
  O   2.42802777885933      1.28131143601019     -0.62971261364691
  O   0.45556475358273      2.09303421230905     -1.11497763434194
