16
Coordinates from ORCA-job run
  C   -0.56936292177564     -0.53669268127857      0.12974712006555
  C   0.66013487140377     -0.03402283923074     -0.62856967001376
  F   -0.86257788156680     -1.78100338441796     -0.36214624287977
  H   0.48094601841105     -0.15266894415593     -1.69529413588829
  N   -0.39403888264146     -0.62900854144892      1.51059384789492
  H   -1.21381080187396     -1.03051746796132      1.94867592622226
  H   -0.20086972869116      0.28645492480358      1.89741829516036
  N   -1.80686470734565      0.29587198178839     -0.29943666282574
  O   -1.80382369428536      0.72962150449358     -1.44709488015434
  O   -2.70878057025533      0.39923713479497      0.52285036319953
  N   1.85481463416300     -0.65990726097927     -0.19077586149742
  H   1.72900138205150     -1.15715644944979      0.67945354491662
  H   2.28163715151156     -1.23444346305903     -0.89829371222479
  N   0.79821879476213      1.46960729661198     -0.44249058869241
  O   1.35148993741663      2.07788267276751     -1.34647134238895
  O   0.40288639871571      1.95374551672150      0.61983399910621
