16
Coordinates from ORCA-job run
  C   -0.67776979657815      0.04660742707296      0.29857001127697
  C   0.78986490459895     -0.09939757823537     -0.09642407947003
  F   -0.98417717825766      1.38456383865493      0.42064426887192
  H   1.13592862690508     -1.09372751239631      0.17102915766431
  N   -1.56224191392670     -0.66829879874796     -0.51897480041023
  H   -2.49918722426579     -0.62983985361206     -0.13409257524835
  H   -1.56691530368086     -0.29142462045764     -1.45865480503181
  N   -0.86816096134558     -0.52248089590438      1.71110871808913
  O   -0.00504877313362     -1.25614370101544      2.17231995890782
  O   -1.92624994456693     -0.20814829991099      2.24276303715680
  N   1.56792406158819      0.90193357876349      0.52591424724822
  H   1.30135776484587      1.83030507956631      0.22832314029055
  H   2.55944045087321      0.74881614213560      0.41068601343986
  N   0.87477292029946     -0.06904699610293     -1.62154314940132
  O   1.51081485812025     -0.96732711168872     -2.16545922472604
  O   0.35064750852429      0.89260930187852     -2.18620991865781
