16
Coordinates from ORCA-job run
  C   -0.82103765444409     -0.15783450900849     -0.10553150191544
  C   0.64715840936735     -0.06749657063694     -0.53676418500645
  F   -1.66266241057173      0.40401635659326     -1.02960007767740
  H   0.75376296513334     -0.68441081505263     -1.44098096122023
  N   -1.11906971508862     -1.50230839734002      0.18508603191561
  H   -1.87042588669236     -1.57071589289582      0.86031721853226
  H   -1.35522639740148     -1.99536497794937     -0.66697618580234
  N   -1.00917430803715      0.68273769427794      1.15514617369306
  O   -0.64362636096752      1.84431715038344      1.05166966277910
  O   -1.54781840177620      0.16157475660428      2.12382388985926
  N   1.43179788336736     -0.43045510637877      0.60331982259326
  H   2.40018302978324     -0.16994406085320      0.48315136386363
  H   1.33774008497527     -1.42032537540785      0.78208276244747
  N   1.04646721106992      1.31045232858878     -1.01918874543352
  O   0.47638132503047      1.69797756038180     -2.03141848043474
  O   1.93455022625222      1.89677985869359     -0.41313678819353
