16
Coordinates from ORCA-job run
  C   -0.83291941773671      0.05190760956677      0.01541104881540
  C   0.54770665283347      0.50298246809056     -0.46726158428125
  F   -1.75345657361747      0.60649419051991     -0.85335507990542
  H   0.58232594746199      1.59244193188708     -0.45037625131994
  N   -0.90103698813735     -1.33724093242085      0.12859585213927
  H   -1.68793334032445     -1.63513689004133      0.68973762906460
  H   -0.92667747919983     -1.75622141012875     -0.79208735232064
  N   -1.19600508900847      0.70566556420095      1.34771407163456
  O   -1.63524344511945     -0.01161956466841      2.23828964626614
  O   -1.08174971162322      1.92265566025152      1.37271473758001
  N   0.79958337613297     -0.03484086197897     -1.75648102599016
  H   1.27141995340779     -0.92714918995309     -1.67046312501808
  H   1.38483628748816      0.58057483553534     -2.30242800611824
  N   1.56714749303663      0.02778344828174      0.57822011719016
  O   1.44399995703218      0.48921684709512      1.70636468276501
  O   2.41700237737376     -0.77651370623759      0.21440463949857
