16
Coordinates from ORCA-job run
  C   -0.65656179678985     -0.51131794307412      0.19461411380682
  C   0.53771232377444     -0.18910693259050     -0.70110212362498
  F   -1.14905711601352     -1.72252069639475     -0.18469403168497
  H   0.23501919036589     -0.25357380464556     -1.74468798025468
  N   -0.34906744118217     -0.55135123929000      1.55936095872192
  H   -1.11717655728234     -0.96042419188622      2.07673537035171
  H   -0.16280679749818      0.38207020896189      1.90237778711970
  N   -1.82198042108320      0.45599010460246     -0.15989840067153
  O   -1.87914781404986      0.85002917332845     -1.31978737850765
  O   -2.62493515154471      0.68938058470828      0.73449624979645
  N   1.59503367048164     -1.08083467484356     -0.42396531876121
  H   1.85897764010715     -1.07514210400097      0.55148020522728
  H   2.38474347573014     -0.94336381743856     -1.03822605424329
  N   0.93172078576617      1.28455180328368     -0.52705632692110
  O   0.47840255729527      1.91894032853266      0.42715989954261
  O   1.73912345192313      1.70567320074680     -1.34680696989708
