15
Coordinates from ORCA-job run
  C   -0.36730424558714     -0.25082240711128     -0.17041478765961
  C   0.76883816892256      0.72094611525405      0.12324171858595
  Cl  0.23095962796402     -1.31162994362056     -1.57319813227664
  H   0.52329625954657      1.29132538646514      1.02217812416405
  H   0.94448869336025      1.37824545158136     -0.72464745770834
  C   -1.56185180665352      0.52003818443305     -0.70485886180049
  H   -1.30519849891288      1.06687828457490     -1.61208540916018
  H   -1.91364615095404      1.21395762053303      0.06203185264903
  H   -2.37040708101033     -0.17349982406821     -0.94407683069889
  N   -0.73482674072473     -0.99225593489605      0.97478276620866
  H   0.05360924687182     -1.48254885065807      1.37638830338965
  H   -1.48141899960665     -1.64233200371973      0.76636342893577
  N   2.07474731640684      0.05059835107497      0.39379016766593
  O   2.09029760998055     -0.82878524893761      1.25392192427524
  O   3.04741660039670      0.44088481909502     -0.24241680657013
