15
Coordinates from ORCA-job run
  C   -0.37046036924479     -0.40058613204036      0.05001350360737
  C   0.94189493041781      0.15759767121725      0.59780578467182
  Cl  0.07147355247437     -1.77424492183501     -1.09448068085438
  H   1.46402070733569     -0.60194412255126      1.17757962811119
  H   0.71869367628121      1.03225771088821      1.20957886560038
  C   -1.20137540821055      0.59183624468590     -0.73838093208633
  H   -1.44389479804150      1.44368902270246     -0.09947932892021
  H   -2.12808036993301      0.11024859876996     -1.05826044228246
  H   -0.67224164380382      0.94510485063469     -1.61911468998922
  N   -1.10309468536216     -0.85684665851304      1.18392216802159
  H   -2.03125462095519     -1.15954047773179      0.91540588986405
  H   -0.63498519972839     -1.62827665718974      1.64448369842494
  N   1.89116614566996      0.59822777197046     -0.46013442053940
  O   2.91257145122791     -0.06507860648788     -0.61695020945031
  O   1.58556663187245      1.60855570548013     -1.09198883417902
