12

C	-0.405437	-0.016062	-1.454967
C	0.0	0.0	0.0
Br	-2.38599	-0.052099	-1.642113
H	1.094722	0.0	0.0
H	-0.128102	0.923516	-1.935296
H	-0.370574	0.885137	0.51952
H	-0.356931	-0.895259	0.515025
C	0.192388	-1.188057	-2.20681
H	1.280292	-1.132954	-2.094911
H	-0.15116	-2.133427	-1.78007
H	-0.069303	-1.167146	-3.26669
Br	3.73323	0.0	0.0
