14

C	-0.523276	-0.004875	-1.444589
C	0.0	0.0	0.0
Cl	0.072697	1.413484	-2.356715
H	1.095689	0.0	0.0
H	-1.614879	0.079822	-1.437799
C	-0.177591	-1.224532	-2.173404
N	0.029614	-2.209756	-2.778076
C	-0.498415	-1.209861	0.651248
N	-0.9434	-2.151259	1.196371
C	-0.466968	1.23476	0.774116
H	-1.558181	1.326272	0.776869
H	-0.116028	1.160915	1.804435
H	-0.026379	2.129702	0.335625
Cl	3.282312	0.0	0.0
