14

C	-0.413548	0.042364	-1.474547
C	0.0	0.0	0.0
Cl	0.047255	-1.449388	-2.337218
H	1.09553	0.0	0.0
H	0.146975	0.854491	-1.944395
C	-1.846786	0.278694	-1.652747
N	-2.994991	0.495355	-1.774885
C	-0.535158	-1.180423	0.667242
N	-0.985049	-2.09995	1.243502
C	-0.439563	1.279027	0.71968
H	-1.527011	1.374422	0.774589
H	-0.023469	2.146862	0.201515
H	-0.028864	1.273376	1.730403
Cl	3.275169	0.0	0.0
