14

C	-0.523299	-0.005496	-1.444596
C	0.0	0.0	0.0
Cl	0.072053	1.412887	-2.357139
H	1.095709	0.0	0.0
H	-1.614946	0.078671	-1.437806
C	-0.176992	-1.225183	-2.173108
N	0.030952	-2.210441	-2.777513
C	-0.498799	-1.209628	0.651393
N	-0.946848	-2.151085	1.193928
C	-0.466927	1.235045	0.773707
H	-1.55809	1.326862	0.77604
H	-0.025906	2.129755	0.335231
H	-0.116419	1.161291	1.804159
Cl	3.282512	0.0	0.0
