14

C	0.0	0.0	0.0
C	-0.471167	0.081384	-1.45728
F	1.364258	0.0	0.0
H	0.134061	0.881283	-1.892184
H	-0.142854	-0.860864	-1.909868
N	-0.384779	1.256494	0.776817
O	-0.63117	1.132527	1.970718
O	-0.32067	2.305984	0.145969
C	-0.474216	-1.181735	0.723105
N	-0.759065	-2.204339	1.225785
N	-1.852594	0.312557	-1.7273
H	-2.498963	-0.351439	-1.307782
H	-2.16157	1.216386	-1.397861
Br	-4.652005	0.0	0.0
