14

C	0.0	0.0	0.0
C	-0.238769	-0.070658	-1.600302
F	1.363851	0.0	0.0
H	0.287333	-1.019647	-1.832123
H	0.386511	0.763614	-1.935156
N	-0.345766	1.332681	0.638735
O	-0.144017	2.314932	-0.071104
O	-0.672095	1.363268	1.8016
C	-0.393613	-1.129579	0.818837
N	-0.646948	-2.111632	1.437182
N	-1.431897	-0.060814	-2.404497
H	-2.061846	-0.768008	-2.083276
H	-1.965116	0.793385	-2.196693
Br	-3.29952	0.0	0.0
