18

C	-0.353649	0.037364	-1.494746
C	0.0	0.0	0.0
F	-0.072918	-1.26326	-1.997946
H	1.097674	0.0	0.0
C	-1.815689	0.27289	-1.810902
H	-2.430756	-0.482474	-1.316966
H	-1.967473	0.184932	-2.890282
H	-2.126728	1.267479	-1.491572
N	0.483006	1.00834	-2.104694
H	0.392811	0.962494	-3.112826
H	1.453905	0.835307	-1.843901
C	-0.532827	-1.20068	0.630812
N	-1.019328	-2.116113	1.183216
C	-0.459609	1.250168	0.754592
H	-0.111452	2.133053	0.217711
H	-0.014168	1.254346	1.751165
H	-1.547287	1.290578	0.859055
Cl	3.374684	0.0	0.0
