18

C	-0.426592	0.105063	-1.471887
C	0.0	0.0	0.0
F	-1.807992	0.499216	-1.49472
H	1.095286	0.0	0.0
C	0.350341	1.185805	-2.192533
H	1.418707	1.008062	-2.059972
H	0.090273	2.168165	-1.798096
H	0.097105	1.171436	-3.256435
N	-0.265415	-1.138608	-2.133178
H	-0.799463	-1.868074	-1.679984
H	-0.550088	-1.062124	-3.100243
C	-0.506367	-1.239675	0.582851
N	-0.970507	-2.222299	1.029421
C	-0.46162	1.190102	0.847048
H	-0.093835	1.068952	1.867478
H	-1.548877	1.274401	0.859655
H	-0.032886	2.112706	0.453902
Cl	3.3941	0.0	0.0
