14
Coordinates from ORCA-job run
  C   -0.56688201361361     -0.01900510917409     -0.49886870365533
  C   0.62070755720944      0.42738973147193     -0.00547968874789
  C   -1.43724483183091     -1.07395162451986      0.12734495738196
  H   -1.82754147240081     -1.73839300575503     -0.64630950464259
  H   -2.29526041376638     -0.61011256688920      0.62326366996532
  H   -0.89516291383590     -1.67615277490698      0.85410704042129
  C   -1.08371570102640      0.57009744488647     -1.69964178977939
  N   -1.55428103724119      1.01994707937246     -2.68113681678866
  C   1.29116310884805     -0.06044627949919      1.24870846823674
  H   2.17120522178034     -0.65978540360212      0.99716283245823
  H   0.62391783891921     -0.65707483601835      1.86759509257430
  H   1.63634073307530      0.79186242790898      1.83827613456266
  C   1.34109550511125      1.43132804485796     -0.73312217452288
  N   1.97465841877158      2.25329687186700     -1.28989951746377
