14
Coordinates from ORCA-job run
  C   0.57544681086365      0.48611579156401      0.03007750235809
  C   -0.47519280786938     -0.14068978704646     -0.56736302844522
  C   1.06545918667741      0.24713527337186      1.43159909353330
  H   2.15183087686013      0.13352241997341      1.42945457404319
  H   0.62882715197884     -0.64530006703929      1.87501015739492
  H   0.82937245782920      1.10750775061661      2.06454194648240
  C   1.28678155169024      1.49416118155497     -0.70108917476242
  N   1.90175657510095      2.33183674938617     -1.25545166350843
  C   -1.33930374315518     -1.20255837087090      0.05390321109856
  H   -2.39132765263672     -0.98281505112651     -0.14048947914942
  H   -1.19825586942405     -1.27071668173042      1.13082666251891
  H   -1.12043898697423     -2.17692793984738     -0.39299066703048
  C   -0.80004010252866      0.19340817040460     -1.92382294289126
  N   -1.11591544841220      0.42632056078934     -3.03420619164213
