14
Coordinates from ORCA-job run
  C   -0.56502807394133     -0.01186646465355     -0.50864062960056
  C   0.65601731405864      0.36914778579226     -0.04313792989552
  C   -1.51947047858235     -0.92973790238398      0.20713780624966
  H   -2.06458597331448     -1.53772503590313     -0.51689670197730
  H   -2.25636126922072     -0.34865729810263      0.77025169190306
  H   -1.00264748561499     -1.59828037671967      0.89403211500524
  C   -1.02690727161776      0.51831874664523     -1.75760122941516
  N   -1.45530670739409      0.93820696502523     -2.77126507117195
  C   1.26768181339385     -0.06822795191443      1.25901159901275
  H   0.54109249041851     -0.54645725505114      1.91304025418979
  H   2.09135309787868     -0.76426212438665      1.07435082674596
  H   1.68371818902215      0.79641387373618      1.78091230566318
  C   1.46918483623786      1.23757348350898     -0.84273349864579
  N   2.18025951867605      1.94555355440731     -1.45946153806337
