14
Coordinates from ORCA-job run
  C   0.46312366869522      0.41864975995566      0.26986106220408
  C   -0.46356769537723     -0.41975200708761     -0.26843825389595
  C   1.94631426819194      0.17811794810141      0.29161882475055
  H   2.19984388592258     -0.77021275087561     -0.18264704331698
  H   2.46534851938119      0.98573141862237     -0.23148258181164
  H   2.31061382483193      0.16737207598144      1.32225694972771
  C   0.01414089895968      1.63989852756875      0.87109308959150
  N   -0.32009474596726      2.65155748203684      1.37284912203598
  C   -1.94638375526019     -0.17834533056360     -0.29169595534542
  H   -2.19957198018555      0.76903350452673      0.18448064696787
  H   -2.30861190850850     -0.16443003605806     -1.32305400439299
  H   -2.46719433155183     -0.98663390690542      0.22829413294114
  C   -0.01401765810762     -1.64048476584061     -0.87036291778840
  N   0.32105700897565     -2.65150191946228     -1.37277307166745
