14
Coordinates from ORCA-job run
  C   -0.44585894104027     -0.40845928307888     -0.31157131159809
  C   0.44585098172609      0.41070525005286      0.30908412671049
  C   -1.94106061297746     -0.31463842149437     -0.19537061114642
  H   -2.38616535854024     -0.16738413642877     -1.18282519673374
  H   -2.34537514238541     -1.24509692407956      0.21184304857869
  H   -2.23583682494792      0.51152994672090      0.45185230059292
  C   0.05693093021022     -1.45725172984386     -1.14916851807792
  N   0.43739489389600     -2.32968327032917     -1.84274676468040
  C   1.94107321971004      0.31593435348776      0.19395446911197
  H   2.38404126767182      0.14829153317843      1.17927802502893
  H   2.34845316034721      1.25305407291135     -0.19439483949032
  H   2.23495557604512     -0.49865488370860     -0.46823478683142
  C   -0.05709078068257      1.45717179317712      1.14976981247325
  N   -0.43731236903262      2.32548169943479      1.84853024606208
