14
Coordinates from ORCA-job run
  C   0.57380740444562      0.48561479009605      0.02525262691177
  C   -0.47674982546377     -0.14880182710758     -0.56399059176621
  C   1.06588958973693      0.26771022595451      1.42911373163149
  H   0.85501009322706      1.14876575402987      2.04211185704406
  H   2.14967279718233      0.12937653954520      1.42171902558186
  H   0.61168307103139     -0.60298618334981      1.89732535612751
  C   1.28818208888888      1.48086414558590     -0.72069356770100
  N   1.90826933043976      2.30720497508158     -1.28607990288385
  C   -1.34264561299196     -1.20221310215476      0.06897137106368
  H   -1.14310328003384     -2.17660565604399     -0.38658028268941
  H   -1.18418429412861     -1.27780581347487      1.14279547377056
  H   -2.39532677985375     -0.97026809023908     -0.10789149854375
  C   -0.80096044797246      0.16862715975521     -1.92467141460572
  N   -1.10954413450758      0.39051708232178     -3.03938218394100
