14
Coordinates from ORCA-job run
  C   -0.44065026116729     -0.35895505082034     -0.37403698889765
  C   0.44044420413976      0.35941255446861      0.37381386365321
  C   -1.93433911335042     -0.34435274316771     -0.21188311485999
  H   -2.23723212945098      0.32337879010771      0.59490357524329
  H   -2.41029664986962     -0.01710465325753     -1.14002018049734
  H   -2.29828659627365     -1.35188114691218      0.00667340384967
  C   0.07319811791762     -1.20762154307913     -1.40856804833054
  N   0.46123089910767     -1.91384154148498     -2.26735242096492
  C   1.93438826680561      0.34328826372139      0.21250396472456
  H   2.23779389317346     -0.32753076183624     -0.59152320832260
  H   2.40889491159698      0.01903987109793      1.14247499141041
  H   2.29946380629604      1.34964826040909     -0.00921742780147
  C   -0.07316553304849      1.20915617306180      1.40757269722460
  N   -0.46144381587668      1.91736352769160      2.26465889356876
