14
Coordinates from ORCA-job run
  C   -0.44445357509290     -0.35866238724375     -0.36985103719969
  C   0.44366789355812      0.36033508387718      0.36888001341432
  C   -1.89884760838443     -0.54590823821873     -0.04222490117646
  H   -2.52003188726125     -0.16899308893596     -0.85893956136043
  H   -2.16734904972552     -0.02321185868275      0.87599511012100
  H   -2.12273432534975     -1.60927338184804      0.07699020833917
  C   0.02116138453371     -1.00211583890601     -1.56305991016438
  N   0.37021989913832     -1.54346402559953     -2.54898220742651
  C   1.89867693236284      0.54580959777027      0.04214151407775
  H   2.12590645514009      1.60906482037924     -0.07138253612169
  H   2.16605987422904      0.02715969051223     -0.87869568440707
  H   2.51819471585396      0.16256740444453      0.85732300565723
  C   -0.02141870188177      1.00310094817591      1.56264317513583
  N   -0.37005200712045      1.54359127427543      2.54916281111094
