16
Coordinates from ORCA-job run
  C   -0.62721885579472     -0.46992445188223     -0.11581436370180
  C   0.85637135697748     -0.13784301796613     -0.28241055987172
  F   -0.86218536277879     -1.61912932366550     -0.82319901835528
  H   1.43809548205750     -1.02794760998192     -0.05139327391357
  N   -0.88801902381968     -0.91566475128155      1.34775813783147
  O   0.04027471503183     -1.47201742158485      1.92560596520929
  O   -2.01775711775966     -0.72930267126667      1.78281798026204
  N   -1.49312486021484      0.52377297784485     -0.57294758964896
  H   -2.45595799866040      0.21902422491775     -0.49996761763093
  H   -1.35301625614655      1.37588776900382     -0.04449475752909
  N   1.28026958201062      0.86599013831855      0.77943163980704
  O   2.45413139645103      0.83267151011411      1.11690025358018
  O   0.43596419529306      1.67225167761450      1.17471403917769
  N   1.14731450663357      0.40000777085664     -1.56172630744384
  H   1.73198411034113     -0.20084523280176     -2.11852033289536
  H   0.31287413037841      0.68306841176040     -2.05575419487716
