16
Coordinates from ORCA-job run
  C   -0.54190545950605     -0.35600993797716      0.42762959086540
  C   0.57230551627651      0.39183120199346     -0.33251782895369
  F   -0.04476312238124     -0.84478307592219      1.58275030136822
  H   0.11529497373891      0.98672916274595     -1.12258771630639
  N   -1.55278603244835      0.73676180896780      0.78823622121023
  O   -1.62934862541374      1.08784791431579      1.95498818536335
  O   -2.18680161957615      1.17842314159017     -0.16580086124290
  N   -1.26380928354685     -1.37571801243599     -0.23287636621399
  H   -0.66974768490628     -2.17460333719319     -0.41362807722219
  H   -1.69622216467099     -1.04008445411614     -1.08278048446041
  N   1.37533964233265     -0.66050949081035     -1.07023866929137
  O   1.43954655781633     -0.56222654285029     -2.29280603341459
  O   1.90017956754213     -1.53035426476983     -0.38068513302786
  N   1.43673744027858      1.16816572897890      0.47826438526691
  H   1.25073066222465      2.15662133788069      0.43220479503606
  H   1.49524963223987      0.83790881960237      1.42984769102323
