16
Coordinates from ORCA-job run
  C   -0.64266322103511     -0.44951780975675     -0.11076965434259
  C   0.81574601661537     -0.08948427028224     -0.39796056245406
  F   -0.97438369882965     -1.47842435231915     -0.95192597518218
  H   1.40832036394340     -1.00188651749268     -0.37429740036470
  N   -0.73809975628258     -1.11459951453652      1.28783501914517
  O   -1.81254686748291     -1.01382154435088      1.86743685446405
  O   0.24761164562221     -1.73796804778968      1.66864483928063
  N   -1.54231261678293      0.59860684434465     -0.30700994621197
  H   -2.49384860286627      0.28230137570024     -0.16611422951515
  H   -1.32819714377014      1.36190565440389      0.32268287159586
  N   1.37499403885333      0.74394845165812      0.74529915612655
  O   0.59299992714602      1.47465908333740      1.35670851866572
  O   2.58035634497871      0.66859413071390      0.93029081016796
  N   0.96125511125384      0.63831352434309     -1.60660221323087
  H   0.07716696280017      0.98213631671959     -1.95384582012106
  H   1.47460149583652      0.13423667530700     -2.31037226802337
