16
Coordinates from ORCA-job run
  C   -0.72187411793552     -0.56601066308879      0.03478929444672
  C   0.71787425977024     -0.19752542651705     -0.37470497301929
  F   -1.00572484025108     -1.68119571049271     -0.70102201986136
  H   1.36076118443140     -1.05239630598442     -0.15991823961954
  N   -0.73780522490162     -1.05166563658865      1.48788672594228
  O   -1.57701463190049     -0.59837225272738      2.25001633464847
  O   0.09787666583252     -1.91292735206683      1.73787384019023
  N   -1.73502619650248      0.38189630954623     -0.14635266290403
  H   -1.78958470810311      1.06348512861819      0.59434001196255
  H   -1.72734644953592      0.78190003721615     -1.07275869683409
  N   1.24893681337584      0.93722010965138      0.50869797410897
  O   2.16553337707989      1.60341715197976      0.04102579056829
  O   0.73817001114804      1.09267696212732      1.61482355480128
  N   0.75639187729776      0.13885651128859     -1.75288190822860
  H   0.54665404790658      1.11593832356718     -1.90773150126787
  H   1.66117793228796     -0.05529718652899     -2.15508352493400
