16
Coordinates from ORCA-job run
  C   -0.49316987002391     -0.33497546864972      0.45919435299819
  C   0.49770740249151      0.39630348415323     -0.44480421539865
  F   -0.04072154697504     -0.33870807533619      1.73537374555512
  H   0.05668679341505      0.53839008937971     -1.43031830565747
  N   -1.75731449530121      0.56894776418638      0.46940380822242
  O   -2.27824642961717      0.70264228143558     -0.63406817732382
  O   -2.15125466894863      1.02030408918858      1.53236055559398
  N   -0.76633914567339     -1.64704367014648      0.05986482722753
  H   -1.45250352968790     -2.09091676863928      0.65616601005600
  H   -1.02173394869130     -1.71706355692256     -0.91477868278182
  N   1.66291028238745     -0.56760447881144     -0.67929402046325
  O   1.57541805998320     -1.29629004255805     -1.66319751931478
  O   2.58025672201486     -0.53793608900523      0.13372968747414
  N   0.84900861698951      1.62371591086705      0.15335565111473
  H   1.40409406912577      2.20204974815494     -0.46103412269442
  H   1.33620168851120      1.47918478270350      1.02804640539209
