16
Coordinates from ORCA-job run
  C   -0.65289913732423     -0.47357151736914     -0.01289277606285
  C   0.78062324989691     -0.03833721588752     -0.30346743013139
  F   -0.93644688424018     -1.42857983604206     -1.00315546538663
  H   1.45082940880001     -0.89068571616829     -0.14956817834770
  N   -0.76519137762900     -1.29948371713440      1.25958932181796
  O   -1.75479813798512     -1.12339735899684      1.95810786185803
  O   0.11353827810510     -2.13473502202081      1.42785982578288
  N   -1.51014597120115      0.60571885861272      0.02841354921767
  H   -2.45863480044000      0.36504084041782      0.27558201664613
  H   -1.43290172373008      1.15076002847633     -0.82005178397654
  N   1.19800539537963      0.98168522586980      0.72662177553069
  O   1.79321233050401      1.97933894694491      0.33388296912820
  O   0.94700312931970      0.70032460380505      1.89109100369007
  N   0.79158186393445      0.56982448671228     -1.60876083702330
  H   0.84799478102287     -0.15194244483378     -2.31511599522198
  H   1.58822959558708      1.18903983761393     -1.68813585752124
