16
Coordinates from ORCA-job run
  C   -0.59194963711986     -0.43143118862863      0.33990578516842
  C   0.50531622845625      0.41616846191059     -0.33530264335167
  F   0.01429341462737     -1.10209348578182      1.35505201539188
  H   0.09001763522427      0.90018308954134     -1.21972293454265
  N   -1.54779037801385      0.59058692272131      0.95271838266988
  O   -2.20509821884422      1.22062612004788      0.12979452204204
  O   -1.57107969377022      0.69993056272896      2.16488752132892
  N   -1.38381089485328     -1.31716995379060     -0.41516750957629
  H   -0.80559510254904     -1.90195125597897     -1.00521265330830
  H   -2.03901720861722     -0.79946048092171     -0.98620873602867
  N   1.53698239548448     -0.58910569485031     -0.88421009018414
  O   1.16813973604986     -1.28847748617403     -1.82718975007982
  O   2.63571794901368     -0.62474560072160     -0.34539393490722
  N   1.03368042271319      1.35000427786017      0.57448365153678
  H   1.47330737872935      0.89439241117625      1.36333715218180
  H   1.68888597346924      1.98354330086116      0.13922922165904
