16
Coordinates from ORCA-job run
  C   -0.54090019670416     -0.38808710974558      0.45686271505290
  C   0.45787072473149      0.36153535577088     -0.44811937571830
  F   0.10148319380454     -0.60602433386539      1.63508363531173
  H   0.02438561446541      0.47469405405805     -1.44216743064217
  N   -1.66350142217201      0.61696236266729      0.70946022575316
  O   -2.35906338076699      0.85094984289852     -0.27420645681809
  O   -1.76684451479061      1.09379135305284      1.82464885765285
  N   -1.15768785767121     -1.57529848940725      0.01919649628668
  H   -1.85269756032592     -1.36756702872825     -0.68603348966232
  H   -0.47285945368885     -2.21841581971422     -0.35762943342942
  N   1.64922969644011     -0.59633655082908     -0.64378034165993
  O   2.71099965354486     -0.29695316007067     -0.11308099234346
  O   1.43387867932905     -1.60177068647983     -1.32001209429410
  N   0.79911252776482      1.60252739018933      0.11991654701674
  H   1.37690961904586      2.16037010722318     -0.49252060314787
  H   1.25968467699362      1.48962271298018      1.01338174064160
