16
Coordinates from ORCA-job run
  C   -0.61008467493171     -0.28602010291565      0.34973741218896
  C   0.51106557243431      0.32411253924577     -0.49227963774491
  F   -0.13788232527100     -0.36162943901724      1.64645648133040
  H   0.19853985177166      0.36785960775457     -1.53454888877101
  N   -1.73144461054381      0.76614889702769      0.37831634538059
  O   -2.11884433263822      1.13159341746626     -0.72107985418044
  O   -2.15213897829202      1.11751244058619      1.47055123641404
  N   -1.16040231295904     -1.46712845021564     -0.13605474497059
  H   -1.79476459723816     -1.89071450103030      0.52836052112823
  H   -0.46268264562012     -2.11991650883222     -0.46396496495012
  N   1.68306400135923     -0.68538681738576     -0.46750205610690
  O   1.51194797365970     -1.74087065426473     -1.07649637292347
  O   2.69477338768884     -0.36314054138308      0.14087356977427
  N   0.84708682508014      1.59066305380651      0.01869569308906
  H   1.24312772660171      1.52398263625014      0.94675150981650
  H   1.47863913889849      2.09293442290749     -0.58781624947461
