16
Coordinates from ORCA-job run
  C   -0.59033490750909     -0.66639512810417      0.09624117270008
  C   0.65615984171228     -0.03968716944699     -0.54398281952646
  F   -0.38845482847257     -2.00677755730491      0.27237702140442
  H   1.07210506149637     -0.80538308577312     -1.20526826833801
  N   -0.80688349573663     -0.09307693163413      1.50445871319314
  O   -1.30973667231173     -0.81970162260566      2.34515754564689
  O   -0.52891977741589      1.09645658914932      1.62066294732241
  N   -1.74818006077568     -0.37190072429107     -0.62911503769455
  H   -1.57354184366197     -0.16293720096212     -1.59991493407211
  H   -2.47647918386476     -1.05614578805523     -0.48000850994241
  N   1.75764171206994      0.12444562773037      0.52396636367600
  O   1.85174022983076     -0.76160844576421      1.36378434173052
  O   2.49248838167862      1.09575920353492      0.39907304203097
  N   0.36933038590006      1.13646641294859     -1.27041782990389
  H   1.19213325369102      1.47175118346011     -1.75232440892247
  H   0.02993190336927      1.85873463711829     -0.64668933930453
