16
Coordinates from ORCA-job run
  C   -0.54853929839230     -0.53926832853215      0.12118140087349
  C   0.75082047868120     -0.00470143125781     -0.50877990989975
  F   -0.26958262871759     -1.79999753411654      0.59108548802706
  H   0.99527834189193     -0.68596868919735     -1.32689709284403
  N   -0.99501975868060      0.27014357532032      1.34265439828683
  O   -1.16213632141558     -0.33563866711402      2.38927804891762
  O   -1.18397265200638      1.46497432060137      1.14540360171789
  N   -1.60224242430670     -0.48990508600199     -0.80511524625876
  H   -1.38692670775719     -1.04400537584444     -1.62456194837837
  H   -2.47326087676068     -0.81241055136056     -0.40024255318388
  N   1.85369027446347     -0.21286667965747      0.49905639018327
  O   1.73008507298438      0.40810286569459      1.55103740713286
  O   2.78400906248162     -0.94428622452385      0.18276245707948
  N   0.80044817480236      1.34401660981769     -0.95371115528713
  H   0.40969551458414      1.42994458518524     -1.88057392870556
  H   0.29765374814794      1.95286661098699     -0.32157735766102
