16
Coordinates from ORCA-job run
  C   -0.65096812727768     -0.47488520330683      0.01595228821496
  C   0.76163147837341     -0.02754916713830     -0.34821014016042
  F   -0.98872396118480     -1.41058407165094     -0.97675850901197
  H   1.44205786127756     -0.88048506868777     -0.25315266223749
  N   -0.68723534871737     -1.32913693498356      1.27408517993511
  O   0.20673633172214     -2.15874845845083      1.37771591717937
  O   -1.64097041005650     -1.17856822160227      2.02649472760424
  N   -1.50775172666944      0.59906763927773      0.12999529425260
  H   -2.44090231084410      0.34953999962514      0.42240840148142
  H   -1.47732579234579      1.16647085395990     -0.70668209062479
  N   1.23795795007587      0.97132729267156      0.67700404440703
  O   1.82159444338618      1.97034875712256      0.27044438831865
  O   1.04477007989410      0.67178835609309      1.84799659945076
  N   0.69379170829093      0.60974514311565     -1.63801107678586
  H   0.69193813367008     -0.09779596640291     -2.36098548668875
  H   1.49339969040541      1.21846505035779     -1.75829687533484
