16
Coordinates from ORCA-job run
  C   -0.50092062339359     -0.25067736809747      0.50283827036314
  C   0.50404049040231      0.31394123192133     -0.49964115540711
  F   -0.07541840218849     -0.01626677647510      1.76699270847618
  H   0.08339458441191      0.26969545770923     -1.50311724273454
  N   -1.77107665046001      0.62705567110234      0.32350584747577
  O   -2.19230533530621      1.25760925679652      1.27945527492787
  O   -2.26768253215833      0.55491675344196     -0.79674870718194
  N   -0.75727854751924     -1.61585987557155      0.34452123968368
  H   -0.97990328244658     -1.86839804085236     -0.60758534290433
  H   -1.45897781026068     -1.95029608267808      0.99181057095783
  N   1.68019343349472     -0.66498824085695     -0.53146745969488
  O   1.61643344817420     -1.56313952948548     -1.36582149689275
  O   2.58123820441820     -0.47730614297245      0.27861133377531
  N   0.83471438705212      1.63307210998505     -0.12808086994319
  H   1.40145652615309      2.09467372656740     -0.82509691578652
  H   1.30209210962658      1.65496784946560      0.76882394488548
