16
Coordinates from ORCA-job run
  C   -0.60611544701001     -0.43459121049643      0.04333391414778
  C   0.85175787796424     -0.13191179209959     -0.34535958306052
  F   -1.02830108972586     -1.41887860080188     -0.85553668041142
  H   1.45188462824524     -1.00128254374004     -0.07817381901764
  N   -0.67828477063543     -1.16104923048172      1.38640863199646
  O   0.11418748849402     -2.08196746311991      1.52987415525130
  O   -1.55579031201518     -0.81837525031208      2.16970204610226
  N   -1.40582837695208      0.69625973554572      0.09263988926220
  H   -2.31865375799968      0.52166463897998      0.48896346659278
  H   -1.46178296814162      1.16971031916147     -0.79724723435898
  N   1.29348089668296      0.99171425837473      0.55157352115353
  O   1.46745214802056      0.69290110316392      1.72828761361140
  O   1.39165372465266      2.10877821938309      0.05908348087343
  N   1.07378646025377      0.23221352529932     -1.70721555081119
  H   0.74336498282095     -0.49260167983332     -2.32878396896938
  H   0.66818851534546      1.12841597097673     -1.93854988236201
