13

C	0.0	0.0	0.0
C	-0.427076	-0.09037	-1.492735
F	1.382209	0.0	0.0
H	0.046404	-1.007715	-1.859992
H	0.082585	0.753533	-1.971046
C	-0.448253	1.256528	0.617696
N	-0.662441	2.307382	1.096227
C	-0.450744	-1.167057	0.771566
N	-0.679065	-2.145913	1.379006
N	-1.816053	-0.079995	-1.814537
H	-2.339243	-0.834948	-1.384967
H	-2.296211	0.752816	-1.494325
Br	-4.551912	0.0	0.0
