13

C	0.0	0.0	0.0
C	-0.515059	-0.247198	-1.414131
F	1.385397	0.0	0.0
H	-1.604279	-0.323766	-1.332883
H	-0.109847	-1.21922	-1.721673
C	-0.407876	1.319511	0.519201
N	-0.584904	2.407512	0.922995
C	-0.412121	-1.079678	0.916667
N	-0.594226	-1.999348	1.623746
N	-0.098453	0.847397	-2.274061
H	-0.897866	1.236334	-2.750962
H	0.590244	0.555825	-2.950571
Br	-3.702611	0.0	0.0
