15

C	0.0	0.0	0.0
C	-0.558039	0.059579	-1.427879
F	1.367815	0.0	0.0
H	-1.669806	0.110395	-1.220381
C	-0.365164	1.243536	0.746177
N	-0.496034	2.166904	1.460788
N	-0.517177	-1.185029	0.59018
H	-1.550286	-1.01036	0.532983
H	-0.238506	-1.20383	1.565784
C	-0.145964	-1.102488	-2.196709
N	0.142909	-2.032799	-2.852782
N	-0.081132	1.305387	-2.108513
O	0.954578	1.246441	-2.771397
O	-0.757482	2.316955	-1.929715
F	-2.739803	0.0	0.0
