15

C	0.0	0.0	0.0
C	-0.525573	-0.116434	-1.451343
F	1.383207	0.0	0.0
H	-1.635625	-0.006684	-1.25786
C	-0.403039	1.309014	0.569689
N	-0.546064	2.360309	1.07098
N	-0.499642	-1.032842	0.837848
H	-0.253719	-1.930741	0.431475
H	-1.531854	-0.877728	0.758329
C	-0.167658	-1.40796	-2.012201
N	0.055381	-2.482017	-2.433455
N	0.006022	0.97529	-2.32156
O	-0.554166	2.064628	-2.225974
O	0.971427	0.729545	-3.045504
F	-2.70216	0.0	0.0
