15

C	0.0	0.0	0.0
C	-0.229935	0.12811	-1.55725
F	1.403282	0.0	0.0
H	0.480899	-0.589889	-1.977501
C	-0.427613	1.219029	0.712494
N	-0.592422	2.200046	1.33634
N	-0.502824	-1.148248	0.622203
H	-0.332023	-1.943453	0.015541
H	-1.549263	-0.912987	0.581923
C	0.103824	1.454932	-2.056331
N	0.44242	2.503391	-2.463717
N	-1.553778	-0.329807	-2.115928
O	-1.704592	-1.546779	-2.110395
O	-2.281064	0.4912	-2.650462
F	-2.583958	0.0	0.0
