15

C	0.0	0.0	0.0
C	-0.523248	-0.315108	-1.424992
F	1.386016	0.0	0.0
H	-1.314644	-1.051741	-1.316429
C	-0.377733	1.331997	0.535998
N	-0.486251	2.323542	1.157957
N	-0.439062	-1.078529	0.830305
H	-0.105894	-0.899119	1.772444
H	-1.474482	-0.91423	0.786134
C	0.556863	-0.785165	-2.295746
N	1.390116	-1.179696	-3.023941
N	-1.191205	0.816569	-2.165231
O	-0.754234	1.949347	-1.995007
O	-2.064584	0.488747	-2.957341
F	-2.541515	0.0	0.0
