15

C	0.0	0.0	0.0
C	-0.61609	-0.003397	-1.40155
F	1.379251	0.0	0.0
H	-1.725088	-0.001376	-1.120041
C	-0.366361	1.301811	0.646055
N	-0.638009	2.287247	1.229907
N	-0.536926	-1.125265	0.676541
H	-1.567706	-0.939704	0.606741
H	-0.251084	-1.078375	1.650302
C	-0.216828	-1.131742	-2.217405
N	0.053887	-2.026606	-2.93148
N	-0.310814	1.262433	-2.141873
O	-1.207526	1.710937	-2.848788
O	0.806109	1.763074	-1.998162
F	-2.781642	0.0	0.0
