15

C	0.0	0.0	0.0
C	-0.521711	-0.240933	-1.440073
F	1.401219	0.0	0.0
H	-1.422053	0.365778	-1.557107
C	-0.335743	1.392462	0.416799
N	-0.463235	2.479716	0.842613
N	-0.482539	-1.00691	0.865788
H	-1.523691	-0.863602	0.738961
H	-0.227806	-0.7522	1.815193
C	-0.848735	-1.642912	-1.706117
N	-1.147975	-2.739838	-1.984408
N	0.544798	0.224299	-2.397562
O	0.646164	1.44305	-2.509876
O	1.24648	-0.610669	-2.96025
F	-2.613105	0.0	0.0
