19

C	0.0	0.0	0.0
C	-0.48677	-0.202028	-1.497675
Cl	1.772131	0.0	0.0
H	0.333248	0.264722	-2.055565
C	-0.481097	1.323839	0.544275
H	-0.189208	2.114648	-0.150135
H	-1.569844	1.269963	0.622551
H	-0.040302	1.527667	1.518287
N	-0.383429	-1.094888	1.00317
O	-0.771425	-0.733911	2.107229
O	-0.1915	-2.261164	0.675954
N	-1.702319	0.477599	-1.868756
H	-2.483928	0.228532	-1.203118
H	-1.578629	1.481868	-1.801251
C	-0.590615	-1.652026	-1.95678
H	-0.774071	-1.622753	-3.032353
H	-1.444207	-2.13025	-1.478347
H	0.307485	-2.234092	-1.74805
H	-3.479255	0.0	0.0
