19

C	0.0	0.0	0.0
C	-0.249286	0.12577	-1.549065
Cl	1.784248	0.0	0.0
H	0.405498	-0.652968	-1.961299
C	-0.294559	1.199014	0.905578
H	0.272984	1.084257	1.830268
H	-1.355847	1.247817	1.134612
H	0.010087	2.108062	0.386949
N	-0.637205	-1.217322	0.515468
O	-0.619069	-2.21383	-0.267654
O	-0.637187	-1.34859	1.769921
N	0.162576	1.472232	-1.988546
H	-0.036677	1.536836	-2.98082
H	1.166746	1.560429	-1.883295
C	-1.618684	-0.143554	-2.158652
H	-1.462022	-0.251569	-3.24794
H	-2.310875	0.6791	-1.984012
H	-2.031127	-1.074164	-1.776673
H	-2.089743	0.0	0.0
