19

C	0.0	0.0	0.0
C	-0.307958	0.174418	-1.531672
Cl	1.773313	0.0	0.0
H	0.503059	0.817047	-1.889893
C	-0.487318	1.168516	0.827565
H	-1.584408	1.119903	0.848216
H	-0.179704	2.115879	0.384569
H	-0.098147	1.061043	1.841516
N	-0.647311	-1.199406	0.554532
O	-1.832147	-1.363173	0.003193
O	-0.355401	-1.51817	1.737614
N	-1.536006	0.920536	-1.783918
H	-1.771267	0.804211	-2.765693
H	-2.293171	0.492222	-1.231895
C	-0.194801	-1.149369	-2.295002
H	0.712783	-1.697837	-2.024021
H	-1.063209	-1.77026	-2.085366
H	-0.149953	-0.934514	-3.370039
H	-3.084039	0.0	0.0
