12

C	-0.440562	0.022001	-1.421468
C	0.0	0.0	0.0
F	-0.051496	-1.096448	-2.090963
H	1.090419	0.0	0.0
H	-0.381153	0.888028	0.508858
H	-0.402167	-0.906894	0.461298
N	-1.985189	0.038297	-1.511748
O	-2.527038	1.10636	-1.245719
O	-2.551297	-1.018189	-1.760565
C	0.009467	1.206218	-2.173417
N	0.346423	2.153624	-2.778796
F	2.597337	0.0	0.0
