12

C	-0.420281	0.034931	-1.428044
C	0.0	0.0	0.0
F	-0.052814	-1.095888	-2.089646
H	1.090411	0.0	0.0
H	-0.379649	0.888231	0.509137
H	-0.410143	-0.907914	0.452103
N	-1.963218	0.099033	-1.548836
O	-2.477722	1.184304	-1.294549
O	-2.556974	-0.938961	-1.810584
C	0.080595	1.205218	-2.171441
N	0.456983	2.141462	-2.770056
F	2.596992	0.0	0.0
