12

C	-0.47377	-0.106727	-1.40091
C	0.0	0.0	0.0
F	-1.855912	-0.145595	-1.533107
H	1.088976	0.0	0.0
H	-0.41477	0.915655	0.427152
H	-0.366798	-0.87155	0.548619
N	-0.051736	1.152473	-2.164003
O	-0.705084	2.158932	-1.913158
O	0.904919	1.071303	-2.926498
C	0.056475	-1.271217	-2.126127
N	0.432379	-2.256837	-2.642158
F	2.590551	0.0	0.0
