13

C	-0.545636	-0.0214	-1.430806
C	0.0	0.0	0.0
Cl	0.114161	1.356747	-2.343134
H	1.091603	0.0	0.0
H	-1.629398	0.106856	-1.40031
C	-0.227122	-1.278544	-2.097459
N	-0.030048	-2.295917	-2.650096
C	-0.533094	-1.125606	0.758405
N	-0.967849	-2.037902	1.358483
N	-0.51021	1.262879	0.6614
O	-1.700871	1.52567	0.489416
O	0.285357	1.908011	1.325064
Cl	3.161773	0.0	0.0
