13

C	-0.433913	-0.02398	-1.458654
C	0.0	0.0	0.0
Cl	-2.221417	-0.008806	-1.625769
H	1.094644	0.0	0.0
H	-0.097786	-0.985487	-1.855382
C	0.141913	1.026637	-2.294557
N	0.539784	1.803016	-3.080719
C	-0.488396	-1.176287	0.7016
N	-0.865445	-2.162266	1.216537
N	-0.437421	1.240999	0.714392
O	-0.509817	2.26527	0.043771
O	-0.630987	1.152236	1.92197
Cl	3.090675	0.0	0.0
