13

C	-0.437733	-0.009259	-1.457426
C	0.0	0.0	0.0
Cl	-2.225726	-0.006186	-1.620696
H	1.094469	0.0	0.0
H	-0.095024	-0.963347	-1.86642
C	0.128156	1.056112	-2.281316
N	0.522398	1.849306	-3.052283
C	-0.48522	-1.18418	0.690542
N	-0.859701	-2.175038	1.197874
N	-0.436	1.231819	0.731909
O	-0.595392	1.132912	1.94358
O	-0.53906	2.259371	0.070112
Cl	3.091508	0.0	0.0
