13

C	-0.436314	0.016898	-1.465812
C	0.0	0.0	0.0
Cl	0.043227	-1.514756	-2.237743
H	1.094957	0.0	0.0
H	0.111634	0.814721	-1.965471
C	-1.875135	0.221028	-1.623038
N	-3.033256	0.375841	-1.743594
C	-0.561362	-1.105496	0.752327
N	-1.007746	-2.022874	1.334238
N	-0.379751	1.303828	0.646771
O	-0.507464	1.314626	1.864388
O	-0.46426	2.278811	-0.097803
Cl	3.108199	0.0	0.0
