13

C	-0.546587	-0.020254	-1.428331
C	0.0	0.0	0.0
Cl	0.106758	1.361524	-2.341407
H	1.091668	0.0	0.0
H	-1.630505	0.106088	-1.399396
C	-0.225025	-1.27513	-2.0994
N	-0.02828	-2.290957	-2.65519
C	-0.530006	-1.127774	0.754094
N	-0.964563	-2.043046	1.349808
N	-0.511524	1.258459	0.666506
O	-1.701009	1.52181	0.497957
O	0.281531	1.908644	1.331063
Cl	3.163739	0.0	0.0
