13

C	-0.540358	-0.053165	-1.430331
C	0.0	0.0	0.0
Cl	0.154747	1.277953	-2.388649
H	1.09151	0.0	0.0
H	-1.620426	0.10217	-1.412912
C	-0.249902	-1.336901	-2.059433
N	-0.088111	-2.376003	-2.582587
C	-0.533502	-1.10724	0.782548
N	-0.995527	-2.004338	1.38564
N	-0.497744	1.273169	0.654818
O	-1.616139	1.668004	0.325708
O	0.232524	1.787259	1.490447
Cl	3.153629	0.0	0.0
