14

C	0.0	0.0	0.0
C	-0.492489	-0.132132	-1.480326
Br	1.948324	0.0	0.0
H	0.39587	-0.181726	-2.121883
H	-0.312853	-0.88145	0.556373
C	-0.438753	1.272152	0.705825
H	-0.052102	1.269911	1.727091
H	-1.528893	1.293026	0.722676
H	-0.050765	2.152538	0.188746
C	-1.225785	1.041896	-1.967652
N	-1.598646	2.034531	-2.472866
C	-1.193225	-1.39772	-1.720551
N	-1.542769	-2.482191	-2.005004
Cl	-3.377419	0.0	0.0
