14

C	0.0	0.0	0.0
C	-0.491235	-0.419268	-1.425976
Br	1.948096	0.0	0.0
H	0.39729	-0.595969	-2.044137
H	-0.314686	-0.754276	0.718307
C	-0.438539	1.386326	0.440999
H	-0.056344	1.583362	1.444727
H	-0.046761	2.147565	-0.236976
H	-1.528452	1.409971	0.448774
C	-1.222656	0.635882	-2.135442
N	-1.593269	1.512028	-2.824385
C	-1.191297	-1.707885	-1.414099
N	-1.534956	-2.828861	-1.483563
Cl	-3.374608	0.0	0.0
