14

C	0.0	0.0	0.0
C	-0.600755	0.447883	-1.337752
Br	1.944692	0.0	0.0
H	-1.704142	0.366636	-1.160207
H	-0.304251	-1.035698	0.158467
C	-0.474316	0.88385	1.141522
H	-1.566694	0.879734	1.14856
H	-0.102492	1.903555	1.016011
H	-0.102614	0.495368	2.091623
C	-0.228002	-0.431286	-2.445023
N	0.042582	-1.148772	-3.334942
C	-0.267135	1.83548	-1.660746
N	-0.01422	2.951334	-1.925435
Cl	-3.587227	0.0	0.0
