18

C	0.0	0.0	0.0
C	-0.358408	-0.240608	-1.520326
Cl	1.775477	0.0	0.0
H	0.332761	0.45858	-2.010272
C	-0.615097	1.269942	0.525143
H	-1.705383	1.090642	0.506845
H	-0.349562	2.097391	-0.137695
H	-0.256552	1.479968	1.533574
N	-0.446595	-1.113069	0.93469
O	-0.120141	-0.994486	2.114718
O	-1.120977	-2.029858	0.482677
N	-1.688484	0.075691	-1.955509
H	-2.412613	-0.136469	-1.197252
H	-1.764315	1.08073	-2.078106
N	0.078655	-1.580408	-1.919768
H	-0.646686	-2.215856	-1.607045
H	0.01678	-1.574488	-2.932223
F	-3.26582	0.0	0.0
