18

C	0.0	0.0	0.0
C	-0.601504	0.115958	-1.421084
Cl	1.771751	0.0	0.0
H	-1.666971	0.290686	-1.168144
C	-0.500397	1.137807	0.856809
H	-1.593654	1.011028	0.852178
H	-0.081939	1.085155	1.86249
H	-0.203078	2.065812	0.370251
N	-0.377786	-1.324223	0.67588
O	-0.867238	-1.283838	1.79575
O	-0.097783	-2.364527	0.078932
N	-0.534394	-1.048279	-2.287757
H	0.338988	-1.543803	-2.146883
H	-1.266883	-1.681328	-1.988728
N	-0.005865	1.300315	-2.037094
H	0.869659	1.022582	-2.471001
H	-0.628539	1.545109	-2.798758
F	-2.903577	0.0	0.0
