18

C	0.0	0.0	0.0
C	-0.315109	-0.041383	-1.547993
Cl	1.784008	0.0	0.0
H	0.373461	-0.800003	-1.942907
C	-0.600043	1.137224	0.763761
H	-0.248117	1.139884	1.795259
H	-0.328306	2.061366	0.257166
H	-1.689997	0.966655	0.707932
N	-0.38085	-1.327157	0.638749
O	-0.428446	-2.315645	-0.089454
O	-0.545496	-1.345449	1.852799
N	0.009433	1.300006	-2.060253
H	-0.477954	1.349747	-2.946342
H	1.00549	1.385734	-2.223755
N	-1.638666	-0.372935	-1.977055
H	-1.703144	-1.382623	-1.985006
H	-2.358225	-0.077435	-1.25028
F	-3.157179	0.0	0.0
