18

C	0.0	0.0	0.0
C	-0.616538	-0.122836	-1.418153
Cl	1.761565	0.0	0.0
H	-1.663461	-0.378167	-1.17238
C	-0.545397	1.191045	0.742512
H	-0.209489	1.191365	1.777845
H	-0.190242	2.089089	0.241954
H	-1.641422	1.056749	0.669757
N	-0.396738	-1.270115	0.769879
O	-0.072236	-2.348426	0.263916
O	-1.002007	-1.156101	1.825666
N	-0.016971	-1.084343	-2.319224
H	-0.210207	-2.011326	-1.964749
H	0.992869	-0.967687	-2.305879
N	-0.515946	1.200446	-2.047159
H	-0.657113	1.023681	-3.036203
H	-1.326549	1.725565	-1.729321
F	-2.98743	0.0	0.0
