17

C	-0.444433	0.022574	-1.485867
C	0.0	0.0	0.0
F	-0.011611	-1.19433	-2.020503
H	1.096911	0.0	0.0
C	-1.951136	0.063076	-1.649793
H	-2.40664	-0.79882	-1.155713
H	-2.367776	0.97979	-1.225717
H	-2.196861	0.022106	-2.713597
C	0.28321	1.134277	-2.213597
H	-0.046522	2.113864	-1.8579
H	0.071841	1.057628	-3.283097
H	1.358276	1.034682	-2.043109
C	-0.503959	-1.19112	0.681076
N	-0.940129	-2.145068	1.209025
C	-0.466989	1.204803	0.68302
N	-0.85101	2.191425	1.192123
Br	3.407124	0.0	0.0
