17

C	-0.359917	-0.000235	-1.501015
C	0.0	0.0	0.0
F	-1.759417	-0.000223	-1.624788
H	1.097255	0.0	0.0
C	0.176451	1.257495	-2.151034
H	-0.036269	1.231548	-3.222512
H	-0.299624	2.141636	-1.722507
H	1.256282	1.316418	-1.992018
C	0.176376	-1.258239	-2.150587
H	1.256177	-1.317287	-1.991325
H	-0.036104	-1.232576	-3.22213
H	-0.299953	-2.142174	-1.7219
C	-0.494421	-1.196755	0.677687
N	-0.883944	-2.166027	1.214256
C	-0.494442	1.196979	0.677258
N	-0.88394	2.16701	1.212478
Br	3.378693	0.0	0.0
