17

C	-0.364855	-0.000393	-1.498869
C	0.0	0.0	0.0
F	-1.765535	-0.001135	-1.616871
H	1.097278	0.0	0.0
C	0.168183	1.257916	-2.149995
H	-0.300247	2.142314	-1.713729
H	1.250119	1.313605	-2.002888
H	-0.05737	1.234888	-3.219052
C	0.169492	-1.258318	-2.149776
H	-0.296852	-2.143234	-1.712341
H	-0.057577	-1.236393	-3.218591
H	1.251782	-1.31211	-2.003993
C	-0.493537	-1.196794	0.677511
N	-0.879627	-2.168662	1.211737
C	-0.493619	1.197049	0.677014
N	-0.879742	2.169137	1.210824
Br	3.387775	0.0	0.0
