17

C	-0.4465	-0.021139	-1.486313
C	0.0	0.0	0.0
F	-0.055872	1.214175	-2.008423
H	1.099034	0.0	0.0
C	0.316098	-1.099029	-2.225965
H	0.035708	-2.091083	-1.864894
H	1.387055	-0.954759	-2.068733
H	0.086491	-1.033576	-3.292705
C	-1.95002	-0.111735	-1.648642
H	-2.437131	0.715073	-1.127092
H	-2.330041	-1.05583	-1.254155
H	-2.199827	-0.046505	-2.710509
C	-0.460502	-1.210016	0.6793
N	-0.851284	-2.191369	1.193259
C	-0.511836	1.184481	0.686355
N	-0.956103	2.126212	1.229869
Br	3.396667	0.0	0.0
