17

C	-0.446944	0.080412	-1.484723
C	0.0	0.0	0.0
F	-0.04119	-1.126503	-2.059212
H	1.100786	0.0	0.0
C	-1.952574	0.159514	-1.642509
H	-2.428936	-0.697806	-1.160875
H	-2.344731	1.079155	-1.203858
H	-2.201777	0.141589	-2.706563
C	0.302341	1.199397	-2.178939
H	1.375827	1.064231	-2.025812
H	0.075127	1.171623	-3.247866
H	0.005881	2.172352	-1.780203
C	-0.509207	-1.216181	0.631227
N	-0.952152	-2.191759	1.112903
C	-0.467323	1.178185	0.727652
N	-0.871193	2.139424	1.269987
Br	3.398026	0.0	0.0
