17

C	-0.439007	0.135117	-1.483869
C	0.0	0.0	0.0
F	-0.037998	1.416274	-1.872208
H	1.103838	0.0	0.0
C	0.323107	-0.863392	-2.329515
H	0.031418	-1.886653	-2.080758
H	0.103671	-0.679822	-3.384556
H	1.394036	-0.744788	-2.149544
C	-1.942159	0.071492	-1.663008
H	-2.427808	0.843079	-1.060925
H	-2.330408	-0.906263	-1.371427
H	-2.184311	0.248698	-2.713777
C	-0.472144	-1.269694	0.549086
N	-0.882261	-2.296494	0.94634
C	-0.509855	1.113428	0.7975
N	-0.955059	2.008423	1.41362
Br	3.401471	0.0	0.0
