17

C	-0.443079	0.037303	-1.486689
C	0.0	0.0	0.0
F	-0.042033	-1.188533	-2.023344
H	1.097058	0.0	0.0
C	-1.947426	0.11808	-1.649607
H	-2.195176	0.072838	-2.712919
H	-2.427303	-0.724197	-1.146008
H	-2.336464	1.050372	-1.235615
C	0.313072	1.130381	-2.211923
H	1.385005	0.996549	-2.050034
H	0.090559	1.070223	-3.280372
H	0.018613	2.116435	-1.844804
C	-0.508904	-1.194616	0.67092
N	-0.942762	-2.148008	1.200781
C	-0.464097	1.20095	0.691858
N	-0.858774	2.178266	1.210429
Br	3.406668	0.0	0.0
