17

C	-0.441474	-0.213256	-1.473288
C	0.0	0.0	0.0
F	-0.050522	0.945129	-2.148139
H	1.104242	0.0	0.0
C	0.325122	-1.376772	-2.065412
H	1.395979	-1.211648	-1.924666
H	0.099534	-1.44981	-3.132262
H	0.044092	-2.314722	-1.580787
C	-1.944703	-0.327097	-1.628539
H	-2.324857	-1.214359	-1.118541
H	-2.435858	0.558529	-1.218756
H	-2.189669	-0.398293	-2.691098
C	-0.461125	-1.115561	0.824169
N	-0.857303	-2.034562	1.439924
C	-0.518175	1.260065	0.527054
N	-0.984245	2.257915	0.935671
Br	3.40279	0.0	0.0
