17

C	-0.443971	-0.088964	-1.484957
C	0.0	0.0	0.0
F	-0.049403	-1.358945	-1.913316
H	1.103289	0.0	0.0
C	-1.947683	-0.014653	-1.656283
H	-2.330518	0.956511	-1.336997
H	-2.194659	-0.162051	-2.710376
H	-2.434383	-0.799743	-1.073177
C	0.316626	0.931992	-2.303237
H	0.031965	1.948029	-2.020421
H	0.089942	0.78412	-3.362378
H	1.388063	0.803672	-2.133439
C	-0.512702	-1.131245	0.770043
N	-0.966462	-2.033862	1.369313
C	-0.461936	1.256531	0.586018
N	-0.853525	2.277066	1.016304
Br	3.40105	0.0	0.0
