17

C	-0.445043	-0.089781	-1.48361
C	0.0	0.0	0.0
F	-0.048647	1.117648	-2.06362
H	1.108036	0.0	0.0
C	0.31361	-1.205228	-2.171742
H	1.385518	-1.060333	-2.017909
H	0.087904	-1.185125	-3.241076
H	0.025104	-2.178678	-1.768257
C	-1.949169	-0.182241	-1.643196
H	-2.197436	-0.168705	-2.707186
H	-2.333648	-1.104228	-1.202606
H	-2.433332	0.671712	-1.163799
C	-0.462328	-1.175795	0.734665
N	-0.856831	-2.13616	1.284725
C	-0.508517	1.216553	0.629856
N	-0.949073	2.187709	1.121868
Br	3.398437	0.0	0.0
