14

C	-0.436419	0.025128	-1.436205
C	0.0	0.0	0.0
F	-0.130165	-1.128092	-2.041383
H	1.099072	0.0	0.0
H	-0.327305	-0.961297	0.403193
N	-1.95638	0.173604	-1.588205
O	-2.386507	0.963205	-2.420643
O	-2.610134	-0.583553	-0.881211
N	0.16669	1.168355	-2.228035
O	0.117944	2.255907	-1.670875
O	0.596497	0.90855	-3.341067
C	-0.558529	1.07082	0.809271
N	-1.036758	1.886457	1.504615
Br	3.373106	0.0	0.0
