14

C	-0.564138	-0.20399	-1.375394
C	0.0	0.0	0.0
F	-1.911233	-0.127221	-1.399324
H	1.099915	0.0	0.0
H	-0.314626	0.989115	0.33909
N	-0.098588	0.852249	-2.364944
O	0.221415	1.936232	-1.894298
O	-0.202389	0.556033	-3.548764
N	-0.157944	-1.547745	-1.948809
O	1.006422	-1.631399	-2.302548
O	-1.021192	-2.415597	-1.960421
C	-0.531559	-1.021528	0.894505
N	-0.988019	-1.839773	1.601432
Br	3.386077	0.0	0.0
