14

C	-0.542012	-0.321117	-1.361594
C	0.0	0.0	0.0
F	-1.837212	-0.689967	-1.329503
H	1.099173	0.0	0.0
H	-0.304395	-0.827912	0.647136
N	-0.411987	0.819542	-2.352961
O	0.565642	1.538672	-2.21265
O	-1.283302	0.891207	-3.210645
N	0.216827	-1.5033	-1.960457
O	0.791761	-1.343094	-3.027989
O	0.128528	-2.52945	-1.299693
C	-0.562926	1.243129	0.50285
N	-1.043604	2.231858	0.914668
Br	3.377292	0.0	0.0
