14

C	-0.54164	0.089439	-1.395646
C	0.0	0.0	0.0
F	-1.886585	0.154399	-1.431613
H	1.106843	0.0	0.0
H	-0.325583	0.910829	0.512017
N	-0.006684	1.351681	-2.060688
O	0.998995	1.237234	-2.745704
O	-0.632427	2.371959	-1.79849
N	-0.146875	-1.062423	-2.300917
O	0.602952	-1.911859	-1.842419
O	-0.657849	-1.030524	-3.41545
C	-0.547257	-1.15714	0.693625
N	-1.022097	-2.066229	1.26396
Br	3.3895	0.0	0.0
