19

C	-0.199419	-0.052463	-1.528354
C	0.0	0.0	0.0
F	-0.097297	1.306531	-1.980896
H	1.092208	0.0	0.0
N	0.881095	-0.834499	-2.001285
H	1.747348	-0.56268	-1.495143
H	0.980389	-0.741826	-3.003968
C	-1.544031	-0.515971	-2.048126
H	-1.556462	-0.428651	-3.13905
H	-1.717802	-1.557961	-1.778476
H	-2.337922	0.108172	-1.63504
C	-0.540127	-1.207396	0.733101
H	-0.059179	-2.091322	0.311263
H	-1.625425	-1.300488	0.658594
H	-0.264287	-1.148493	1.789677
N	-0.59882	1.242482	0.53574
O	0.13452	2.189457	0.802436
O	-1.829517	1.262538	0.683021
F	2.683515	0.0	0.0
