19

C	-0.357333	0.048998	-1.505572
C	0.0	0.0	0.0
F	-0.071457	-1.240992	-1.965656
H	1.090441	0.0	0.0
N	-1.754868	0.24972	-1.842856
H	-2.05008	1.157803	-1.503717
H	-2.295427	-0.444591	-1.336439
C	0.55767	1.006098	-2.234718
H	1.564235	0.841288	-1.838622
H	0.273522	2.042392	-2.046686
H	0.496	0.800802	-3.3051
C	-0.562125	-1.199676	0.725007
H	-1.644239	-1.31368	0.622123
H	-0.337905	-1.123324	1.789906
H	-0.061973	-2.085103	0.336458
N	-0.502797	1.254458	0.603703
O	0.134247	2.293042	0.421311
O	-1.572884	1.223787	1.23233
F	2.620673	0.0	0.0
