19

C	-0.200976	-0.075663	-1.527616
C	0.0	0.0	0.0
F	-0.104336	1.275569	-2.003559
H	1.090389	0.0	0.0
N	0.881	-0.862244	-1.988644
H	0.977053	-0.791965	-2.993677
H	1.747609	-0.582278	-1.487066
C	-1.546961	-0.548349	-2.035429
H	-2.340834	0.083186	-1.630971
H	-1.722079	-1.585002	-1.746922
H	-1.562885	-0.479922	-3.127689
C	-0.537639	-1.197574	0.750691
H	-1.62329	-1.292175	0.682259
H	-0.25755	-1.124786	1.805394
H	-0.05771	-2.086814	0.338355
N	-0.596331	1.250926	0.517322
O	0.134143	2.213602	0.7281
O	-1.821199	1.263455	0.703814
F	2.683274	0.0	0.0
