19

C	-0.092673	0.079109	-1.542307
C	0.0	0.0	0.0
F	-1.39126	0.440986	-1.94202
H	1.091721	0.0	0.0
N	0.836709	1.035419	-2.099664
H	1.722807	0.806641	-1.62363
H	0.583256	1.942248	-1.721843
C	0.243104	-1.277505	-2.127966
H	-0.506952	-2.027724	-1.874591
H	1.22128	-1.567774	-1.737036
H	0.301597	-1.164555	-3.211041
C	-0.613899	-1.212418	0.65966
H	-0.53411	-1.127951	1.743722
H	-1.670948	-1.337233	0.406954
H	-0.057481	-2.099537	0.356059
N	-0.529076	1.241118	0.606301
O	-1.436692	1.151763	1.441418
O	-0.053521	2.326167	0.259136
F	2.634623	0.0	0.0
