10
Coordinates from ORCA-job run
  C   -0.96517710115410     -0.20230954600206      0.55086728860010
  C   0.18032353192707     -0.00069814433005     -0.45336948731410
  Cl  -2.22482688935818      1.01352712233845      0.28080348733056
  H   -0.23980702934632     -0.01723193116046     -1.46553765348370
  H   -1.40085388559058     -1.19033590161363      0.40595164069959
  H   -0.59592747778769     -0.10276163970490      1.57087967414193
  C   1.14235147565935     -1.10220268589307     -0.33018024508920
  N   1.87620627431251     -2.01053370967468     -0.21064862381150
  C   0.84965868833578      1.28964010411527     -0.25777625032497
  N   1.37805241300217      2.32390633192513     -0.08998983074870
