10
Coordinates from ORCA-job run
  C   -1.03386223626887      0.00774364486916      0.46138020513500
  C   0.21517392911991     -0.02344051144099     -0.43261133077552
  Cl  -1.87677275158037     -1.54804163749191      0.37053608095582
  H   -0.09232804207871     -0.30701304503726     -1.44571470222028
  H   -0.75400826767202      0.19337423914558      1.49758853637566
  H   -1.70860518970461      0.78786062660805      0.11060245512201
  C   1.19302200572096     -1.01082382016294      0.03723497658016
  N   1.96809987266388     -1.80688430266960      0.41465579387807
  C   0.82104757311588      1.31223273508199     -0.48715488100247
  N   1.26823310668393      2.39699207109793     -0.52651713404845
