10
Coordinates from ORCA-job run
  C   -0.96859218077207      0.00565605624954      0.58137687533874
  C   0.16070714514464      0.00070664400980     -0.46066310933638
  Cl  -1.87546218095632     -1.51331629823285      0.49576331798045
  H   -0.27867526349362     -0.19268253921583     -1.44612804403655
  H   -0.55731314026141      0.11151497954999      1.58433608612935
  H   -1.65032248198607      0.82817156979843      0.36830536713614
  C   1.14571112682256     -1.05092214452233     -0.18590492259438
  N   1.92739412948667     -1.89533107887322      0.04441235668645
  C   0.80933428960432      1.31701388500363     -0.48935750716746
  N   1.28721855641129      2.38918892623284     -0.49214042013635
