10
Coordinates from ORCA-job run
  C   -1.01755384521074     -0.04788831316079      0.48749543865360
  C   0.43771000839701      0.20607462334158      0.06436461251001
  Cl  -1.05361514525138     -0.95472496645945      2.00877289468763
  H   0.95596593493755      0.70557418328752      0.89097740398557
  H   -1.51894661688710      0.90691423985823      0.64178486876752
  H   -1.53845352271752     -0.62456031189786     -0.27576687993902
  C   0.46255721436476      1.09215351779651     -1.10537379073092
  N   0.43649523408330      1.81873735066979     -2.02693652602162
  C   1.14259003626627     -1.04708799587677     -0.22596143457723
  N   1.69425070201785     -2.05619232755876     -0.45935658733555
