10
Coordinates from ORCA-job run
  C   -1.10804292137150     -0.15746205701179      0.30062961894305
  C   0.20695449416834     -0.00556828297589     -0.47592865268798
  Cl  -0.85021384367127      0.02997678023549      2.04039789271815
  H   -0.02499692098679     -0.13257530424205     -1.54180651045276
  H   -1.52139620684553     -1.14899905830754      0.11605021042270
  H   -1.81068856612650      0.60729086629322     -0.03029821307504
  C   1.17576789580098     -1.04264198679858     -0.10415455334383
  N   1.92883866444455     -1.89718736320835      0.17811283118280
  C   0.78462612507815      1.33172414203972     -0.30193373235033
  N   1.21815127950958      2.41544226397579     -0.18106889135677
