10
Coordinates from ORCA-job run
  C   -0.95122170648133     -0.24179633827810      0.55954229116615
  C   0.17483171276468      0.01049404963251     -0.45495983657871
  Cl  -2.25598317964883      0.93129599098082      0.31626665438231
  H   -0.25628809225152     -0.00830107488717     -1.46257374132327
  H   -0.57416961029562     -0.13961656856553      1.57631128220974
  H   -1.35345698155468     -1.24297811928799      0.40894647851030
  C   1.17559534435827     -1.05868039042963     -0.35702191727613
  N   1.94113523287882     -1.94343594684551     -0.26137678519757
  C   0.80174733182062      1.32094381393768     -0.25128817872956
  N   1.29680994840957      2.37007458374292     -0.07384624716326
