12

C	-0.588122	-0.013036	-1.402412
C	0.0	0.0	0.0
Br	-0.363157	-1.813418	-2.14133
H	1.088221	0.0	0.0
H	-1.665525	0.154173	-1.374536
H	-0.350158	-0.855805	0.576297
C	0.000313	0.949159	-2.325524
N	0.423766	1.702493	-3.120949
N	-0.462461	1.207133	0.737241
O	-0.324397	1.193413	1.955329
O	-0.945343	2.137259	0.086462
Br	3.416666	0.0	0.0
