12

C	-0.463188	0.009556	-1.43894
C	0.0	0.0	0.0
Br	-2.425772	0.119372	-1.572576
H	1.093327	0.0	0.0
H	-0.08474	0.900131	-1.940434
H	-0.396759	-0.83628	0.57122
C	-0.038992	-1.193691	-2.140575
N	0.271001	-2.163455	-2.726725
N	-0.428271	1.244969	0.68308
O	-0.773391	1.151178	1.858944
O	-0.370542	2.291158	0.039979
Br	3.395204	0.0	0.0
