12

C	-0.611283	0.09378	-1.388926
C	0.0	0.0	0.0
Br	0.391454	-0.898639	-2.735722
H	1.090632	0.0	0.0
H	-1.605905	-0.354352	-1.39486
H	-0.334462	0.82682	0.630002
C	-0.72012	1.48623	-1.806857
N	-0.847698	2.613506	-2.111712
N	-0.443986	-1.238437	0.70051
O	-0.209794	-1.285873	1.902955
O	-0.994155	-2.127915	0.049265
Br	3.42395	0.0	0.0
