12

C	-0.494128	0.000739	-1.437753
C	0.0	0.0	0.0
Br	0.008922	1.696469	-2.26236
H	1.090568	0.0	0.0
H	0.013808	-0.779422	-2.003063
H	-0.39351	0.831559	0.58109
C	-1.94019	-0.15887	-1.548102
N	-3.107293	-0.274236	-1.620758
N	-0.432459	-1.251593	0.674879
O	-0.547523	-2.260143	-0.023252
O	-0.604318	-1.205748	1.888966
Br	3.418825	0.0	0.0
