12

C	-0.528669	0.162954	-1.411474
C	0.0	0.0	0.0
Br	0.21593	1.686371	-2.372594
H	1.091642	0.0	0.0
H	-0.171749	-0.707476	-1.967752
H	-0.332731	-0.959762	0.403441
C	-1.985805	0.195287	-1.486087
N	-3.158648	0.153194	-1.541771
N	-0.492095	1.02602	0.955524
O	-1.042256	2.033862	0.513188
O	-0.293623	0.786882	2.142382
Br	3.425954	0.0	0.0
