12

C	-0.583311	0.038602	-1.400557
C	0.0	0.0	0.0
Br	0.21219	-1.316906	-2.555862
H	1.087931	0.0	0.0
H	-1.648042	-0.19632	-1.377664
H	-0.340561	0.86859	0.571941
C	-0.393701	1.353707	-1.999748
N	-0.275187	2.423972	-2.468348
N	-0.499462	-1.187966	0.754676
O	-1.445033	-1.829398	0.291186
O	0.050784	-1.417916	1.82442
Br	3.457523	0.0	0.0
