12

C	-0.588011	0.023184	-1.402243
C	0.0	0.0	0.0
Br	-0.357096	-1.755477	-2.190047
H	1.088214	0.0	0.0
H	-1.665965	0.186779	-1.369982
H	-0.349438	-0.871248	0.553256
C	-0.0035	1.013548	-2.298543
N	0.397118	1.802793	-3.070614
N	-0.461898	1.186756	0.769468
O	-0.307802	1.147524	1.984905
O	-0.959348	2.127505	0.145518
Br	3.416917	0.0	0.0
