12

C	-0.463751	0.075997	-1.436686
C	0.0	0.0	0.0
Br	-2.425267	0.214436	-1.566708
H	1.093282	0.0	0.0
H	-0.074785	0.982437	-1.900176
H	-0.397662	-0.860653	0.532716
C	-0.053776	-1.101635	-2.188507
N	0.242486	-2.051048	-2.813745
N	-0.425203	1.213103	0.739095
O	-0.774569	1.066417	1.908345
O	-0.360889	2.288127	0.145683
Br	3.394157	0.0	0.0
