12

C	-0.4951	-0.037046	-1.432953
C	0.0	0.0	0.0
Br	-0.019003	1.573607	-2.423329
H	1.088245	0.0	0.0
H	0.069147	-0.834902	-1.922981
H	-0.335938	-0.900747	0.523852
C	-1.9198	-0.309897	-1.58849
N	-3.045948	-0.608083	-1.739383
N	-0.541117	1.141439	0.786537
O	0.049663	1.42035	1.823279
O	-1.566649	1.689699	0.379038
Br	3.456205	0.0	0.0
