16
Coordinates from ORCA-job run
  C   0.80082051721803     -0.14554137342021      0.03663303521257
  C   -0.54786497671663      0.28014563198294     -0.55861911426088
  H   1.38266916442540     -0.65493157183656     -0.73544646379443
  H   -0.34298233538376      0.98731798142115     -1.36767997447887
  N   0.65327881747817     -0.96163194138170      1.17906381808887
  H   0.21832638053127     -0.45358847079128      1.94029257756346
  H   1.54321035794281     -1.31876437102401      1.49912749907459
  N   1.59969534153054      1.15152708477515      0.28561258016514
  O   1.89932975946302      1.79608089570152     -0.71525687845772
  O   1.86565604371660      1.44562266010015      1.44632405316260
  C   -1.32188218836194      0.97787394233438      0.47190013290400
  N   -1.93534013490914      1.50096315495891      1.32608087769836
  C   -1.31598169221294     -0.92840067913605     -1.09832880365234
  H   -0.73325682767815     -1.41021206901309     -1.88691696153625
  H   -1.49335862595978     -1.65065795381552     -0.30267639032564
  H   -2.27231960108351     -0.61380292085577     -1.51910998736346
