16
Coordinates from ORCA-job run
  C   0.79626603995992     -0.16892584739545     -0.02957988373184
  C   -0.59838080578402      0.22998739973593     -0.52927597714548
  H   1.28081199873875     -0.78812229686656     -0.78844084317527
  H   -0.46624301291324      0.82654815559529     -1.43662850795877
  N   0.75428669638291     -0.83492041757311      1.21431331220752
  H   0.41659778605359     -0.22304753743262      1.94813520995276
  H   1.66498457390793     -1.18357849954718      1.48118226394752
  N   1.64680810572170      1.11981219323792     -0.02762922093209
  O   1.85169453594341      1.62739676181242     -1.12625374400613
  O   2.04281534877834      1.54215527718288      1.05374198354266
  C   -1.24038822490447      1.07415849399621      0.48218542983223
  N   -1.74631992922992      1.71686225617830      1.32507783044719
  C   -1.44788572587597     -1.00640812873489     -0.83202631767037
  H   -0.96422686486833     -1.60088375615763     -1.61067042311111
  H   -2.43629505024524     -0.71088032786155     -1.18737031360765
  H   -1.55552547166536     -1.62015372616998      0.06123920140882
