16
Coordinates from ORCA-job run
  C   0.82661928156722      0.19360097920253      0.08844685568082
  C   -0.57677987278797     -0.22643543063976     -0.39291966470708
  H   0.93401541691426      1.27873585831703      0.05331422705069
  H   -0.62889390623777     -1.31875913303743     -0.30683358221630
  N   1.94290409112222     -0.42890215442007     -0.55138722429925
  H   1.77868721863689     -1.41404748702491     -0.71358974475000
  H   2.16477551445986      0.03141499187889     -1.42311602375347
  N   0.87811614589613     -0.16562556197828      1.55019912171002
  O   0.89326525621007      0.74842707876418      2.36851797255435
  O   0.86436986035034     -1.36810902923074      1.80079986154232
  C   -0.66812046247809      0.12580770603676     -1.80998389357877
  N   -0.71923631773829      0.43592497810185     -2.94167021089339
  C   -1.70935619209651      0.40982729186937      0.41739896444298
  H   -2.67792312804275      0.14205187901126     -0.00703182860305
  H   -1.68093032867231      0.05680093225569      1.44943892757026
  H   -1.62051257710331      1.49828710089364      0.41841624224987
