16
Coordinates from ORCA-job run
  C   0.82000868232177      0.23101791660442      0.00262403066200
  C   -0.59249446256876     -0.29932612925246     -0.31720943992876
  H   0.87941054505033      1.30261991733045     -0.19300114675766
  H   -0.59237077027075     -1.36973417332444     -0.07812563858051
  N   1.91885566589579     -0.43919016172719     -0.61987506700029
  H   1.79133967247988     -1.44294405978063     -0.62001931686245
  H   2.05651148030781     -0.10908551056023     -1.56503422013826
  N   0.98191105632218      0.08611162053360      1.49241114534573
  O   1.01510263693028      1.10755943410200      2.17152365498984
  O   1.03695697727708     -1.06814635583284      1.90973437845742
  C   -0.78551293532133     -0.15021810968141     -1.75965336160376
  N   -0.91432110966404      0.00584514257438     -2.91647999602093
  C   -1.69662196223372      0.40698021300844      0.47386096897012
  H   -1.65619420976018      1.48685639588754      0.31674742387398
  H   -2.67799182158960      0.04792088207966      0.16104534271327
  H   -1.58558944517672      0.20573297803871      1.54045124188028
