14
Coordinates from ORCA-job run
  C   0.93034964603138      0.00982834680681     -0.39174774038290
  C   -0.56734217362431      0.15776852066555     -0.17669622837639
  F   1.50464370184147      0.11005699345598      0.90342796646787
  H   -1.07404980921683      0.15758373973554     -1.14251773525194
  H   1.33396065675199      0.84782079963394     -0.95821493246564
  N   1.19712823009987     -1.21017908062811     -1.03135491703134
  H   2.18634441102241     -1.35700567937387     -1.17286671629739
  H   0.78297012664971     -1.98128124877474     -0.52469641526893
  N   -0.79617350768621      1.57650178109540      0.36924018574388
  O   -0.45587413815379      2.49460689431352     -0.37010913976538
  O   -1.29886817947684      1.69077918161938      1.48149585482911
  N   -1.04799531479276     -0.87072752934624      0.66851456165883
  H   -0.63982852523120     -0.77830521904964      1.58980067892212
  H   -2.05426512421488     -0.84744750015352      0.75472457721811
