14
Coordinates from ORCA-job run
  C   1.02581164765575     -0.08371064680703     -0.06829600763795
  C   -0.45974553904133      0.19516022810858     -0.25545647083059
  F   1.25284838241349      0.10272695333361      1.31468819246554
  H   -0.69489997219267      0.24131510414349     -1.32037182901997
  H   1.63007284535119      0.67202912127037     -0.57003234537567
  N   1.36742711010856     -1.37897995922706     -0.46845248236241
  H   2.08227710232875     -1.46653994326892     -1.16647405496667
  H   0.60026295378244     -2.02417646232871     -0.55315270622321
  N   -0.70857117081811      1.63306751909094      0.23253833384393
  O   -0.15092029920804      2.51635816415396     -0.41113331775050
  O   -1.46717657106454      1.79620262352377      1.18111854448881
  N   -1.23508416971511     -0.78702803014095      0.40894579491869
  H   -1.01841235974968     -0.77814564865842      1.39672712016332
  H   -2.22488995985071     -0.63827902319363      0.27835122828669
