14
Coordinates from ORCA-job run
  C   0.57007952011035     -0.68538796483873     -0.24204207950008
  C   -0.55860737918804      0.33939453655895     -0.15839988666222
  F   0.27839771080847     -1.43980507245133     -1.40360552601707
  H   -0.49307067333785      1.02125459092913     -1.00825659781438
  H   0.51070378502086     -1.38413908298353      0.59494365955096
  N   1.83021773228100     -0.06674667214250     -0.26728690680412
  H   1.93502849090880      0.56685149592595     -1.04845417458778
  H   2.59043872531505     -0.73147350984750     -0.25374105220461
  N   -0.30152090197727      1.16624350809998      1.06242735651801
  O   0.07293732950411      2.32310599093671      0.91093211522726
  O   -0.47386373694717      0.58971100732898      2.13416198525695
  N   -1.88956085262557     -0.18814396248832     -0.06322053957536
  H   -2.13372223455100     -0.63486701136960     -0.93718038209960
  H   -1.93745751532175     -0.87499785365820      0.67972202871205
