16

C	-0.504911	0.000636	-1.42396
C	0.0	0.0	0.0
Br	0.319209	-1.586321	-2.402086
H	1.091597	0.0	0.0
H	-0.083309	0.840795	-1.967645
N	-1.919992	-0.006618	-1.517858
H	-2.302958	-0.83385	-1.077732
H	-2.220878	0.012441	-2.484522
C	-0.483909	-1.133752	0.874212
H	-1.542086	-1.045152	1.136461
H	0.09443	-1.133689	1.798174
H	-0.302568	-2.080522	0.362509
N	-0.335679	1.301053	0.586023
O	-0.210457	2.306413	-0.127386
O	-0.599541	1.352303	1.796751
H	2.585511	0.0	0.0
