16

C	-0.384914	-0.113971	-1.474634
C	0.0	0.0	0.0
Br	-0.289167	1.66828	-2.346511
H	1.091828	0.0	0.0
H	-1.428249	-0.411453	-1.611882
N	0.502884	-1.007012	-2.162478
H	1.448096	-0.876741	-1.788465
H	0.211849	-1.964827	-2.012523
C	-0.454425	-1.234356	0.764904
H	-1.534483	-1.389872	0.692919
H	0.079161	-2.105315	0.380778
H	-0.176018	-1.127707	1.816411
N	-0.614998	1.176837	0.655045
O	-1.847778	1.251795	0.598152
O	0.105363	1.982864	1.236166
H	2.854663	0.0	0.0
