16

C	-0.533225	-0.014053	-1.411495
C	0.0	0.0	0.0
Br	0.327892	-1.570652	-2.410861
H	1.087906	0.0	0.0
H	-0.156834	0.841271	-1.964567
N	-1.948595	-0.076158	-1.471785
H	-2.28721	-0.912158	-1.013552
H	-2.272144	-0.081763	-2.431759
C	-0.463303	-1.132415	0.889046
H	-0.337359	-2.077909	0.357382
H	0.171672	-1.15908	1.775756
H	-1.501609	-1.019183	1.214481
N	-0.321514	1.301323	0.590193
O	-0.514587	1.35773	1.814966
O	-0.234846	2.304648	-0.132566
H	2.575389	0.0	0.0
