16

C	-0.480386	-0.003324	-1.434154
C	0.0	0.0	0.0
Br	0.296835	-1.637288	-2.372186
H	1.091594	0.0	0.0
H	-0.011056	0.809383	-1.980742
N	-1.891547	0.048452	-1.557499
H	-2.319846	-0.755312	-1.116426
H	-2.171396	0.070964	-2.530133
C	-0.502314	-1.120422	0.879279
H	-0.281617	-2.07538	0.399168
H	-1.573301	-1.04595	1.093284
H	0.033047	-1.086504	1.828825
N	-0.337784	1.311516	0.564032
O	-0.161694	2.30689	-0.152074
O	-0.659544	1.378919	1.760166
H	2.593221	0.0	0.0
