13

C	-0.486676	0.002879	-1.465554
C	0.0	0.0	0.0
Cl	0.12194	-1.401855	-2.37841
H	1.095177	0.0	0.0
H	-1.579734	-0.06884	-1.48405
C	-0.108074	1.247074	-2.133667
N	0.169056	2.251662	-2.674598
C	-0.528917	-1.201152	0.655667
N	-0.997808	-2.14605	1.173416
N	-0.417612	1.186636	0.728275
H	0.270199	1.915377	0.587798
H	-1.332248	1.516705	0.44713
Cl	3.253674	0.0	0.0
