13

C	-0.414554	0.059138	-1.466582
C	0.0	0.0	0.0
Cl	-2.19311	0.279634	-1.640152
H	1.095883	0.0	0.0
H	0.050595	0.951053	-1.887827
C	-0.019445	-1.124255	-2.223233
N	0.269202	-2.080009	-2.840663
C	-0.508053	-1.21665	0.647392
N	-0.927997	-2.151188	1.223519
N	-0.400156	1.233082	0.661928
H	-1.331307	1.154205	1.051886
H	0.259502	1.419345	1.408368
Cl	3.24114	0.0	0.0
