13

C	-0.468818	0.085186	-1.462899
C	0.0	0.0	0.0
Cl	0.176921	1.542571	-2.24738
H	1.094096	0.0	0.0
H	-0.073571	-0.772291	-2.011739
C	-1.929183	0.093283	-1.548217
N	-3.103176	0.092516	-1.588933
C	-0.452491	-1.291577	0.539882
N	-0.848925	-2.294176	1.008553
N	-0.467814	1.135746	0.771424
H	-1.303979	0.919276	1.297897
H	0.266786	1.422613	1.404417
Cl	3.260786	0.0	0.0
