13

C	-0.554784	0.06166	-1.43095
C	0.0	0.0	0.0
Cl	-0.096354	-1.373588	-2.388056
H	1.0941	0.0	0.0
H	-1.647517	0.074245	-1.383727
C	-0.117143	1.281495	-2.105984
N	0.211681	2.261625	-2.661925
C	-0.4861	-1.213956	0.661393
N	-0.950421	-2.135541	1.223691
N	-0.445558	1.212331	0.690695
H	-1.134917	1.007713	1.401209
H	0.362157	1.636601	1.131364
Cl	3.251677	0.0	0.0
