13

C	-0.33135	0.043541	-1.504145
C	0.0	0.0	0.0
Cl	-2.072768	0.398363	-1.805345
H	1.096993	0.0	0.0
H	0.229953	0.874579	-1.933867
C	0.015629	-1.187787	-2.203797
N	0.263342	-2.182066	-2.776532
C	-0.565735	-1.202625	0.612872
N	-1.060538	-2.152035	1.094437
N	-0.391008	1.18205	0.739451
H	-1.293376	1.533234	0.447417
H	0.320284	1.890415	0.624693
Cl	3.220426	0.0	0.0
