13

C	-0.420467	0.084241	-1.465207
C	0.0	0.0	0.0
Cl	-2.194279	0.350186	-1.622697
H	1.095921	0.0	0.0
H	0.064226	0.969265	-1.878204
C	-0.059627	-1.099618	-2.236948
N	0.191483	-2.055922	-2.87008
C	-0.514553	-1.21972	0.63347
N	-0.939054	-2.159582	1.19702
N	-0.387384	1.227719	0.680788
H	0.301932	1.418201	1.397857
H	-1.300102	1.142119	1.109192
Cl	3.230396	0.0	0.0
