13

C	-0.553149	0.045168	-1.432978
C	0.0	0.0	0.0
Cl	-0.090766	-1.400241	-2.372222
H	1.094096	0.0	0.0
H	-1.645816	0.055528	-1.387562
C	-0.121244	1.257466	-2.124511
N	0.191856	2.228982	-2.704082
C	-0.492558	-1.206758	0.669979
N	-0.97503	-2.12207	1.227297
N	-0.439273	1.221139	0.675787
H	0.361004	1.627093	1.145401
H	-1.16445	1.037804	1.35629
Cl	3.251184	0.0	0.0
