13

C	-0.48237	0.022588	-1.467128
C	0.0	0.0	0.0
Cl	0.121507	-1.375252	-2.39479
H	1.09514	0.0	0.0
H	-1.575788	-0.042772	-1.490209
C	-0.093104	1.272455	-2.117739
N	0.163922	2.294367	-2.636397
C	-0.525494	-1.211379	0.638625
N	-0.998234	-2.16309	1.138639
N	-0.418875	1.174804	0.743644
H	0.263527	1.909246	0.60939
H	-1.339818	1.501958	0.477936
Cl	3.255077	0.0	0.0
