19

C	0.0	0.0	0.0
C	-0.40552	-0.257097	-1.484921
Br	1.959391	0.0	0.0
H	0.054804	0.59911	-1.995685
C	-0.579958	1.274979	0.558537
H	-1.66276	1.138275	0.662052
H	-0.151882	1.508422	1.531775
H	-0.389254	2.09563	-0.13577
N	-0.381269	-1.129621	0.950318
O	-0.175706	-0.935477	2.142924
O	-0.856576	-2.154876	0.473798
C	-1.908464	-0.198508	-1.715555
H	-2.071395	-0.366879	-2.782187
H	-2.359042	0.750213	-1.43636
H	-2.453905	-0.955459	-1.154176
N	0.121606	-1.452876	-2.12461
H	1.116267	-1.540859	-1.957877
H	-0.336444	-2.258767	-1.718688
Cl	-4.750218	0.0	0.0
