19

C	0.0	0.0	0.0
C	-0.636791	0.139323	-1.40264
Br	1.94153	0.0	0.0
H	-1.692204	-0.109225	-1.206426
C	-0.487128	1.065307	0.962122
H	-0.124579	2.039241	0.636198
H	-0.113944	0.87218	1.967344
H	-1.581688	1.042173	0.966639
N	-0.369443	-1.376058	0.582954
O	0.076725	-2.372244	0.018307
O	-1.097495	-1.388637	1.569038
C	-0.067796	-0.762846	-2.486259
H	0.951927	-0.460598	-2.74434
H	-0.055265	-1.809775	-2.192894
H	-0.693991	-0.637958	-3.36996
N	-0.628301	1.512738	-1.887543
H	-1.306265	2.059644	-1.371475
H	0.291543	1.927802	-1.780602
Cl	-3.877568	0.0	0.0
