19

C	0.0	0.0	0.0
C	-0.454213	-0.014935	-1.497572
Br	1.952714	0.0	0.0
H	0.262852	-0.664949	-2.006618
C	-0.602171	1.075763	0.859036
H	-0.289645	0.971804	1.896489
H	-1.693526	0.980183	0.806259
H	-0.298819	2.053873	0.48652
N	-0.319201	-1.377132	0.597927
O	-0.719723	-1.423564	1.754561
O	-0.116999	-2.351172	-0.121187
C	-0.363735	1.389423	-2.084718
H	0.595894	1.871293	-1.882835
H	-0.504624	1.311572	-3.163446
H	-1.170576	2.012705	-1.692327
N	-1.764337	-0.545126	-1.755302
H	-1.815413	-1.528099	-1.526837
H	-2.532131	-0.08625	-1.259604
Cl	-4.385059	0.0	0.0
