12

C	0.0	0.0	0.0
C	-0.502288	0.22323	-1.444281
Br	1.950825	0.0	0.0
H	0.343357	0.473555	-2.090237
H	-0.312449	-0.976801	0.356308
H	-1.205076	1.060924	-1.415181
C	-0.418235	1.043769	0.93581
N	-0.513556	1.930382	1.704587
N	-1.116935	-1.019991	-1.901392
H	-1.984756	-1.023598	-1.337605
H	-1.391823	-0.89056	-2.872454
H	-2.673505	0.0	0.0
