12

C	0.0	0.0	0.0
C	-0.401798	0.045204	-1.510267
Br	1.953159	0.0	0.0
H	0.475925	-0.26369	-2.081705
H	-0.349138	-0.926637	0.451661
H	-0.616545	1.098936	-1.756362
C	-0.401515	1.177572	0.761346
N	-0.5974	2.162961	1.374583
N	-1.459763	-0.913094	-1.803092
H	-2.230952	-0.662639	-1.13956
H	-1.818819	-0.695475	-2.724063
H	-2.991952	0.0	0.0
