12

C	0.0	0.0	0.0
C	-0.500028	-0.161849	-1.447373
Br	1.948064	0.0	0.0
H	-1.387536	-0.79215	-1.369272
H	-0.319484	-0.851538	0.601236
H	0.281186	-0.653567	-2.036999
C	-0.426393	1.222149	0.675702
N	-0.531691	2.225389	1.282918
N	-0.801936	1.145838	-2.01751
H	-1.702686	1.387831	-1.595809
H	-0.96049	1.029248	-3.013276
H	-2.695311	0.0	0.0
