12

C	0.0	0.0	0.0
C	-0.487808	-0.062335	-1.502753
Br	1.952928	0.0	0.0
H	-0.711565	-1.115776	-1.695832
H	-0.354955	-0.84144	0.591961
H	0.369316	0.21632	-2.121729
C	-0.382006	1.253454	0.641752
N	-0.569021	2.303439	1.135374
N	-1.62813	0.730193	-1.865368
H	-2.409169	0.468431	-1.20848
H	-1.422287	1.71012	-1.696396
H	-3.269553	0.0	0.0
