12

C	0.0	0.0	0.0
C	-0.351348	-0.122734	-1.531133
Br	1.950973	0.0	0.0
H	0.331801	0.563958	-2.04019
H	-0.371289	-0.837478	0.584734
H	-0.023319	-1.135181	-1.808764
C	-0.413265	1.265599	0.591179
N	-0.600094	2.327481	1.05743
N	-1.69276	0.125281	-1.976806
H	-2.390446	-0.169078	-1.246929
H	-1.842555	1.13033	-1.996857
H	-3.30711	0.0	0.0
