12

C	0.0	0.0	0.0
C	-0.357795	0.125269	-1.510722
Br	1.952881	0.0	0.0
H	0.357923	0.807197	-1.981385
H	-0.337791	-0.944282	0.413134
H	-1.360021	0.535901	-1.5643
C	-0.490959	1.115921	0.805863
N	-0.538209	2.101679	1.456082
N	-0.352497	-1.145219	-2.21735
H	-1.113667	-1.689885	-1.821864
H	0.514468	-1.634896	-2.022824
H	-2.4131	0.0	0.0
