14

C	-0.576527	0.011907	-1.40222
C	0.0	0.0	0.0
F	-0.110643	1.078395	-2.110653
H	1.093843	0.0	0.0
H	-1.668502	0.0176	-1.43453
N	-0.190209	-1.245132	-2.141459
O	0.93851	-1.306651	-2.607674
O	-1.065017	-2.106603	-2.224057
N	-0.336301	-1.244976	0.677217
H	-1.116395	-1.145623	1.31208
H	0.492788	-1.521498	1.1972
C	-0.469293	1.197785	0.688576
N	-0.867388	2.14144	1.268456
H	2.63909	0.0	0.0
