14

C	-0.57501	-0.018567	-1.395112
C	0.0	0.0	0.0
F	-0.079673	0.99335	-2.170055
H	1.095583	0.0	0.0
H	-1.665554	0.026336	-1.418644
N	-0.2404	-1.305338	-2.113953
O	-0.992823	-1.583624	-3.051593
O	0.746219	-1.942667	-1.77144
N	-0.467747	-1.221874	0.681295
H	0.375977	-1.764773	0.854987
H	-0.869203	-0.988179	1.580367
C	-0.469969	1.20817	0.65955
N	-0.862809	2.173705	1.204644
H	2.687508	0.0	0.0
