14

C	-0.392435	-0.12101	-1.44973
C	0.0	0.0	0.0
F	-1.711803	-0.487808	-1.61848
H	1.093646	0.0	0.0
H	0.245187	-0.854819	-1.944388
N	-0.203983	1.168858	-2.202233
O	-1.112214	1.993633	-2.141185
O	0.857817	1.295439	-2.805054
N	-0.307896	-1.221873	0.734821
H	0.536346	-1.788957	0.72465
H	-1.082079	-1.728494	0.326388
C	-0.565591	1.167282	0.659721
N	-0.974194	2.110298	1.231415
H	2.607728	0.0	0.0
