14

C	-0.530165	-0.01361	-1.415048
C	0.0	0.0	0.0
F	0.001346	0.993874	-2.170238
H	1.095638	0.0	0.0
H	-1.618286	0.03545	-1.481818
N	-0.170851	-1.3053	-2.116621
O	-0.910764	-1.608078	-3.057283
O	0.824463	-1.920762	-1.759822
N	-0.494151	-1.222462	0.659886
H	0.335163	-1.787073	0.833179
H	-0.900266	-0.99384	1.55817
C	-0.477572	1.210222	0.647593
N	-0.875217	2.179765	1.182139
H	2.693929	0.0	0.0
