14

C	-0.580693	-0.155373	-1.394359
C	0.0	0.0	0.0
F	-0.588443	1.024179	-2.075587
H	1.096089	0.0	0.0
H	-1.586864	-0.579467	-1.38185
N	0.245197	-1.13378	-2.203145
O	1.118081	-0.677398	-2.927969
O	-0.043989	-2.318792	-2.062707
N	-0.328246	-1.176097	0.800212
H	0.527982	-1.452772	1.27437
H	-1.046219	-0.980707	1.484559
C	-0.478584	1.242497	0.587367
N	-0.882779	2.200853	1.138016
H	2.620099	0.0	0.0
