14

C	-0.354343	-0.243497	-1.442266
C	0.0	0.0	0.0
F	0.007113	-1.505457	-1.810701
H	1.104248	0.0	0.0
H	0.125524	0.482451	-2.09818
N	-1.839184	-0.131613	-1.692073
O	-2.24663	0.98394	-2.015529
O	-2.528424	-1.134605	-1.524827
N	-0.532348	-1.038122	0.895084
H	0.200728	-1.182624	1.588902
H	-0.576214	-1.902397	0.364039
C	-0.460681	1.322724	0.408982
N	-0.772097	2.397071	0.771182
H	2.660715	0.0	0.0
