14

C	-0.507484	-0.103416	-1.410823
C	0.0	0.0	0.0
F	-1.860139	-0.322264	-1.471771
H	1.092695	0.0	0.0
H	0.014345	-0.905933	-1.929123
N	-0.232607	1.155468	-2.190172
O	-1.058787	2.062122	-2.107996
O	0.809483	1.177134	-2.839354
N	-0.305135	-1.267284	0.666978
H	0.501657	-1.486519	1.246477
H	-1.126632	-1.191818	1.251651
C	-0.512921	1.165628	0.708727
N	-0.934685	2.065606	1.338593
H	2.630783	0.0	0.0
