14

C	-0.397436	0.008318	-1.454269
C	0.0	0.0	0.0
F	0.076571	-1.112818	-2.060966
H	1.102623	0.0	0.0
H	-0.029298	0.893739	-1.974014
N	-1.898946	0.00527	-1.630812
O	-2.443007	1.100321	-1.490841
O	-2.460663	-1.055447	-1.873591
N	-0.528519	-1.215262	0.646855
H	-0.183811	-1.191363	1.603202
H	-0.022365	-1.982879	0.211556
C	-0.466337	1.191223	0.691462
N	-0.767617	2.14397	1.310409
H	2.682952	0.0	0.0
