14

C	-0.605105	0.139033	-1.381454
C	0.0	0.0	0.0
F	-0.037109	1.17061	-2.067063
H	1.095545	0.0	0.0
H	-1.6887	0.276797	-1.383752
N	-0.393135	-1.12838	-2.168837
O	0.716861	-1.322509	-2.644878
O	-1.373386	-1.865003	-2.270669
N	-0.321857	-1.30109	0.573279
H	0.520573	-1.617829	1.044852
H	-1.083753	-1.262287	1.233513
C	-0.44991	1.129011	0.805786
N	-0.82498	2.01826	1.47833
H	2.631264	0.0	0.0
