14

C	-0.390476	-0.130294	-1.451634
C	0.0	0.0	0.0
F	-1.685892	-0.568365	-1.619432
H	1.09368	0.0	0.0
H	0.283573	-0.82452	-1.95342
N	-0.276585	1.171013	-2.191813
O	0.785365	1.372193	-2.770363
O	-1.241821	1.928785	-2.151083
N	-0.304543	-1.221076	0.736567
H	0.534547	-1.793206	0.711751
H	-1.080965	-1.720433	0.327129
C	-0.572896	1.165452	0.654293
N	-0.987352	2.108664	1.218978
H	2.609029	0.0	0.0
