14

C	-0.461694	-0.033379	-1.434576
C	0.0	0.0	0.0
F	0.228839	-0.945741	-2.151488
H	1.095201	0.0	0.0
H	-0.398215	0.941335	-1.926966
N	-1.930688	-0.432372	-1.515922
O	-2.245774	-1.371504	-2.234082
O	-2.701673	0.249468	-0.844488
N	-0.381006	-1.233736	0.679263
H	0.45318	-1.572795	1.152217
H	-1.108772	-1.076655	1.362424
C	-0.428341	1.213695	0.681125
N	-0.725341	2.180504	1.281411
H	2.64225	0.0	0.0
