14

C	-0.445697	-0.112499	-1.433333
C	0.0	0.0	0.0
F	0.219011	-1.094909	-2.077016
H	1.093411	0.0	0.0
H	-0.335039	0.823896	-1.989007
N	-1.929527	-0.463696	-1.527777
O	-2.677685	0.127481	-0.75496
O	-2.277232	-1.272202	-2.379879
N	-0.394209	-1.186015	0.748253
H	0.414672	-1.474566	1.291126
H	-1.165863	-0.991899	1.372708
C	-0.417553	1.264189	0.595771
N	-0.701845	2.278897	1.118888
H	2.652249	0.0	0.0
