14

C	-0.333671	0.072298	-1.477555
C	0.0	0.0	0.0
F	0.054964	-1.072358	-2.099117
H	1.097028	0.0	0.0
H	0.117674	0.937517	-1.96693
N	-1.822563	0.195646	-1.688114
O	-2.266362	1.328164	-1.876252
O	-2.494446	-0.832947	-1.594173
N	-0.401549	-1.222088	0.668175
H	-1.22373	-1.628587	0.239558
H	0.376623	-1.868031	0.582434
C	-0.49498	1.190653	0.679025
N	-0.853045	2.165274	1.231101
H	2.621112	0.0	0.0
