14

C	-0.603593	-0.142885	-1.383945
C	0.0	0.0	0.0
F	-0.523398	1.022311	-2.087244
H	1.096173	0.0	0.0
H	-1.641734	-0.482991	-1.362255
N	0.13081	-1.200025	-2.177088
O	-0.314556	-2.341944	-2.084366
O	1.090373	-0.843047	-2.845209
N	-0.313443	-1.184204	0.796303
H	-1.032507	-0.99949	1.483707
H	0.549499	-1.440263	1.273479
C	-0.479523	1.237492	0.599663
N	-0.870427	2.19981	1.152967
H	2.618099	0.0	0.0
