14

C	-0.341395	-0.108861	-1.467286
C	0.0	0.0	0.0
F	-1.559632	-0.702161	-1.705023
H	1.091011	0.0	0.0
H	0.436954	-0.697009	-1.969271
N	-0.3622	1.232051	-2.161837
O	0.519394	2.015195	-1.829789
O	-1.210225	1.416865	-3.0307
N	-0.296773	-1.239993	0.710326
H	-1.044498	-1.758825	0.272261
H	0.558721	-1.787439	0.709391
C	-0.618909	1.143603	0.652505
N	-1.11166	2.068083	1.188256
H	2.59614	0.0	0.0
