17

C	-0.524199	-0.085436	-1.440433
C	0.0	0.0	0.0
Br	-0.375404	1.764958	-2.140396
H	1.089097	0.0	0.0
H	-0.399609	0.864728	0.522584
C	0.351513	-0.964464	-2.316949
H	0.271878	-1.995416	-1.967962
H	1.394466	-0.660052	-2.227921
H	0.030667	-0.906838	-3.359943
C	-1.99597	-0.462404	-1.503802
H	-2.12104	-1.490862	-1.148179
H	-2.602796	0.200807	-0.883358
H	-2.35804	-0.404977	-2.532292
N	-0.469039	-1.175525	0.782427
O	-1.202384	-0.957789	1.753156
O	-0.130832	-2.296526	0.4081
Cl	3.38031	0.0	0.0
