15

C	-0.629778	0.017912	-1.378844
C	0.0	0.0	0.0
Br	0.352691	1.387916	-2.501954
H	1.089461	0.0	0.0
H	-0.430649	-0.902394	-1.917441
N	-2.016562	0.294376	-1.291172
H	-2.432341	0.39994	-2.206223
H	-2.123406	1.160273	-0.773318
N	-0.397156	-1.306414	0.621513
O	-0.794339	-1.316607	1.790454
O	-0.259017	-2.323853	-0.057096
N	-0.445489	1.121996	0.789327
H	0.374598	1.478757	1.266853
H	-1.103477	0.809341	1.49365
F	2.536151	0.0	0.0
