15

C	-0.637238	0.002967	-1.374715
C	0.0	0.0	0.0
Br	0.352314	1.357724	-2.512318
H	1.089441	0.0	0.0
H	-0.446423	-0.92495	-1.90344
N	-2.020789	0.290541	-1.284487
H	-2.440127	0.386468	-2.199466
H	-2.1185	1.162773	-0.774391
N	-0.396776	-1.299725	0.640863
O	-0.786331	-1.293186	1.812774
O	-0.266783	-2.326767	-0.025626
N	-0.442412	1.129477	0.780282
H	0.382834	1.501614	1.237108
H	-1.083438	0.817221	1.501318
F	2.538886	0.0	0.0
