15

C	-0.183784	0.234793	-1.50531
C	0.0	0.0	0.0
Br	-0.186995	-1.603249	-2.522929
H	1.089469	0.0	0.0
H	-1.170756	0.592976	-1.808129
N	0.87828	1.052915	-1.874545
H	1.758203	0.738093	-1.414039
H	0.958549	1.222043	-2.864729
N	-0.711953	-1.213858	0.465253
O	-0.075293	-2.149763	0.935929
O	-1.942121	-1.173681	0.369183
N	-0.469699	1.108254	0.795305
H	-1.268201	1.563795	0.371879
H	0.29475	1.768596	0.855632
F	2.66051	0.0	0.0
