15

C	-0.644797	-0.040499	-1.369829
C	0.0	0.0	0.0
Br	0.304663	1.31934	-2.53354
H	1.095938	0.0	0.0
H	-0.433327	-0.973621	-1.881581
N	-2.034293	0.21523	-1.273959
H	-2.466447	0.289036	-2.185827
H	-2.149199	1.089217	-0.769951
N	-0.39666	-1.272455	0.683656
O	-0.794731	-1.22809	1.852129
O	-0.259386	-2.319827	0.053076
N	-0.448069	1.156442	0.745302
H	-1.003598	0.844393	1.534871
H	0.390298	1.590553	1.116013
F	2.539609	0.0	0.0
