15

C	-0.266866	-0.091785	-1.520469
C	0.0	0.0	0.0
Br	-0.516734	-1.962701	-2.154189
H	1.092991	0.0	0.0
H	-1.210573	0.391448	-1.782507
N	0.836718	0.506729	-2.212317
H	1.686053	0.320661	-1.650103
H	0.685003	1.509544	-2.200744
N	-0.622643	-1.110547	0.783754
O	0.05168	-2.101426	1.044001
O	-1.812484	-0.972892	1.106291
N	-0.474354	1.289223	0.423702
H	0.09598	1.60465	1.19844
H	-1.4426	1.22526	0.716638
F	2.642549	0.0	0.0
