15

C	-0.275517	0.088907	-1.498124
C	0.0	0.0	0.0
Br	-0.004533	-1.667117	-2.343609
H	1.096302	0.0	0.0
H	-1.302146	0.369453	-1.749924
N	0.686559	1.004977	-2.068322
H	0.44724	1.916919	-1.685539
H	1.580043	0.751016	-1.623981
N	-0.631294	-1.161281	0.692097
O	-1.772854	-1.487506	0.336846
O	-0.043307	-1.646869	1.65902
N	-0.446392	1.222591	0.632469
H	-1.422634	1.165484	0.907161
H	0.122177	1.371074	1.455592
F	2.623872	0.0	0.0
