14

C	0.0	0.0	0.0
C	-0.228437	0.157881	-1.525516
Cl	1.796371	0.0	0.0
H	0.244767	1.099567	-1.797136
H	0.25257	-0.677958	-2.031594
N	-0.521771	1.102172	0.723921
H	-1.573619	0.88958	0.564177
H	-0.313035	0.959493	1.708257
C	-0.40205	-1.341411	0.474762
N	-0.586394	-2.423477	0.894806
N	-1.600285	0.226295	-2.114761
O	-2.06857	1.345955	-2.290279
O	-2.076199	-0.824133	-2.52872
F	-2.607708	0.0	0.0
