14

C	0.0	0.0	0.0
C	-0.517396	-0.140933	-1.419401
Cl	1.833264	0.0	0.0
H	-1.619954	-0.226703	-1.261346
H	-0.248433	0.75105	-1.979673
N	-0.530315	1.239734	0.479845
H	-0.290116	1.331415	1.462464
H	-1.56517	1.024762	0.408982
C	-0.343935	-1.145583	0.871335
N	-0.536605	-1.972692	1.683417
N	-0.007385	-1.300017	-2.174131
O	0.197134	-2.354138	-1.576409
O	0.13217	-1.14867	-3.38981
F	-2.752199	0.0	0.0
