17

C	0.0	0.0	0.0
C	-0.635011	-0.047821	-1.398206
Cl	1.792562	0.0	0.0
H	-1.732725	-0.160052	-1.130179
C	-0.387051	1.294997	0.584106
N	-0.564092	2.35389	1.061841
C	-0.484924	-1.12922	0.89653
H	-0.115916	-0.977398	1.912974
H	-0.129899	-2.086237	0.517038
H	-1.584241	-1.07914	0.867343
N	-0.161167	-1.278264	-2.100966
O	-0.696407	-2.346783	-1.793699
O	0.7363	-1.159536	-2.937188
N	-0.443053	1.086342	-2.239236
H	0.493566	1.466472	-2.172532
H	-1.125686	1.788632	-1.979946
H	-3.061421	0.0	0.0
