17

C	0.0	0.0	0.0
C	-0.657481	-0.03945	-1.364589
Cl	1.796458	0.0	0.0
H	-1.790586	-0.047539	-1.016015
C	-0.373492	1.295858	0.598417
N	-0.557548	2.308025	1.16637
C	-0.455411	-1.112285	0.937658
H	-1.552556	-1.10664	0.906199
H	-0.1003	-0.898002	1.947636
H	-0.06432	-2.071674	0.607537
N	-0.371466	-1.326362	-2.066232
O	-0.812416	-2.36917	-1.571093
O	0.236614	-1.279257	-3.14866
N	-0.331498	1.105297	-2.141523
H	-1.032127	1.237122	-2.859627
H	0.567763	0.980194	-2.592179
H	-2.978239	0.0	0.0
