17

C	0.0	0.0	0.0
C	-0.604367	-0.080133	-1.413201
Cl	1.792402	0.0	0.0
H	-1.703765	-0.173231	-1.176803
C	-0.388946	1.30934	0.547801
N	-0.557734	2.383255	0.994834
C	-0.492766	-1.112112	0.912398
H	-0.14064	-0.936345	1.93107
H	-0.127305	-2.075481	0.559915
H	-1.591805	-1.065176	0.865414
N	-0.127472	-1.336582	-2.068106
O	0.800695	-1.25018	-2.873513
O	-0.68891	-2.388657	-1.754332
N	-0.36043	1.022012	-2.283216
H	-0.999858	1.767043	-2.03732
H	0.596112	1.34904	-2.224973
H	-3.062776	0.0	0.0
