17

C	0.0	0.0	0.0
C	-0.637702	-0.092033	-1.397482
Cl	1.7925	0.0	0.0
H	-1.728495	-0.231943	-1.125732
C	-0.382829	1.311924	0.546148
N	-0.557201	2.386279	0.989705
C	-0.476735	-1.101416	0.936401
H	-0.119788	-2.068408	0.587188
H	-0.101829	-0.912731	1.94419
H	-1.575145	-1.057242	0.9134
N	-0.118601	-1.314034	-2.084203
O	0.725011	-1.169899	-2.970564
O	-0.56345	-2.401967	-1.7113
N	-0.497074	1.036379	-2.253608
H	-1.203168	1.713541	-1.990794
H	0.424249	1.452288	-2.203627
H	-3.062743	0.0	0.0
