15

C	0.0	0.0	0.0
C	-0.593008	-0.135773	-1.426303
Br	1.958613	0.0	0.0
H	-1.638528	0.169574	-1.286892
C	-0.375531	1.296247	0.57227
N	-0.583136	2.348704	1.051563
C	-0.402075	-1.095982	0.881379
N	-0.641908	-1.999256	1.594263
N	-0.466706	-1.528231	-1.849737
H	-0.768519	-1.562274	-2.818522
H	-1.156297	-2.067907	-1.32979
N	0.061893	0.796972	-2.302908
H	0.889	0.375952	-2.710122
H	-0.573211	1.086397	-3.03373
Br	-3.697665	0.0	0.0
