15

C	0.0	0.0	0.0
C	-0.566004	-0.177651	-1.418358
Br	1.972915	0.0	0.0
H	-1.65138	-0.154561	-1.232028
C	-0.380427	1.290656	0.578388
N	-0.572951	2.337557	1.076154
C	-0.38272	-1.106243	0.879729
N	-0.57727	-1.997054	1.621076
N	-0.208526	-1.498345	-1.896533
H	0.678978	-1.483827	-2.385028
H	-0.928143	-1.838722	-2.520963
N	-0.208907	0.98205	-2.208947
H	-0.932734	1.165586	-2.891225
H	0.675736	0.846182	-2.683902
Br	-3.704104	0.0	0.0
