13

C	-0.486346	0.062576	-1.450016
C	0.0	0.0	0.0
Br	-0.216234	-1.698245	-2.289141
H	1.093959	0.0	0.0
H	-1.568157	0.207097	-1.511783
H	-0.354288	-0.901771	0.505769
C	0.270473	1.121217	-2.232854
H	0.042419	2.104242	-1.805046
H	-0.016981	1.122317	-3.286388
H	1.343637	0.941965	-2.126977
C	-0.493187	1.170124	0.713085
N	-0.910216	2.124717	1.258563
H	2.844563	0.0	0.0
