13

C	-0.330791	0.024378	-1.475582
C	0.0	0.0	0.0
Br	-2.272555	0.289712	-1.825738
H	1.096327	0.0	0.0
H	0.131472	0.917397	-1.900325
H	-0.335522	0.909661	0.504763
C	0.167337	-1.213818	-2.186603
H	0.019179	-1.141681	-3.266367
H	1.237841	-1.291196	-1.960672
H	-0.340533	-2.107525	-1.817754
C	-0.522267	-1.166888	0.688175
N	-0.928631	-2.12046	1.242723
H	2.77415	0.0	0.0
