13

C	-0.331357	0.005747	-1.475728
C	0.0	0.0	0.0
Br	-2.273603	0.264768	-1.829161
H	1.096214	0.0	0.0
H	0.130565	0.893402	-1.911801
H	-0.3355	0.916023	0.493063
C	0.167314	-1.241198	-2.171061
H	0.01591	-1.185025	-3.251439
H	-0.337506	-2.130773	-1.788459
H	1.238889	-1.313496	-1.946498
C	-0.522094	-1.1577	0.703088
N	-0.928562	-2.104185	1.269563
H	2.773482	0.0	0.0
