16
Coordinates from ORCA-job run
  C   0.87782124441222      0.55161932821731     -0.09717630016244
  C   0.10022108254506     -0.73971072293969      0.19212380898479
  F   1.83385948533839      0.25357866395531     -1.00952097798227
  H   0.84753835719124     -1.45268835521765      0.54924768078030
  N   -0.08454108175557      1.56012286794541     -0.73757195163332
  O   0.01100096623026      1.73692788796605     -1.93964670554746
  O   -0.89086835944813      2.04442923945167      0.04552592539797
  C   1.49092563045637      1.19833700229171      1.06170500290573
  N   2.05241978733051      1.73190246102977      1.94545086269002
  C   -0.63985565911580     -1.24874597415692     -1.02487104155007
  H   -1.45902160815312     -0.58421846185520     -1.29499063291592
  H   0.04896379553309     -1.33498400253501     -1.86563501492662
  H   -1.05949335177693     -2.23189848115791     -0.81030423014784
  N   -0.82425346786355     -0.53891606007887      1.36918552011583
  O   -0.27776767047132     -0.50141339806342      2.46850968907231
  O   -2.02594915045273     -0.44334199485255      1.14696836491900
