16
Coordinates from ORCA-job run
  C   0.42923132542117      0.71429972000988     -0.43375363058169
  C   -0.13943192971364     -0.45920551817745      0.35764104552241
  F   -0.00142536125023      0.73180463955657     -1.70961266426050
  H   0.31740837393985     -0.46400751550351      1.34811385457339
  N   0.04612578371905      2.05095619668020      0.23116154921858
  O   -0.30897377915804      2.95240041342717     -0.50181614860654
  O   0.18693635342897      2.06059574697040      1.44624139079019
  C   1.89587888155008      0.65266074541025     -0.40250847653042
  N   3.06763785904726      0.56953098218733     -0.37024657018971
  C   0.06851873020900     -1.78051404608890     -0.36418225344321
  H   -0.44623417973918     -1.77410636682019     -1.32554020359439
  H   -0.32566585017985     -2.58887463296935      0.25017779320135
  H   1.13225992923599     -1.95759956985001     -0.53183890676131
  N   -1.61283763309484     -0.26979435793520      0.60769501202762
  O   -2.19025527163601      0.64291956254699      0.02401537378382
  O   -2.11817323177960     -1.08106599944416      1.37345283485042
