16
Coordinates from ORCA-job run
  C   0.80282249245263      0.60103653206321     -0.07016978393926
  C   0.03915739987745     -0.70875565629599      0.15462434529487
  F   1.61949716662284      0.43377623547256     -1.15425947656529
  H   0.74402192748534     -1.38365890726008      0.65369635647383
  N   -0.10521018317443      1.77754889182500     -0.44671964320678
  O   -1.23361347273197      1.51170854807409     -0.83696762891215
  O   0.42735119062369      2.87729219503927     -0.39666929500218
  C   1.62564118938091      0.99532141735263      1.07454189337951
  N   2.34744832601436      1.22833977213373      1.97169562974379
  C   -0.49961267867516     -1.37887391611273     -1.09485017605963
  H   -0.92343355486454     -2.34298462844510     -0.81916754734079
  H   0.31715725930722     -1.54520531216494     -1.79681383744756
  H   -1.26874814293232     -0.77339402126240     -1.56764237263717
  N   -1.04253184674550     -0.47949351359575      1.17997868584196
  O   -0.95789095263508      0.53986554295403      1.86085340583490
  O   -1.89205612000546     -1.35252317977753      1.28786944454194
