16
Coordinates from ORCA-job run
  C   0.53437029148393      0.82784479632776      0.29236960020162
  C   0.17599043747619     -0.65131009268158      0.18179201910907
  F   1.37818926906369      1.01233596893438      1.33233363453384
  H   1.10974303526605     -1.19524810157878      0.02016303620313
  N   1.32661646153365      1.15422036640835     -0.99314287984536
  O   0.67421796288735      1.55869836163184     -1.94625823390028
  O   2.52355493320747      0.92052672936062     -0.94240479964349
  C   -0.59521739289663      1.75047980421065      0.36946326301602
  N   -1.49336191765205      2.50712952777566      0.40719003989062
  C   -0.87473090650867     -0.97008694599545     -0.86507640015605
  H   -1.06883167539746     -2.04363573791085     -0.85647806907902
  H   -0.52924589663635     -0.68882405116731     -1.85971948164587
  H   -1.80195180345822     -0.43562161938672     -0.65066508102239
  N   -0.32086214905619     -1.12354663832099      1.52044303603319
  O   -1.05071470054074     -0.36480776112399      2.14979760546075
  O   0.01023405122798     -2.25915460648358      1.84219271084420
