16
Coordinates from ORCA-job run
  C   0.78111942500453      0.65149762923496      0.09097415649737
  C   0.07361388206186     -0.67794432817823     -0.16149486840297
  F   2.08332378956354      0.42035738288849      0.37361590951057
  H   0.56208197409484     -1.14186733305551     -1.02150691429822
  N   0.73557208652823      1.40540861301872     -1.25456085777698
  O   1.64944691596535      1.15880910773516     -2.02487471632009
  O   -0.23581097292870      2.12692042866449     -1.43785290793975
  C   0.17818215175795      1.50911446188316      1.10795406449600
  N   -0.29981504572506      2.22096734778554      1.91130752983378
  C   -1.43027884060517     -0.57082463879951     -0.32173801520115
  H   -1.87845195696419     -0.13742120742361      0.57371693600099
  H   -1.84389889103024     -1.56781691324155     -0.48229065476178
  H   -1.68487118823369      0.05099617005511     -1.17995315117706
  N   0.37701618482790     -1.58929653291122      0.99487014320706
  O   0.20216228737915     -1.13131822918730      2.11971482522783
  O   0.73060819830371     -2.72858195846868      0.71211852110442
