16
Coordinates from ORCA-job run
  C   0.61036501299975      0.77454485206782      0.27219371250181
  C   0.11691360374987     -0.66726407612127      0.17637850786773
  F   1.47585741504752      0.88536967189125      1.30512575003385
  H   0.99354539214260     -1.29383237966905     -0.00397421295893
  N   1.41462292752706      1.02200876261451     -1.02145772660362
  O   0.78522866520176      1.46127628307498     -1.97480074833152
  O   2.59090729129866      0.69966169497471     -0.97724307550843
  C   -0.42930920802706      1.79687934644468      0.35761187629666
  N   -1.25168683671882      2.63458440321377      0.40833510924227
  C   -0.98616570777703     -0.89026761586111     -0.83995644514485
  H   -0.64233407356718     -0.64316998110680     -1.84440289676713
  H   -1.85429041823128     -0.27307775819870     -0.60247096085303
  H   -1.27840107560606     -1.94150416058855     -0.82342449836593
  N   -0.38172775024433     -1.07967652482484      1.53334520154239
  O   -1.12855472656223     -0.29674971484658      2.11175946534273
  O   -0.03497051123324     -2.18878280306484      1.92398094170597
