16
Coordinates from ORCA-job run
  C   0.49504690064728      0.72511153053724     -0.33237901722415
  C   -0.19884250567524     -0.46912640611491      0.31478429117348
  F   0.28666968854483      0.78285043018525     -1.66170060497511
  H   0.08141501284122     -0.50517199003464      1.36832979679538
  N   0.00434211423247      2.04289179980963      0.29831695455187
  O   -0.22222348335528      2.96764016265888     -0.45630740054851
  O   -0.06107732697718      2.01562909398970      1.51958694025357
  C   1.93539515404767      0.65639917129954     -0.05578525818175
  N   3.08546184016222      0.56749240757393      0.16875562816475
  C   0.13198105861827     -1.76940852925571     -0.39934120531518
  H   -0.36286322426095     -2.59353545129072      0.11266938573335
  H   -0.20701546033406     -1.73220428155936     -1.43513818311138
  H   1.20876399165022     -1.94660771383113     -0.38371359036363
  N   -1.69372240473120     -0.28112471919169      0.31452928834141
  O   -2.32198427488472     -1.11412018777732      0.95577156971203
  O   -2.16334708052556      0.65328468300134     -0.32837859500614
