16
Coordinates from ORCA-job run
  C   0.83817370116957      0.59758201059175     -0.12816541212720
  C   0.10153403561672     -0.70248197254599      0.21501198310147
  F   1.80650357082873      0.26578679764549     -1.03007372187306
  H   0.87251766043694     -1.36862954722832      0.61130554394377
  N   -0.03285667245696      1.64712679663477     -0.83054146708824
  O   -0.42658422468834      1.31388810607073     -1.93982826964778
  O   -0.22041248152270      2.70820682204991     -0.25547387616926
  C   1.45421375534085      1.20273714972232      1.05367634770396
  N   1.99836736844027      1.60215326488312      2.01535872916676
  C   -0.64084466988509     -1.37271792504607     -0.92852784226118
  H   -1.51707713464673     -0.79687049285960     -1.22221836009620
  H   0.01694110491704     -1.47466940834553     -1.79092153655709
  H   -0.95186342906003     -2.36479584993204     -0.59710333189167
  N   -0.85158407758962     -0.47044259447528      1.34355264212908
  O   -1.01745255054117     -1.40352204654032      2.12027501829466
  O   -1.42757595635949      0.61564888937505      1.36267355337198
