16
Coordinates from ORCA-job run
  C   0.41256537316058      0.72767969431830     -0.35554502798389
  C   -0.23396896457394     -0.46615665935016      0.34745579324379
  F   -0.16594483512476      0.93152975665968     -1.55884104665894
  H   0.05009314575101     -0.43109175471361      1.40130928186174
  N   0.23883127960180      2.00934428580637      0.48756536115080
  O   0.73544324071889      1.93848109214710      1.60095894333901
  O   -0.34088366030414      2.94175940451589     -0.03449739347695
  C   1.85620054512542      0.53599142166884     -0.50984105662784
  N   3.01030635305816      0.36087155738771     -0.64557401618462
  C   0.11164664905790     -1.78435450327295     -0.30932495379964
  H   1.17662975917137     -1.98872735301748     -0.18790706373670
  H   -0.13745249553715     -1.77013527151685     -1.37000177309466
  H   -0.45073909384909     -2.58933293559381      0.16202143904629
  N   -1.72610552448910     -0.20985865590349      0.32468035141151
  O   -2.09896189999086      0.77939709121972      0.94987087151617
  O   -2.43765987177610     -0.98439717035525     -0.30232971000607
