16
Coordinates from ORCA-job run
  C   0.35743111287511      0.76303734028840     -0.34043142284647
  C   -0.19322884740879     -0.49256702383691      0.33590715560264
  F   -0.27862800363628      0.98097250490755     -1.51179677066669
  H   0.13219057385402     -0.48397643766352      1.37826706315529
  N   0.14588373408918      1.99869697252482      0.56137414100442
  O   -0.50433505592994      2.91647716238597      0.10003156970047
  O   0.68840552267608      1.91217640899346      1.65192927326230
  C   1.80241319817757      0.66078843260592     -0.55555617713702
  N   2.95851580899978      0.55748303890740     -0.73940192565373
  C   0.19648395684214     -1.76163760954977     -0.38948730169243
  H   1.27544298413926     -1.90918062012133     -0.32090977650390
  H   -0.09904882575077     -1.71945490213658     -1.43738300102823
  H   -0.29912530268327     -2.61572542791458      0.07023489533011
  N   -1.69688008474045     -0.32060642459156      0.38247875137669
  O   -2.39013114103326     -1.10882279363920     -0.24794939892948
  O   -2.09738963047038      0.62033937883993      1.06269292502603
