16
Coordinates from ORCA-job run
  C   0.58933088199009      0.80794603082158      0.21853669675960
  C   0.23261770633457     -0.66010732047398     -0.00050472596399
  F   1.73331051862526      0.89066887975996      0.93490651713994
  H   1.05795995323010     -1.10982366666091     -0.55741507203326
  N   0.89367591025908      1.37128315391465     -1.18598939327609
  O   2.04029050202634      1.21670038994815     -1.57443549718976
  O   -0.05075469996487      1.86199263942918     -1.79030219804922
  C   -0.45592065269458      1.63361107235922      0.81764366721224
  N   -1.28986734974706      2.31839960018107      1.28262366410604
  C   -1.11504827723753     -0.88974350077566     -0.65679944188964
  H   -1.28237854044579     -1.96307188632941     -0.76019373432120
  H   -1.14502923428334     -0.43816211604683     -1.64838247430749
  H   -1.91291055985214     -0.45938253178888     -0.04925042060838
  N   0.24505194902391     -1.34919055124327      1.33553359891325
  O   -0.32441265502244     -0.77899760688525      2.26078761341872
  O   0.78308454775839     -2.45012258620961      1.37124120008923
