16
Coordinates from ORCA-job run
  C   0.88376239989595      0.53725041692128     -0.11293328205739
  C   0.09020317398638     -0.73991351491884      0.19557739018380
  F   1.81938443909516      0.21983448747045     -1.03958912793116
  H   0.83016139553907     -1.46193098082180      0.54957977452607
  N   -0.07127417660714      1.56024769593423     -0.74063241333671
  O   0.00835899190755      1.73235504447681     -1.94451473907488
  O   -0.85497965178834      2.06256222183933      0.05396495532617
  C   1.52701741918492      1.17736533477156      1.03350312229239
  N   2.11237864893535      1.70366713084251      1.90604804758071
  C   -0.67012073817826     -1.24821266697895     -1.00914289691195
  H   0.01121661923923     -1.36117697827199     -1.85315150275222
  H   -1.47722381728569     -0.57065747428616     -1.28371516474829
  H   -1.10819686170495     -2.21960338937257     -0.77846568933456
  N   -0.81812366526156     -0.51465649173307      1.38011322758032
  O   -2.01990135366445     -0.39808867216576      1.16846337883387
  O   -0.26066282329323     -0.47904216370703      2.47389491982381
