16
Coordinates from ORCA-job run
  C   0.43311170625936      0.75377355588546     -0.26441161671650
  C   -0.25909656921447     -0.49173474509866      0.28942285619668
  F   -0.05658749022530      1.05766959501159     -1.48598199410949
  H   -0.05297326314814     -0.54265980677215      1.36068409904667
  N   0.19879949310620      1.96443020503484      0.66535365996098
  O   0.59675915557835      1.79344790989865      1.80716268220423
  O   -0.32043941909604      2.94775450208265      0.17456210996610
  C   1.88486327953676      0.57054048921294     -0.32849177260016
  N   3.04636740010788      0.40356154368331     -0.39159199945025
  C   0.14039274480470     -1.75318786892320     -0.44404906167853
  H   -0.03752114292442     -1.65543167574685     -1.51470147798078
  H   1.19650107929864     -1.96349694937604     -0.26834944866803
  H   -0.44553650700121     -2.59453241951909     -0.07673470314003
  N   -1.74718889522233     -0.23362771077448      0.17867887159856
  O   -2.41542111492136     -0.98428190927867     -0.52071425875392
  O   -2.16303045693861      0.72877528467971      0.81816205412447
