16
Coordinates from ORCA-job run
  C   0.87555755209355      0.55574028260047     -0.08799410997097
  C   0.10128595873164     -0.73998323724072      0.18992987367654
  F   1.83886091304732      0.26635291084724     -0.99548562039027
  H   0.84836695035906     -1.45212569643077      0.54897837097021
  N   -0.08647237730956      1.56371234169603     -0.72886553006002
  O   -0.89812770437687      2.04246995898595      0.05221789838721
  O   0.01476067972712      1.74661372850384     -1.92962410913659
  C   1.47867167986621      1.19889549902102      1.07829405177326
  N   2.03201739676484      1.73143386120548      1.96782156655151
  C   -0.62570596264353     -1.24811182072187     -1.03540606845016
  H   -1.04351581030893     -2.23345514405460     -0.82736493567806
  H   -1.44457120816420     -0.58627675893026     -1.31366878573682
  H   0.07271976009713     -1.33086889020327     -1.86882488380127
  N   -0.83320392431065     -0.54801207514691      1.35967747220701
  O   -0.29639612948256     -0.51308801330402      2.46383625734127
  O   -2.03324777409057     -0.45529694682759      1.12747855231713
