16
Coordinates from ORCA-job run
  C   0.42864090750094      0.77388210767536     -0.21058256425594
  C   -0.25026229806058     -0.51463894829252      0.25466570095029
  F   -0.06356792056731      1.15604574862934     -1.40861347044315
  H   -0.04135783047004     -0.64106206013202      1.31892890861952
  N   0.17438347437493      1.91149813893205      0.80155558759480
  O   0.59277464283957      1.67600890636240      1.92436720446332
  O   -0.38407092426962      2.90826815014036      0.38580027781891
  C   1.88233017386672      0.61205112173946     -0.28426871873927
  N   3.04543786898665      0.46180399089636     -0.35905826094038
  C   0.15621831507519     -1.71635659199077     -0.56942281459718
  H   -0.01765467536912     -1.54016696519871     -1.63057846018660
  H   -0.42890001527481     -2.58422146572018     -0.26753288405625
  H   1.21229374178961     -1.93629866381262     -0.40461578411812
  N   -1.74015697243923     -0.25988105143014      0.16494944093618
  O   -2.17097625218841      0.60981175654880      0.91775648412298
  O   -2.39313223579449     -0.91774417434716     -0.63535064716911
