16
Coordinates from ORCA-job run
  C   0.90118209072281      0.50815807383000     -0.11221988869740
  C   0.06530730572993     -0.73379056833886      0.22680014380316
  F   1.85058962993034      0.12784329855343     -1.00077571099772
  H   0.77721906825693     -1.46207879591248      0.62289879954771
  N   -0.01004729230142      1.52795736793022     -0.80593546028836
  O   -0.80009746540294      2.08198492891959     -0.05283522243322
  O   0.10285734071794      1.64685199138485     -2.01357638709397
  C   1.53354113426561      1.17899086482131      1.02253184220938
  N   2.11086636338504      1.72794238847365      1.88651484759627
  C   -0.68427801861107     -1.26561779119270     -0.97460034781264
  H   0.01031069019942     -1.42395947801930     -1.80039796582672
  H   -1.15096591405506     -2.21747478092186     -0.71993397172641
  H   -1.46902878065053     -0.57868390973205     -1.28818814507779
  N   -0.85972847973926     -0.43965600094662      1.38266924898420
  O   -2.05378192500342     -0.30071279746451      1.14239147585082
  O   -0.32294574744434     -0.37775479138470      2.48565674196270
