16
Coordinates from ORCA-job run
  C   0.41753680973235      0.74842799109340     -0.30016275765316
  C   -0.25050248180033     -0.48307438152587      0.31107481842109
  F   -0.10470771963117      1.00890046022930     -1.51829964180101
  H   -0.01937319857317     -0.49644636270203      1.37857050215400
  N   0.20275901280529      1.98949487822732      0.59421425892337
  O   -0.30502326650287      2.96433095920216      0.07608209863587
  O   0.60959270840770      1.84998601377947      1.73710649541742
  C   1.86878111588876      0.57306079828377     -0.39484810752530
  N   3.03028435939490      0.41457129570896     -0.47774711027319
  C   0.14502289960322     -1.76570471827731     -0.38742199713245
  H   1.20890965083424     -1.95537378907299     -0.23651188286172
  H   -0.06566102295388     -1.70989515874618     -1.45532216134751
  H   -0.41733410727865     -2.60045472233115      0.02816600253761
  N   -1.74411283096501     -0.24444607861223      0.22723734645907
  O   -2.14874501516924      0.76701472301747      0.79375845793952
  O   -2.42842691379212     -1.06039190827408     -0.37689632189361
