16
Coordinates from ORCA-job run
  C   0.74412115871567      0.66342049667529     -0.22169853451491
  C   -0.16127334229390     -0.55377299498858     -0.39735998577378
  F   1.85438029028823      0.50935879519071     -0.97820884683190
  H   -0.43585113046290     -0.59739925982127     -1.45388929900047
  N   -0.04438595534978      1.85242441238209     -0.81048816510355
  O   -0.76609914457128      2.46208572660146     -0.03248242740533
  O   0.08948377069442      2.02696856030615     -2.01091002767628
  C   1.10029514519686      0.99738064144246      1.15488874381354
  N   1.38375202493538      1.29297424685800      2.25616277705811
  C   -1.36169644242108     -0.58545894459535      0.52808397516756
  H   -2.00858185702136      0.27399086627331      0.35238097364496
  H   -1.93505135901336     -1.49428299042040      0.33802867129992
  H   -1.03906605227676     -0.57729389226169      1.57039961076107
  N   0.66972680601935     -1.78411900017042     -0.16157243402554
  O   1.35001946210308     -1.80374079637204      0.85931373789667
  O   0.56122662545744     -2.68153586709972     -0.98964876931007
