16
Coordinates from ORCA-job run
  C   0.58420101201274      0.79421609364542      0.27060946259176
  C   0.17876856941625     -0.66864336947395      0.10638624513879
  F   1.54754647369334      0.88991181621279      1.21480370991668
  H   1.06970903600936     -1.21324275383115     -0.21480184724937
  N   1.22546141334458      1.19766366473413     -1.07410728646925
  O   2.41836245889713      0.96177428189202     -1.17761296648696
  O   0.46836988711510      1.65801916527186     -1.91829593069590
  C   -0.50411981397107      1.72797327507534      0.54765383564736
  N   -1.36777711213014      2.49769953600971      0.75307015762159
  C   -1.01227035090551     -0.89451318113162     -0.80450158573087
  H   -1.23243047399523     -1.96259859052338     -0.84465499819025
  H   -0.79805562989260     -0.54768209059549     -1.81540119032764
  H   -1.88693838457256     -0.36245144164097     -0.42679030539363
  N   -0.14077730759499     -1.21737057429244      1.46910995787769
  O   0.33507298823106     -2.31475294304533      1.73792285955665
  O   -0.88612276565746     -0.54600288830694      2.17560988219335
