16
Coordinates from ORCA-job run
  C   0.24730380478036      0.96401616659276      0.23367992320069
  C   0.25120301874340     -0.55910923439589      0.33905756913214
  F   0.69576006507694      1.49559510198116      1.39369002604697
  H   1.28540791094004     -0.86562340684668      0.51223457677874
  N   1.28718048239528      1.30486882017819     -0.85385717366084
  O   2.43789890784638      1.41572131455155     -0.46268539976109
  O   0.86733891973736      1.37409025445792     -2.00137530599396
  C   -1.02360478781966      1.57085894124783     -0.15319211076383
  N   -2.03170018815020      2.07798428782204     -0.48051600338458
  C   -0.38805899418637     -1.27348277154929     -0.83585863359572
  H   -0.34868364085107     -2.35037190666083     -0.66375813269818
  H   -1.42930235456667     -0.96661471979683     -0.94713160080923
  H   0.14529155253919     -1.05236356684597     -1.76036491179202
  N   -0.48113570553154     -0.94038001607215      1.59550150931261
  O   -1.56983926878698     -0.40749558002277      1.78538366230396
  O   0.05394027783353     -1.78969368464104      2.29919200568431
