16
Coordinates from ORCA-job run
  C   0.28880211953084      0.96153698713933      0.17321519790970
  C   0.03282553046045     -0.51138607662836      0.48183837932771
  F   0.38849964179400      1.65150492037338      1.33290923975615
  H   0.88347207168707     -0.86573497678789      1.06814389752753
  N   1.67545269740884      1.00577261698151     -0.50193129990374
  O   2.62614259891357      1.03034902614539      0.26348165873842
  O   1.68829809717000      0.95576905903814     -1.72457285701889
  C   -0.67247928176573      1.59996441476825     -0.72193673762349
  N   -1.42816716507098      2.13006634809109     -1.44885888852741
  C   -0.24657950745658     -1.36647460778384     -0.73796600877440
  H   -1.11949163602299     -0.99229187743964     -1.27459070257417
  H   0.60963334699210     -1.36837451693955     -1.41282155707995
  H   -0.43596747415971     -2.39320266314206     -0.42030311475757
  N   -1.14096447056389     -0.58472071696874      1.41817441151528
  O   -2.16935425548142     -0.02160088938035      1.05651444534678
  O   -0.98112231343558     -1.23317704746667      2.44670393613802
