16
Coordinates from ORCA-job run
  C   0.80747037568759      0.61640450421706      0.12749716442601
  C   0.04231169346665     -0.69774456026272     -0.01058135389780
  F   2.00470091815231      0.38046756357304      0.71009925565256
  H   0.64141258203895     -1.35182087250111     -0.64846845224543
  N   1.08927317551738      1.08028104774272     -1.31692913765798
  O   0.24360609034922      1.80217767239274     -1.82869528057512
  O   2.10435989565411      0.62985045468392     -1.82336009669190
  C   0.10098332084196      1.69314684904167      0.81626264382958
  N   -0.45838786988484      2.57649050359434      1.35244330401758
  C   -1.38640243646837     -0.54786347318932     -0.49621826388281
  H   -1.41303624256631     -0.09703688779589     -1.48816668574617
  H   -1.95854196448114      0.07763862073769      0.19089605462265
  H   -1.84829069235971     -1.53491361063724     -0.55230944973416
  N   0.02940231022068     -1.37296889601661      1.33235388569545
  O   0.27701267742651     -2.57366454088080      1.33771145687421
  O   -0.27487383359498     -0.68044437469951      2.29846495531333
