16
Coordinates from ORCA-job run
  C   0.25392980219480      0.98250610742619      0.12255870397885
  C   -0.17284179605500     -0.42627395951038      0.52785321016008
  F   -0.05443579843341      1.84816784472114      1.11475206075549
  H   0.38795482544403     -0.68372169240718      1.42956623794965
  N   1.79335121608649      0.93561814085348      0.02410794851703
  O   2.39187538554255      1.14165969190989      1.06744272123747
  O   2.25701149636386      0.64335106534788     -1.07009776922993
  C   -0.26416260612761      1.45951736354461     -1.15709098234129
  N   -0.65692675457578      1.85501856061331     -2.19144660817395
  C   -0.03639675682097     -1.46604478609900     -0.56768683799419
  H   1.00314415077254     -1.56506209386087     -0.87995234421041
  H   -0.37709243391477     -2.43045805114436     -0.18736751964883
  H   -0.64042540774549     -1.18894673519441     -1.43320250866640
  N   -1.60922901632739     -0.36790344137095      0.96666140455208
  O   -2.39082062729282      0.22072498534355      0.22627740815592
  O   -1.88393567911102     -0.95615300017291      2.00662487495844
