16
Coordinates from ORCA-job run
  C   0.67207973008283      0.76014387766068      0.12269003460223
  C   0.17693768189245     -0.67746708702412     -0.01677178041938
  F   1.89818527071659      0.75924753722837      0.69328073523183
  H   0.88696678443968     -1.19848027719781     -0.66323979177094
  N   0.84399347840399      1.27899532088164     -1.32043136832005
  O   1.92323916386169      1.04075448765067     -1.83795019335480
  O   -0.13134016170617      1.82436402054807     -1.81945050209990
  C   -0.22279135523941      1.67523887357654      0.82627706354447
  N   -0.93563796268125      2.43026092841399      1.37616193905842
  C   -1.25839472962770     -0.80660104502925     -0.48812194480969
  H   -1.38327254268532     -0.36534848382199     -1.47681950345497
  H   -1.52135393421152     -1.86417585076339     -0.54504529554046
  H   -1.93338529160173     -0.30730734203148      0.20880544344215
  N   0.31007262544107     -1.34612404187202      1.32316525073970
  O   0.80717630968579     -2.46676737086434      1.32419430676808
  O   -0.13147506677099     -0.73673354735556      2.29225560638332
