15

C	0.0	0.0	0.0
C	-0.288232	-0.016058	-1.514308
F	1.374877	0.0	0.0
H	0.500258	0.609023	-1.938369
H	-0.390988	-0.873805	0.517248
C	-0.452543	1.256398	0.606558
N	-0.731078	2.300192	1.065907
C	-1.620733	0.401821	-2.09045
H	-1.522413	0.413255	-3.179232
H	-1.865651	1.408533	-1.749868
H	-2.44267	-0.236598	-1.772362
N	0.05949	-1.393575	-2.016646
O	0.525743	-1.451793	-3.153129
O	-0.175576	-2.361496	-1.299115
Br	-4.245532	0.0	0.0
