15

C	0.0	0.0	0.0
C	-0.473178	-0.31782	-1.417998
F	1.368404	0.0	0.0
H	-1.524708	-0.02287	-1.479009
H	-0.384292	-0.764098	0.677529
C	-0.399802	1.332991	0.490968
N	-0.510794	2.414721	0.93127
C	-0.2756	-1.779408	-1.748278
H	-0.480298	-1.972155	-2.799437
H	-0.986359	-2.348521	-1.148203
H	0.744586	-2.098594	-1.533404
N	0.304318	0.568585	-2.345726
O	1.227148	0.080107	-3.000729
O	-0.023037	1.754401	-2.366035
Br	-3.490094	0.0	0.0
