15

C	0.0	0.0	0.0
C	-0.477661	0.263924	-1.417942
F	1.363607	0.0	0.0
H	0.057738	1.133149	-1.80673
H	-0.360707	-0.967358	0.352751
C	-0.447788	1.080246	0.893497
N	-0.710149	1.976539	1.604499
C	-1.981162	0.404953	-1.560425
H	-2.53535	-0.410771	-1.095858
H	-2.240969	0.446939	-2.619505
H	-2.333607	1.314628	-1.076246
N	-0.005357	-0.875387	-2.277082
O	0.300785	-0.59505	-3.433216
O	-0.006868	-2.005679	-1.795535
Br	-5.033717	0.0	0.0
