15

C	0.0	0.0	0.0
C	-0.49097	0.000565	-1.448857
F	1.377744	0.0	0.0
H	-1.499158	0.423845	-1.457288
H	-0.37099	-0.896294	0.498968
C	-0.398202	1.183226	0.784188
N	-0.527896	2.116422	1.484326
C	-0.484529	-1.388369	-2.041642
H	-1.266559	-1.954557	-1.532398
H	-0.718278	-1.356135	-3.10563
H	0.485316	-1.873658	-1.914213
N	0.390564	0.942943	-2.215899
O	0.356248	2.122838	-1.873186
O	1.086573	0.496575	-3.127631
Br	-3.468551	0.0	0.0
