13

C	0.0	0.0	0.0
C	-0.270707	-0.002326	-1.617438
F	1.346982	0.0	0.0
H	-1.387997	-0.002667	-1.811398
H	0.073917	0.948282	-1.973951
C	-0.370597	1.189711	0.784729
N	-0.665116	2.13742	1.409527
N	-0.283387	-1.588645	0.821743
O	-1.357221	-2.19134	1.274472
O	0.849429	-2.107068	1.079588
C	0.213498	-1.181663	-2.224929
N	0.416035	-2.192187	-2.7844
Br	-3.058235	0.0	0.0
