13

C	0.0	0.0	0.0
C	-0.540213	-0.069911	-1.416108
F	1.346814	0.0	0.0
H	-1.608714	-0.331445	-1.340084
H	-0.487223	0.935148	-1.844645
C	-0.466915	1.192925	0.715813
N	-0.680406	2.223038	1.238519
N	-0.372817	-1.245632	0.803643
O	-0.596516	-2.259779	0.159533
O	-0.288417	-1.142658	2.020022
C	0.220063	-0.986297	-2.256441
N	0.832482	-1.678915	-2.979292
Br	-3.533973	0.0	0.0
