17

C	0.0	0.0	0.0
C	-0.379012	-0.002198	-1.510985
F	1.402101	0.0	0.0
H	0.492146	0.437491	-2.00263
N	-0.488551	1.235928	0.52376
H	-1.521716	1.051513	0.489325
H	-0.203546	1.282839	1.498553
C	-0.40958	-1.24971	0.757225
H	0.054274	-2.143713	0.334765
H	-0.056278	-1.137581	1.787399
H	-1.499814	-1.279273	0.72197
C	-1.552707	0.747362	-1.956611
N	-2.239899	1.443747	-2.607874
N	-0.425691	-1.40698	-2.046868
O	0.667898	-1.965405	-2.149096
O	-1.50865	-1.911235	-2.317556
F	-2.716029	0.0	0.0
