17

C	0.0	0.0	0.0
C	-0.503264	-0.053302	-1.47152
F	1.392654	0.0	0.0
H	-1.604841	0.070224	-1.314087
N	-0.499133	1.127343	0.711942
H	-0.322256	1.974426	0.183295
H	-1.523292	0.951451	0.682787
C	-0.433201	-1.271635	0.708977
H	-0.167539	-1.142268	1.760116
H	-1.515176	-1.355847	0.6061
H	0.098833	-2.134146	0.304423
C	-0.161335	-1.28908	-2.157574
N	0.086719	-2.308912	-2.685493
N	0.087228	1.089526	-2.231783
O	1.047402	0.872375	-2.970457
O	-0.399004	2.201955	-2.024649
F	-2.825439	0.0	0.0
