17

C	0.0	0.0	0.0
C	-0.503189	-0.053257	-1.471598
F	1.392524	0.0	0.0
H	-1.604772	0.070188	-1.314298
N	-0.499295	1.127314	0.711887
H	-0.322602	1.974424	0.183223
H	-1.52342	0.951218	0.682744
C	-0.43337	-1.271679	0.708823
H	-1.515194	-1.356506	0.604878
H	0.099657	-2.133988	0.305158
H	-0.169077	-1.141835	1.760252
C	-0.160928	-1.288968	-2.157605
N	0.088348	-2.308933	-2.684699
N	0.087131	1.089714	-2.231792
O	-0.399509	2.202002	-2.024855
O	1.047661	0.87282	-2.970071
F	-2.825538	0.0	0.0
