17

C	0.0	0.0	0.0
C	-0.557138	-0.591381	-1.301921
F	1.408845	0.0	0.0
H	-1.664188	-0.490738	-1.127054
N	-0.488538	1.338554	0.076444
H	-0.238481	1.701703	0.992402
H	-1.517226	1.193559	0.065384
C	-0.405714	-0.896838	1.161156
H	0.043124	-1.889084	1.080022
H	-0.046876	-0.425301	2.080106
H	-1.494766	-0.935399	1.156289
C	-0.140473	-1.967937	-1.536946
N	0.11103	-3.105333	-1.714516
N	-0.147085	0.249703	-2.470806
O	-0.938548	1.122371	-2.837019
O	0.957611	0.016713	-2.982208
F	-2.846293	0.0	0.0
