17

C	0.0	0.0	0.0
C	-0.625151	0.085938	-1.406546
F	1.400972	0.0	0.0
H	-1.743954	0.030941	-1.105862
N	-0.392619	1.221453	0.660129
H	-1.268683	1.073975	1.148811
H	0.360813	1.554214	1.257874
C	-0.468298	-1.254535	0.692534
H	-0.125629	-2.152693	0.156749
H	-0.002281	-1.27885	1.688759
H	-1.556183	-1.206241	0.739579
C	-0.219659	-0.969669	-2.318538
N	0.133118	-1.820203	-3.048799
N	-0.409828	1.406656	-2.063987
O	-1.282859	1.769697	-2.8577
O	0.603779	2.065238	-1.824044
F	-2.867227	0.0	0.0
