17

C	0.0	0.0	0.0
C	-0.563852	-0.060256	-1.429944
F	1.386364	0.0	0.0
H	-1.670255	-0.066819	-1.240753
N	-0.494269	1.223088	0.558977
H	-0.234837	1.236873	1.540888
H	-1.522531	1.081056	0.505262
C	-0.423912	-1.258238	0.746329
H	-0.003026	-2.157191	0.288546
H	-1.515565	-1.265855	0.739492
H	-0.043661	-1.182539	1.770284
C	-0.081817	-1.211002	-2.17574
N	0.270853	-2.162374	-2.767582
N	-0.18808	1.183472	-2.178903
O	0.969894	1.266543	-2.587006
O	-1.054505	2.040492	-2.31769
F	-2.859578	0.0	0.0
