14

C	0.0	0.0	0.0
C	-0.523639	-0.091137	-1.441542
Br	1.939813	0.0	0.0
H	-1.625959	-0.160604	-1.311978
H	-0.313765	-0.909391	0.509012
N	-0.483489	1.138305	0.715783
H	-1.497756	1.019302	0.79149
H	-0.292959	1.988489	0.19603
N	-0.097134	-1.34807	-2.138314
O	0.151613	-1.290284	-3.340551
O	-0.08006	-2.364719	-1.452716
C	-0.175907	1.076499	-2.235406
N	0.085094	2.070457	-2.804006
Cl	-3.442519	0.0	0.0
