16

C	0.0	0.0	0.0
C	-0.480396	0.156905	-1.429844
F	1.411323	0.0	0.0
H	-0.11793	1.125203	-1.796168
H	-1.5726	0.205278	-1.382582
N	-0.41681	1.134064	0.775721
H	-0.063439	1.04686	1.721774
H	-0.047165	1.98481	0.36828
N	-0.446669	-1.243495	0.549669
H	-0.175868	-1.290775	1.526759
H	-1.46845	-1.203899	0.519885
C	-0.003144	-0.963761	-2.34304
H	-0.360995	-0.803677	-3.364208
H	1.088482	-1.014582	-2.361426
H	-0.381226	-1.924058	-1.991934
Br	-4.029617	0.0	0.0
