16

C	0.0	0.0	0.0
C	-0.419304	-0.17471	-1.4568
F	1.394424	0.0	0.0
H	0.00962	-1.126939	-1.792844
H	-1.50725	-0.273569	-1.470907
N	-0.455172	1.258958	0.505822
H	-1.461555	1.297632	0.340166
H	-0.325389	1.236632	1.512653
N	-0.397034	-1.085353	0.870812
H	-1.416229	-1.058383	0.906579
H	-0.132814	-1.967783	0.443424
C	0.041768	0.95885	-2.365534
H	-0.225791	0.753101	-3.406719
H	1.124627	1.08673	-2.303823
H	-0.424837	1.898737	-2.070264
Br	-3.817258	0.0	0.0
