16

C	0.0	0.0	0.0
C	-0.419305	0.174714	-1.456798
F	1.394428	0.0	0.0
H	-1.507251	0.273569	-1.470903
H	0.009615	1.126944	-1.792841
N	-0.397031	1.085352	0.870815
H	-1.416226	1.058387	0.906582
H	-0.132806	1.967782	0.443429
N	-0.45517	-1.258959	0.505821
H	-1.461553	-1.297634	0.340163
H	-0.325391	-1.236631	1.512653
C	0.041768	-0.958843	-2.365537
H	-0.424825	-1.898734	-2.07026
H	-0.225805	-0.753097	-3.406718
H	1.124629	-1.086713	-2.303837
Br	-3.817259	0.0	0.0
