16

C	0.0	0.0	0.0
C	-0.388928	0.314197	-1.438335
F	1.411965	0.0	0.0
H	0.017085	1.308546	-1.645037
H	0.172538	-0.389466	-2.064999
N	-0.424302	1.03202	0.900342
H	-0.241344	0.743433	1.855795
H	-1.431644	1.119838	0.807621
N	-0.46023	-1.299881	0.376006
H	-0.173049	-1.520911	1.322741
H	-0.087781	-2.000625	-0.253445
C	-1.877579	0.238343	-1.753985
H	-2.483064	0.937595	-1.177247
H	-2.292887	-0.744534	-1.540289
H	-2.038364	0.462176	-2.814009
Br	-5.140691	0.0	0.0
