16

C	0.0	0.0	0.0
C	-0.480153	-0.101447	-1.431741
F	1.443115	0.0	0.0
H	-1.573401	-0.041486	-1.391817
H	-0.114676	0.783256	-1.968563
N	-0.396412	1.255483	0.565642
H	-0.091139	2.011078	-0.034717
H	0.038108	1.368539	1.473796
N	-0.435037	-1.126098	0.765164
H	-1.457575	-1.104168	0.713342
H	-0.188753	-0.978159	1.739937
C	-0.009547	-1.369317	-2.129818
H	-0.367167	-1.390958	-3.162968
H	1.081041	-1.427543	-2.13693
H	-0.39283	-2.249968	-1.615449
Br	-3.980102	0.0	0.0
