16

C	0.0	0.0	0.0
C	-0.432891	0.547541	-1.351194
F	1.416248	0.0	0.0
H	0.052299	1.523759	-1.471747
H	-1.514245	0.691676	-1.284328
N	-0.447864	0.766259	1.129288
H	-1.463217	0.64212	1.142449
H	-0.267264	1.747408	0.948411
N	-0.452553	-1.330758	0.192375
H	0.003635	-1.959753	-0.452617
H	-0.25275	-1.606787	1.144925
C	-0.093414	-0.361123	-2.528493
H	0.9612	-0.651281	-2.513381
H	-0.715115	-1.258766	-2.497524
H	-0.295441	0.141742	-3.478406
Br	-3.976746	0.0	0.0
