16

C	0.0	0.0	0.0
C	-0.419474	-0.397217	-1.413361
F	1.397715	0.0	0.0
H	-1.509948	-0.349461	-1.455053
H	-0.013843	0.366307	-2.084398
N	-0.449529	1.332319	0.268405
H	-1.451505	1.353056	0.079536
H	-0.33968	1.483934	1.266386
N	-0.392818	-0.901558	1.060117
H	-0.089928	-1.844534	0.843683
H	-1.412445	-0.894431	1.07995
C	0.072237	-1.779239	-1.827139
H	1.151189	-1.872514	-1.680535
H	-0.144934	-1.963478	-2.882615
H	-0.428446	-2.566048	-1.256386
Br	-3.817789	0.0	0.0
