16

C	0.0	0.0	0.0
C	-0.407818	0.367709	-1.427087
F	1.397715	0.0	0.0
H	-0.03671	-0.434059	-2.073102
H	-1.499306	0.362251	-1.471189
N	-0.387956	0.932692	1.035277
H	-0.083296	1.868603	0.793594
H	-1.406508	0.928094	1.060587
N	-0.467573	-1.316188	0.300898
H	-1.463465	-1.335253	0.080192
H	-0.393744	-1.434561	1.306789
C	0.140394	1.711995	-1.891674
H	-0.302286	2.538316	-1.328429
H	-0.100063	1.880078	-2.943831
H	1.226035	1.755293	-1.779121
Br	-3.820183	0.0	0.0
