16

C	0.0	0.0	0.0
C	-0.359962	0.435801	-1.418772
F	1.413403	0.0	0.0
H	0.082669	1.427437	-1.576732
H	0.17199	-0.243397	-2.095861
N	-0.49349	0.913136	0.967002
H	-0.117593	1.837319	0.807817
H	-0.238997	0.585864	1.889646
N	-0.428837	-1.30961	0.400684
H	-1.433921	-1.272769	0.544078
H	-0.238774	-1.97253	-0.340385
C	-1.852565	0.455786	-1.711584
H	-2.401413	1.083477	-1.011354
H	-2.038945	0.819228	-2.726572
H	-2.306761	-0.531839	-1.628449
Br	-5.105751	0.0	0.0
