19
Coordinates from ORCA-job run
  C   0.75051649447273      0.41214436130976      0.38651347051948
  C   -0.74504711656687      0.36479556576220      0.09258041637727
  F   0.93538880598405      1.06663880033306      1.58246801851725
  H   -1.08090425386765      1.39756582970649      0.24275255379680
  C   1.49297570702859     -0.89629257672584      0.43916032360017
  H   1.13117913250726     -1.46535921199781      1.29572656097003
  H   2.55854049400705     -0.70687859401489      0.57153412701244
  H   1.35553709532305     -1.47648210371374     -0.47062342471972
  N   1.36877238586922      1.32465656196849     -0.66724824785106
  O   1.99185337230909      0.79149491857052     -1.58240963386818
  O   1.13492667105734      2.52235852247672     -0.55285692820180
  C   -1.45805210469808     -0.53622753291128      1.09818602099835
  H   -2.53844535570311     -0.40100682773905      1.00991597951855
  H   -1.24154344282693     -1.59119649765498      0.91145676321465
  H   -1.17202594350463     -0.29478954371630      2.12347554231819
  C   -1.05075852989503     -0.04724879626465     -1.34522303003362
  H   -0.64342298424516      0.65451313007721     -2.07516745077122
  H   -2.13303473978999     -0.08056892536670     -1.48905736944342
  H   -0.65645568746091     -1.04111708009923     -1.57118369195418
