19
Coordinates from ORCA-job run
  C   0.73389170839218      0.43490744563410      0.39270989973644
  C   -0.74940653121041      0.36416348761010      0.04778720930384
  F   0.87279754806883      1.14727461287876      1.56156194272876
  H   -1.09547416340927      1.40089017002055      0.13376566048983
  C   1.48002369044237     -0.86472535482655      0.53500361751686
  H   1.08841367533504     -1.39530570901086      1.40310508493781
  H   1.38053919990097     -1.48793151595071     -0.35095154173015
  H   2.53874297378114     -0.66214495954277      0.69891196195391
  N   1.38622458229339      1.29979895796751     -0.68063557812522
  O   2.04870373593342      0.72841037396561     -1.54354526705304
  O   1.13974314247921      2.49955990352597     -0.63467525551869
  C   -1.49547765080231     -0.48993831292002      1.07015566052137
  H   -2.57235726426614     -0.36637389873489      0.93467130434218
  H   -1.26725570321373     -1.55155033323434      0.94530647715881
  H   -1.24931563357700     -0.19531670660664      2.09188278898528
  C   -1.00083176504900     -0.12011011083281     -1.37809562485501
  H   -0.56614480962090      0.54500291686358     -2.12635265695539
  H   -0.59887600815122     -1.12353676875470     -1.53895125510204
  H   -2.07694072732658     -0.16207419805188     -1.56065442833557
