13
Coordinates from ORCA-job run
  C   -0.54828932329439     -0.16154285186119      0.06877673498812
  C   0.79995055405518     -0.89440475518264      0.03480473032360
  F   -1.31401352751256     -0.65028893888484     -0.98045287235011
  H   1.39352277736701     -0.62015077466495      0.91152008237102
  H   0.61420261321145     -1.97094981562355      0.07695189751907
  C   -0.42984326699104      1.34185055746331     -0.08131319958409
  H   -1.42443908827837      1.78839625687610     -0.05660966064574
  H   0.17020226728692      1.76499548219366      0.72666675286800
  H   0.03873181284543      1.57087349262149     -1.03968049406082
  C   -1.23070335994172     -0.51171337947344      1.32866759312385
  N   -1.74915046700898     -0.77897626223489      2.34753821215162
  C   1.54346678771457     -0.57636780271765     -1.18160134350120
  N   2.13736222054649     -0.30172120851142     -2.15526843320334
