15

C	-0.387133	0.01534	-1.472138
C	0.0	0.0	0.0
Cl	0.213457	-1.376063	-2.358922
H	1.090009	0.0	0.0
H	0.043335	0.915322	-1.904533
N	-1.88389	0.154222	-1.681217
O	-2.313356	1.29799	-1.502116
O	-2.56722	-0.823724	-1.948945
N	-0.615005	-1.218044	0.625029
O	0.087328	-2.209896	0.808843
O	-1.816162	-1.143458	0.908132
N	-0.398414	1.150175	0.747728
H	-1.210895	1.632564	0.391885
H	0.404075	1.761129	0.816816
F	2.541429	0.0	0.0
