15

C	-0.43008	0.007229	-1.4421
C	0.0	0.0	0.0
Cl	-2.212237	0.124419	-1.659761
H	1.091256	0.0	0.0
H	-0.09327	-0.878743	-1.966293
N	0.195915	1.174336	-2.155084
O	1.051357	0.895886	-2.993122
O	-0.18933	2.302426	-1.86376
N	-0.414435	-1.339643	0.556492
O	-0.314877	-2.311544	-0.201482
O	-0.747087	-1.416622	1.734173
N	-0.446663	1.068533	0.813112
H	0.327214	1.695788	0.980086
H	-1.234983	1.569354	0.430215
F	2.501078	0.0	0.0
