15

C	-0.531085	1.1e-05	-1.409253
C	0.0	0.0	0.0
Cl	-2.301909	-0.210476	-1.495707
H	1.092451	0.0	0.0
H	-0.070043	-0.782685	-2.002244
N	-0.145038	1.309103	-2.057511
O	-0.942867	2.236121	-2.074515
O	0.994091	1.323432	-2.509628
N	-0.348931	-1.340052	0.58967
O	-0.169724	-2.335054	-0.113745
O	-0.733326	-1.376397	1.760171
N	-0.461946	1.102003	0.761414
H	-1.378349	0.943188	1.159725
H	0.19901	1.273736	1.505589
F	2.500896	0.0	0.0
