15

C	-0.418747	0.04383	-1.444676
C	0.0	0.0	0.0
Cl	-2.1837	0.271571	-1.684638
H	1.097353	0.0	0.0
H	-0.130752	-0.853477	-1.976586
N	0.291288	1.177691	-2.134643
O	1.140473	0.854063	-2.959823
O	-0.015077	2.32653	-1.830317
N	-0.429509	-1.336909	0.542005
O	-0.67374	-1.434186	1.739009
O	-0.436046	-2.291346	-0.244154
N	-0.426735	1.06748	0.82911
H	0.350642	1.696924	0.962447
H	-1.233231	1.563823	0.477103
F	2.495438	0.0	0.0
