13

C	0.0	0.0	0.0
C	-0.330722	-0.03378	-1.50889
Cl	1.767739	0.0	0.0
H	0.168299	-0.898547	-1.947165
H	-1.416208	-0.143026	-1.579412
C	-0.636422	1.097257	0.711601
N	-0.607375	2.130375	1.298089
N	-0.418627	-1.312648	0.641413
O	-0.472192	-1.327623	1.867055
O	-0.445234	-2.302903	-0.090926
C	0.099037	1.185021	-2.180435
N	0.406062	2.149349	-2.776547
H	-2.196565	0.0	0.0
