13

C	0.0	0.0	0.0
C	-0.323426	0.010196	-1.512014
Cl	1.767894	0.0	0.0
H	-1.40295	-0.124805	-1.603187
H	0.207943	-0.817772	-1.980193
C	-0.630147	1.086352	0.734845
N	-0.609748	2.091947	1.365884
N	-0.433752	-1.32201	0.604432
O	-0.486737	-1.370366	1.830961
O	-0.460181	-2.293314	-0.153681
C	0.077503	1.269346	-2.128498
N	0.367653	2.265406	-2.678115
H	-2.178265	0.0	0.0
