12
Coordinates from ORCA-job run
  C   -0.66655768567438      0.46900702861869     -0.26481066470696
  C   0.64804022604635     -0.17598420114535     -0.65678687991891
  Cl  -0.83073610953941      1.94772277137215     -1.34771683422079
  H   1.49802006011130      0.46373033550312     -0.42413932690811
  H   -1.49878761059976     -0.17279294867318     -0.54629198660111
  H   0.64953969020484     -0.45394543781152     -1.70969988086015
  N   -0.70416818068711      0.72858774515057      1.11907658723075
  H   -1.61047909585189      1.04730366529306      1.43134153324799
  H   0.01003985337532      1.38179061195721      1.41376281859006
  N   0.80377015988696     -1.43227243009731      0.13243469864195
  O   -0.03750204940218     -2.30363781851656     -0.07027849820253
  O   1.73882074212996     -1.49750932165086      0.92410843370780
