12
Coordinates from ORCA-job run
  C   -0.67350316776064      0.48570377950141     -0.32130904382508
  C   0.65330071222810     -0.16591369276519     -0.65173538934762
  Cl  -0.88775795756975      1.80707796897273     -1.50566520267736
  H   0.67757637784711     -0.55027377358847     -1.67251405517877
  H   -1.49540032449294     -0.21227867030154     -0.50567048244333
  H   1.46956682746843      0.53893918142518     -0.50053221599804
  N   -0.63277208486832      1.05203623533709      1.00726404224639
  H   -1.42114733802221      1.67335263691516      1.14074190893290
  H   -0.71512253168058      0.29395207271414      1.67555665794492
  N   0.93640855629791     -1.34035761637801      0.23399040148689
  O   0.01115184788159     -1.79746582522034      0.90583905239238
  O   2.07669908267129     -1.78477229661216      0.19503432646673
