12
Coordinates from ORCA-job run
  C   -0.21897332218898      0.70151621013762      0.07364226695310
  C   0.04388113716443     -0.75648306537905     -0.23487104119129
  Cl  0.48658962688167      1.05165249584058      1.72720683735444
  H   -0.38269160614227     -1.41900414781483      0.51637649076173
  H   0.34981556885814      1.32972702664957     -0.60850692225130
  H   -0.34767462876996     -0.98454659053243     -1.22761262292882
  N   -1.60494219831117      0.97304329480073     -0.04392971566109
  H   -1.79546202258387      1.96267316215773      0.03731740822905
  H   -2.14269145332563      0.48117393976870      0.65876079971868
  N   1.50744313037536     -1.03969819306742     -0.27835364910951
  O   2.19040262268264     -0.27962835655859     -0.95946801739053
  O   1.91330314535966     -2.01942577600263      0.33843816551554
