12
Coordinates from ORCA-job run
  C   -0.47119422356913      0.61483874054673     -0.25091776577350
  C   0.36671961297049     -0.52116699165774      0.32139792399989
  Cl  0.65329908224389      1.90869282376854     -0.77005275740698
  H   -0.29214726831930     -1.32621821885067      0.65519332529262
  H   -0.98074631300596      0.26721439083822     -1.14892658381277
  H   1.00727554223638     -0.17950625852771      1.13299611506923
  N   -1.43641449976903      1.15447637253418      0.66091776602053
  H   -2.22791968557237      0.53362042037737      0.76551255143995
  H   -1.03186525325988      1.36050164605736      1.56510708532552
  N   1.25599860050824     -1.11792532899667     -0.71704978029541
  O   0.70799229313526     -1.46999742761932     -1.75918074286396
  O   2.45000211240143     -1.22453016847030     -0.45599713699510
