12
Coordinates from ORCA-job run
  C   -0.38310347410080      0.81314970295093     -0.27632779507838
  C   0.21788892098494     -0.48677320411396     -0.78936524309385
  Cl  0.86068635109459      2.11908431426103     -0.29157995026716
  H   -0.57909435376232     -1.20096419024999     -1.00026992815922
  H   -1.10776924971206      1.14104812952363     -1.03089928289144
  H   0.83260413352822     -0.30993243798906     -1.66845744558466
  N   -0.89979171901108      0.65874844078715      1.04318405245418
  H   -1.26328758855591     -0.26556186643620      1.22577708616895
  H   -1.57025093888601      1.37409653189764      1.28057055162549
  N   1.08564890816557     -1.12373055725857      0.24037019687879
  O   0.52180637895329     -1.86066969672009      1.04962199968155
  O   2.28266263130157     -0.85849516665251      0.21737575826574
