12
Coordinates from ORCA-job run
  C   -0.34203079333470      0.64765534220126     -0.09391375292689
  C   0.13394577982165     -0.77420359171685      0.11065061461496
  Cl  0.99213718858015      1.76426646502269      0.47791362072878
  H   -0.63658426324522     -1.46031298441056     -0.24486104422325
  H   -0.43826148726743      0.85355573637138     -1.15778537124798
  H   0.38945423661314     -0.97648788016788      1.14943031995257
  N   -1.58571280766543      0.83431326018084      0.55991862286157
  H   -1.49351925505169      0.75791098801002      1.56520065074796
  H   -1.98622926548725      1.73624823435615      0.33991777538322
  N   1.35711639238819     -1.05099169097634     -0.69599877387667
  O   2.29692139800956     -1.59976045775390     -0.12958409429530
  O   1.31376287663902     -0.73119342111680     -1.88088856771899
