16

C	-0.336806	-0.135058	-1.494367
C	0.0	0.0	0.0
F	-1.711195	-0.324534	-1.675431
H	1.104901	0.0	0.0
C	-0.060385	1.174127	-2.14705
N	0.144766	2.186663	-2.706378
N	0.366339	-1.232698	-2.051588
H	0.436494	-1.158513	-3.057603
H	1.299956	-1.297441	-1.648155
N	-0.499967	-1.254724	0.661829
O	0.268012	-2.208994	0.739882
O	-1.662191	-1.235359	1.062555
N	-0.536204	1.130508	0.674976
H	-1.474184	1.351046	0.37084
H	0.0822	1.921604	0.569073
Br	3.430603	0.0	0.0
