17
Coordinates from ORCA-job run
  C   -0.75233186210918      0.39653532979792      0.12782577141096
  C   0.56156650692262     -0.28381136312161     -0.32213674011723
  Br  -0.41204217030464      2.05955218621114      1.11671824571661
  H   0.25694125410693     -1.15313430315053     -0.91185428996516
  C   -1.62854330592998     -0.50785524464005      0.99251111407085
  H   -2.58316713281521     -0.01820380575061      1.18591409494200
  H   -1.80540696599926     -1.45410193225782      0.47475518220024
  H   -1.14065083302734     -0.71359561603108      1.94514586730949
  C   -1.46634154449113      0.76885768196294     -1.09186096177738
  N   -2.03995146238806      1.01968875251860     -2.08718678340934
  N   1.23604004041232     -0.88193396909453      0.87963135908003
  O   1.99917855338432     -0.16570937915126      1.52148814260303
  O   0.95223078791410     -2.05087516171168      1.14190612282798
  C   1.52569639929107      0.58951922713280     -1.09420900951939
  H   1.02972363919606      0.99579237837705     -1.97782331345992
  H   2.37806888141081     -0.00859194284065     -1.42261736837665
  H   1.89098921442657      1.40686716174936     -0.47620743353614
