17
Coordinates from ORCA-job run
  C   -0.70544722110494      0.45479365163926      0.18923928265273
  C   0.51293945720686     -0.31795679803272     -0.36762448068159
  Br  -0.15919561690534      2.04300982465250      1.20822713688148
  H   0.09678601351305     -1.13420753337195     -0.96496898711820
  C   -1.60193237371051     -0.40381166101233      1.07930019435774
  H   -2.49763184067233      0.15619650779369      1.34842467233468
  H   -1.88995690564553     -1.31261605268735      0.54505845001194
  H   -1.07645426746888     -0.68370718231796      1.99211251671208
  C   -1.45796407182155      0.93350446149657     -0.96857991827154
  N   -2.06808858072457      1.27125970579020     -1.91526789004493
  N   1.20466122512367     -1.01843977475893      0.76719669596530
  O   2.06683514679508     -0.39658354397964      1.38139320330042
  O   0.83502485525820     -2.16773248970582      1.00840935028388
  C   1.50104723413927      0.49825763438546     -1.17109914112929
  H   0.98977470526051      0.97817651404115     -2.00786528182668
  H   2.27621672116496     -0.15792429096792     -1.57209172239570
  H   1.97338551959207      1.25778102703578     -0.55186408103231
