17
Coordinates from ORCA-job run
  C   -0.65274864420169      0.28697267508086      0.57802176921989
  C   0.61888000324241     -0.45744380338998      0.14482181294180
  Br  -0.74031577304333      0.28539818028763      2.54260599057019
  H   0.53671676318410     -1.49008446109725      0.48890712484249
  C   -1.89714134627655     -0.43464470543177      0.05640429871738
  H   -1.92664449084603     -0.39601021886556     -1.03435846886218
  H   -2.79378458134731      0.05104021730698      0.44140406681659
  H   -1.89054387779196     -1.47481930889375      0.38786821175110
  C   -0.67456091139230      1.67559326614220      0.12683155477810
  N   -0.77321890418448      2.76820097816020     -0.29628188218803
  N   1.82504021011325      0.08210444537599      0.85686179215170
  O   2.50342803536507     -0.72418502827121      1.48745512133340
  O   2.05536949316260      1.28034643277912      0.72453084059334
  C   0.89379697438175     -0.37327936267629     -1.34876957397157
  H   1.83056884201546     -0.88880578161269     -1.57163495300117
  H   0.98276505763733      0.66721287833171     -1.66466140750105
  H   0.10139314998166     -0.85859640322619     -1.91900629819201
