15

C	0.0	0.0	0.0
C	-0.311531	-0.138473	-1.536959
F	1.411886	0.0	0.0
H	0.661587	-0.316201	-2.006463
H	-0.325167	-0.912339	0.503848
N	-0.508588	1.110943	0.712535
H	-0.422987	1.955904	0.158298
H	-1.507203	0.943139	0.851729
C	-0.783145	1.127002	-2.101604
N	-1.078026	2.155048	-2.586435
C	-1.230201	-1.311134	-1.886756
H	-2.213427	-1.166448	-1.43989
H	-1.327151	-1.405762	-2.971716
H	-0.788932	-2.235262	-1.50279
Cl	-3.705067	0.0	0.0
