15

C	0.0	0.0	0.0
C	-0.487081	0.140231	-1.443756
F	1.381369	0.0	0.0
H	-1.578969	0.028081	-1.399828
H	-0.294922	-0.987936	0.377097
N	-0.484384	1.094726	0.785053
H	-0.281136	0.900781	1.759692
H	-1.503927	1.069859	0.691587
C	0.06257	-0.952892	-2.246116
N	0.514375	-1.81068	-2.90938
C	-0.112648	1.491988	-2.055495
H	0.970266	1.631661	-2.037971
H	-0.576907	2.289318	-1.477624
H	-0.461343	1.549059	-3.088866
Cl	-3.569171	0.0	0.0
