15

C	0.0	0.0	0.0
C	-0.487814	0.135185	-1.444447
F	1.381255	0.0	0.0
H	-1.579361	0.017109	-1.401957
H	-0.294035	-0.986765	0.381285
N	-0.483605	1.097796	0.781727
H	-1.503338	1.072404	0.68979
H	-0.278584	0.907631	1.756666
C	0.068926	-0.956179	-2.244615
N	0.523955	-1.813204	-2.90658
C	-0.121629	1.488458	-2.057394
H	-0.599619	2.28333	-1.487303
H	-0.460134	1.538677	-3.094518
H	0.959295	1.640254	-2.029141
Cl	-3.569925	0.0	0.0
