15

C	0.0	0.0	0.0
C	-0.476607	-0.245706	-1.431088
F	1.406544	0.0	0.0
H	-1.568315	-0.351805	-1.36672
H	-0.281274	-0.856148	0.62567
N	-0.478568	1.261539	0.470859
H	-0.276006	1.327315	1.462271
H	-1.499367	1.214778	0.388369
C	0.087653	-1.504695	-1.919566
N	0.550593	-2.500257	-2.336436
C	-0.108966	0.904297	-2.371733
H	-0.441218	0.681755	-3.387987
H	-0.593068	1.81743	-2.030154
H	0.971107	1.061554	-2.376398
Cl	-3.557192	0.0	0.0
