15

C	0.0	0.0	0.0
C	-0.196205	-0.058665	-1.549475
F	1.401098	0.0	0.0
H	0.5884	0.627499	-1.90343
H	-0.350944	-0.91451	0.480496
N	-0.488492	1.124804	0.703546
H	-0.384054	1.958389	0.134195
H	-1.497898	0.968216	0.806741
C	-1.400906	0.453185	-2.204576
N	-2.146833	0.989128	-2.932446
C	0.127874	-1.45479	-2.084316
H	0.167104	-1.455405	-3.177035
H	-0.63996	-2.167173	-1.770376
H	1.099003	-1.779447	-1.704285
Cl	-3.429416	0.0	0.0
