15

C	0.0	0.0	0.0
C	-0.486452	0.14077	-1.444578
F	1.381332	0.0	0.0
H	-1.579214	0.035304	-1.401652
H	-0.295777	-0.987293	0.379275
N	-0.483639	1.095867	0.784144
H	-1.503724	1.072475	0.692999
H	-0.279417	0.901667	1.758072
C	0.057345	-0.957186	-2.244943
N	0.509848	-1.817893	-2.903581
C	-0.103898	1.490241	-2.057729
H	0.981599	1.620953	-2.051424
H	-0.553911	2.291125	-1.471186
H	-0.46411	1.552108	-3.087127
Cl	-3.564761	0.0	0.0
