13

C	-0.561737	0.048954	-1.410627
C	0.0	0.0	0.0
Cl	-0.099032	-1.402422	-2.365372
H	1.093176	0.0	0.0
H	-1.656726	0.035123	-1.391634
H	-0.342438	-0.938393	0.450423
C	-0.165346	1.248763	-2.151579
N	0.148474	2.210297	-2.747403
C	-0.481166	1.196454	0.81369
H	-1.574154	1.271581	0.872077
H	-0.089082	2.127585	0.396303
H	-0.086512	1.113739	1.828982
H	2.96862	0.0	0.0
