13

C	-0.36422	0.08105	-1.464949
C	0.0	0.0	0.0
Cl	-2.116841	0.478359	-1.784363
H	1.095197	0.0	0.0
H	0.202095	0.891406	-1.931168
H	-0.368657	-0.933274	0.435221
C	-0.079199	-1.16085	-2.180305
N	0.116622	-2.159351	-2.766117
C	-0.44768	1.21409	0.798826
H	-1.532203	1.280657	0.917792
H	0.01614	1.173683	1.787436
H	-0.095367	2.132234	0.318881
H	2.899732	0.0	0.0
