13

C	-0.568411	0.008223	-1.409639
C	0.0	0.0	0.0
Cl	-0.014812	-1.398849	-2.388979
H	1.093317	0.0	0.0
H	-1.659708	-0.084912	-1.386752
H	-0.319431	0.942459	0.464735
C	-0.266056	1.239597	-2.140934
N	-0.110189	2.245625	-2.726206
C	-0.505584	-1.182017	0.814902
H	-1.600152	-1.216806	0.886992
H	-0.155779	-2.121663	0.383481
H	-0.09409	-1.120351	1.825201
H	2.969152	0.0	0.0
