13

C	-0.44527	0.003037	-1.45522
C	0.0	0.0	0.0
Cl	-0.124254	1.57182	-2.278259
H	1.093666	0.0	0.0
H	0.147922	-0.735708	-2.000713
H	-0.302801	-0.977718	0.399812
C	-1.867464	-0.302127	-1.620317
N	-3.003686	-0.578932	-1.738232
C	-0.577658	1.119057	0.848382
H	-1.673513	1.130597	0.851408
H	-0.232391	0.997134	1.877887
H	-0.219915	2.089396	0.500737
H	2.958507	0.0	0.0
