18

C	0.0	0.0	0.0
C	-0.565002	0.007171	-1.419016
Cl	1.789543	0.0	0.0
H	-1.672275	-0.124916	-1.251597
N	-0.52418	1.0988	0.760338
H	-1.554169	0.97282	0.705469
H	-0.269114	1.971476	0.313221
C	-0.427031	-1.284679	0.697925
H	-1.519677	-1.342907	0.645761
H	0.032461	-2.164431	0.251064
H	-0.112043	-1.19219	1.737961
N	-0.009022	-1.06334	-2.285579
O	-0.471763	-2.191569	-2.125221
O	0.893675	-0.765833	-3.069639
N	-0.390269	1.278261	-2.183846
O	0.374564	2.148493	-1.770752
O	-1.068044	1.360231	-3.206452
H	-3.015144	0.0	0.0
