18

C	0.0	0.0	0.0
C	-0.681666	-0.062172	-1.353477
Cl	1.780349	0.0	0.0
H	-1.808904	-0.049431	-1.042394
N	-0.460095	1.259415	0.548971
H	-0.168372	1.292964	1.521181
H	-1.49082	1.185739	0.53727
C	-0.441187	-1.203358	0.834905
H	-1.537593	-1.217837	0.814468
H	-0.024209	-2.137391	0.464175
H	-0.104086	-1.044378	1.863176
N	-0.434405	-1.243826	-2.201057
O	-1.076217	-1.264947	-3.253996
O	0.327199	-2.135661	-1.823898
N	-0.383898	1.120818	-2.205029
O	-1.160137	2.068395	-2.155407
O	0.634971	1.063521	-2.896513
H	-2.991997	0.0	0.0
