18

C	0.0	0.0	0.0
C	-0.627815	0.023889	-1.38462
Cl	1.802759	0.0	0.0
H	-1.744186	-0.07024	-1.139492
N	-0.527269	1.19327	0.614886
H	-0.254111	1.18748	1.593369
H	-1.558594	1.036644	0.581956
C	-0.401425	-1.271589	0.745707
H	-1.494264	-1.331579	0.711126
H	-0.076428	-1.157412	1.783902
H	0.052853	-2.168858	0.330291
N	-0.196029	-1.062136	-2.292875
O	0.453146	-0.766731	-3.297893
O	-0.54305	-2.202044	-1.986256
N	-0.441521	1.301836	-2.132456
O	-1.38487	1.607492	-2.863467
O	0.602974	1.930502	-2.016438
H	-2.980458	0.0	0.0
