18

C	0.0	0.0	0.0
C	-0.614269	0.015346	-1.399264
Cl	1.789373	0.0	0.0
H	-1.732214	-0.072161	-1.154512
N	-0.517367	1.088411	0.785073
H	-0.302397	1.964711	0.323708
H	-1.545406	0.94347	0.757758
C	-0.420423	-1.293754	0.68975
H	-1.512509	-1.354896	0.644221
H	0.034921	-2.169294	0.230251
H	-0.098778	-1.213023	1.728855
N	-0.164769	-1.089521	-2.28239
O	-0.715713	-2.178887	-2.128064
O	0.7437	-0.858801	-3.082435
N	-0.440503	1.26168	-2.190842
O	0.272684	2.171248	-1.76568
O	-1.085103	1.30271	-3.237658
H	-2.984034	0.0	0.0
