14
Coordinates from ORCA-job run
  C   -0.73867779524481      0.40033270622420      0.11600700749169
  C   0.76522252641710      0.22735679293121      0.33974827710638
  Br  -1.29663117141343      2.02390180340067      1.01860824794113
  H   0.96287767568500      0.17148680933909      1.41299963856304
  C   -1.10783594928077      0.46319036380765     -1.28453215364505
  N   -1.37697499841978      0.56727354123732     -2.42497024105005
  N   -1.48389518424683     -0.75803565184319      0.81220243507571
  O   -0.95307370602588     -1.18500779008199      1.82560873022633
  O   -2.54296433442315     -1.09449398233131      0.31495032023833
  C   1.53153181413099      1.29470828024175     -0.28443291958729
  N   2.14707668510783      2.15589292341502     -0.79457255493454
  N   1.24822819808614     -1.10787936912692     -0.22623312350555
  O   0.40963512228069     -1.82313776610996     -0.75939620212955
  O   2.43648111734688     -1.33458866110356     -0.06698746179058
