14
Coordinates from ORCA-job run
  C   -0.77055707868167      0.34732895841440      0.06604734264586
  C   0.75823929301972      0.41413281707270      0.07902543709145
  Br  -1.45263919123457      2.14709601472547      0.30480914829343
  H   1.08943840569600      0.83968779094058      1.02948723269278
  C   -1.31063048847156     -0.22633762671460     -1.15098895320848
  N   -1.73010603123740     -0.64042460505665     -2.16902288993308
  N   -1.24511791890283     -0.45980675799169      1.29254776123609
  O   -2.29202583364246     -1.06833498734809      1.16649913763652
  O   -0.54145717861768     -0.36064416411410      2.28578637284921
  C   1.27674132345621      1.17233268264853     -1.04886427952135
  N   1.69381281366726      1.78393014372736     -1.96143564376557
  N   1.36243699125930     -0.98939348417785      0.03712783370342
  O   0.58042930143306     -1.93096738508813      0.00365539844505
  O   2.58143559225657     -1.02659939703788      0.06532610183471
