14
Coordinates from ORCA-job run
  C   -0.69349257049274      0.17531329873455      0.28795872399975
  C   0.70146631474571     -0.11760203427394     -0.30484742266765
  Br  -0.58770854462644      0.68844307287415      2.12709019446188
  H   0.57814260482661     -0.33337159067080     -1.36960906666049
  C   -1.43060997217554      1.16461068306271     -0.47940883413804
  N   -2.07458747192713      1.94499358811722     -1.08033919241411
  N   -1.47013157438414     -1.18148508514613      0.11870185944339
  O   -1.55864273192203     -1.52488639893849     -1.05180510342031
  O   -1.88403471481399     -1.74732439750140      1.10909179857497
  C   1.34145193486004     -1.22737270863284      0.38240914958307
  N   1.83005685160842     -2.15632227208860      0.91068354321953
  N   1.55643943175693      1.13621726708804     -0.22808877086503
  O   2.45640580202112      1.16355807191557      0.59856237524728
  O   1.23424464052320      2.01422850546000     -1.01939925436427
