14
Coordinates from ORCA-job run
  C   -0.73407653506567      0.48459384439910     -0.08489173759869
  C   0.72423299201151      0.14824721675984     -0.46577875559574
  Br  -0.85478478946946      2.33656133233761      0.40942397694199
  H   1.02378643021549      0.82600257931843     -1.26890376602884
  C   -1.59570759615669      0.21049073159780     -1.22203285976928
  N   -2.27726925504891      0.00346470215744     -2.15876072491502
  N   -1.21514751470730     -0.44026521726103      1.08612858009708
  O   -1.30599539068962     -1.61056911494029      0.75002648493674
  O   -1.43684497544549      0.06231245717901      2.16748054109344
  C   0.92195729075301     -1.23574537580873     -0.87664918496261
  N   1.14617409036800     -2.32524998766370     -1.25606856722201
  N   1.64639494438917      0.45032947776350      0.69999042225011
  O   1.43442664716131     -0.18814785841559      1.72328511267103
  O   2.52185366168461      1.27997521257659      0.49675047810185
