14
Coordinates from ORCA-job run
  C   -0.83326050531687      0.16602257912102     -0.00850982017476
  C   0.63691540671180      0.57841503253276     -0.10986074086786
  Br  -1.92135025154056      1.73634984909410     -0.34553514931012
  H   0.83872626812237      1.36387412832789      0.62262372057379
  C   -1.19693961413687     -0.89281975326966     -0.92929766015528
  N   -1.45613792731945     -1.73670585870930     -1.70678817580840
  N   -1.13401342491057     -0.26226274470643      1.44320294098392
  O   -0.49705934051423      0.32717776692523      2.30238632777656
  O   -2.00504098428898     -1.09998413579863      1.59004057327889
  C   0.98679661062763      1.00677502043808     -1.45532117480270
  N   1.26179876098575      1.34218123375887     -2.54740717712029
  N   1.55487036514035     -0.57912828766359      0.28269448345538
  O   1.01798967579114     -1.62655707769143      0.61960431286640
  O   2.74770496064849     -0.32633775235887      0.24116753930450
