14
Coordinates from ORCA-job run
  C   -0.70319206403179      0.16833174816310      0.26914612455953
  C   0.70949480107462     -0.11073414408297     -0.28734958439550
  Br  -0.64927597544365      0.69732712786040      2.10598508458606
  H   0.61556112956659     -0.33398370589115     -1.35345202056382
  C   -1.43387185260560      1.14152076899860     -0.52464235429727
  N   -2.06313287493503      1.90728623269819     -1.15901942044775
  N   -1.45941989664222     -1.19929043891476      0.09252214513637
  O   -1.50350447273868     -1.55927919790933     -1.07559564125990
  O   -1.90030052982166     -1.75710438855750      1.07562507352874
  C   1.34478492401796     -1.20850797074144      0.42316164602652
  N   1.83466593273180     -2.11918517048538      0.98121461260956
  N   1.54739614701244      1.15375598327998     -0.19701494638579
  O   2.42471603847635      1.19796952446143      0.65286914161042
  O   1.23607869333883      2.02189363112087     -1.00344986070717
