14
Coordinates from ORCA-job run
  C   -0.74952530392512      0.38558417830615      0.09747680403460
  C   0.78004161726085      0.37273051498044      0.05580973011759
  Br  -1.32683124730318      2.21600647525806      0.37775484349424
  H   1.16672469751947      0.76897385193488      0.99793368416155
  C   -1.36136660998217     -0.14540805349357     -1.10479119758194
  N   -1.83028034404801     -0.52628266543810     -2.11419909757384
  N   -1.22231137826555     -0.40925338255519      1.33258502157478
  O   -0.48068172166671     -0.35649534101777      2.30144559194165
  O   -2.30249832617539     -0.96279664417638      1.23764293137124
  C   1.29751091869252      1.11681078612501     -1.08204433333460
  N   1.71867416421987      1.71727489657473     -2.00010193121312
  N   1.30854580730599     -1.05949245244250     -0.02252243253347
  O   2.52440737837769     -1.15920328360387     -0.03785975879015
  O   0.47859034798982     -1.95944888045193     -0.03912985566847
