14
Coordinates from ORCA-job run
  C   -0.66593325278821      0.46250770101602      0.24878664812407
  C   0.81958591179161      0.09609288451028      0.26619353767129
  Br  -0.91412513673629      2.01383276955287      1.38707768994395
  H   1.12398226085057     -0.11611346432020      1.29402449029433
  C   -1.17331645096740      0.74108719581126     -1.08032925650253
  N   -1.55106267043797      1.01079287593724     -2.16124458908190
  N   -1.47089789539877     -0.68176761974211      0.89874360751860
  O   -0.89391198816641     -1.28247832366935      1.79193744867258
  O   -2.60980024784712     -0.83709626838787      0.49749460995613
  C   1.64226726324146      1.14100240295318     -0.32332924957660
  N   2.30611201295369      1.98407175289833     -0.80219974136685
  N   1.06686005723504     -1.20342831609613     -0.50009894395168
  O   2.22792813777901     -1.57762461047688     -0.51739122689677
  O   0.09131199849071     -1.75087897998664     -0.99766502480462
