15

C	0.0	0.0	0.0
C	-0.472966	0.162497	-1.436096
F	1.387536	0.0	0.0
H	0.019041	1.058347	-1.828613
H	-1.550082	0.34055	-1.406483
C	-0.319383	1.235232	0.783074
N	-0.485939	2.224973	1.392932
N	-0.49943	-1.199181	0.583893
H	-0.316794	-1.192776	1.581471
H	-1.518148	-1.16797	0.462553
C	-0.138211	-1.054698	-2.290308
H	-0.393059	-0.855955	-3.334715
H	-0.703457	-1.92543	-1.959969
H	0.926025	-1.294722	-2.2335
Cl	-3.613028	0.0	0.0
