15

C	0.0	0.0	0.0
C	-0.427453	-0.490791	-1.384631
F	1.389941	0.0	0.0
H	0.091422	0.131962	-2.121342
H	-1.502323	-0.317723	-1.468993
C	-0.365908	1.433151	0.14844
N	-0.535082	2.59239	0.21612
N	-0.484401	-0.717328	1.137178
H	-0.3368	-1.708207	0.979699
H	-1.49793	-0.560663	1.154221
C	-0.097996	-1.962716	-1.609618
H	0.94662	-2.181455	-1.371346
H	-0.743817	-2.606965	-1.008915
H	-0.268595	-2.2288	-2.655616
Cl	-3.566242	0.0	0.0
