15

C	0.0	0.0	0.0
C	-0.461333	-0.178547	-1.434561
F	1.410181	0.0	0.0
H	-0.109109	-1.172998	-1.725037
H	-1.553582	-0.186757	-1.41837
C	-0.315134	1.367507	0.509253
N	-0.474419	2.445862	0.946908
N	-0.486373	-1.053891	0.822076
H	-1.503683	-1.070934	0.691968
H	-0.315734	-0.830352	1.796994
C	0.070179	0.893068	-2.376712
H	1.160874	0.945163	-2.346997
H	-0.331336	1.875232	-2.116414
H	-0.235289	0.672531	-3.40264
Cl	-3.596794	0.0	0.0
