15

C	0.0	0.0	0.0
C	-0.316725	0.076598	-1.498167
F	1.387609	0.0	0.0
H	0.337076	0.868039	-1.878719
H	0.070033	-0.869402	-1.892344
C	-0.353965	1.263876	0.706414
N	-0.569426	2.249662	1.307444
N	-0.535716	-1.169665	0.606542
H	-1.526327	-1.222234	0.367076
H	-0.48155	-1.10223	1.616682
C	-1.746057	0.314665	-1.944516
H	-2.182948	1.199647	-1.484914
H	-2.420302	-0.498599	-1.689845
H	-1.757456	0.446348	-3.030461
Cl	-4.370173	0.0	0.0
