16
Coordinates from ORCA-job run
  C   0.69300068342088     -0.23412717616223     -0.46754147192579
  C   -0.79811278254795     -0.14597446773717     -0.14522329208279
  Br  0.78879038603552     -0.08016926688988     -2.44958599477916
  H   -1.32119924312401     -0.93509495301977     -0.68366895600641
  N   1.27337164181910     -1.38762281218868      0.06171231558588
  H   0.68482369333682     -2.20771537649263      0.04850795772992
  H   2.19214381567910     -1.57251471556552     -0.31918866005037
  N   1.48418463832762      0.94141455069873      0.14979698289464
  O   2.41995544772730      1.40645915473634     -0.47469866261026
  O   1.13484357215720      1.20715373001316      1.28986459374787
  N   -1.44311283876858      1.14067076210073     -0.56517199192064
  O   -0.74814460658321      2.14389165040559     -0.64891902691292
  O   -2.65126120439788      1.05189496380219     -0.75572569657842
  N   -1.14467295991293     -0.36995537270253      1.31509250838940
  O   -1.55595245779831      0.57437422856616      1.96761749456349
  O   -1.01065778537067     -1.53268489956448      1.67713189995555
