16
Coordinates from ORCA-job run
  C   0.62947263097155     -0.27104865168127     -0.37118725611868
  C   -0.65782034456086      0.21221389017186      0.30207470188566
  Br  0.40302244115238     -0.72146416294117     -2.21888731036770
  H   -0.41463617803557      0.63674417467478      1.27649881288384
  N   1.09589685935665     -1.39955928054750      0.34266515198036
  H   1.29721119257021     -1.17601681078801      1.31159728737792
  H   1.89273535129074     -1.83351826434705     -0.10502106830953
  N   1.65538355667056      0.92105261619642     -0.24943697900271
  O   1.73904601517322      1.35477964149015      0.89712458253958
  O   2.33432648107450      1.24226497428309     -1.20482787547164
  N   -1.57496259248220     -0.94323433255903      0.55171049421512
  O   -2.15179354299381     -1.42485475994436     -0.41209162502618
  O   -1.63500336006175     -1.31108158023836      1.72159454951349
  N   -1.37379002786574      1.29249888364144     -0.45468924712479
  O   -0.64945015949874      2.08289384603047     -1.04751392203819
  O   -2.58963832276114      1.33832981655853     -0.33861029693657
