16
Coordinates from ORCA-job run
  C   0.65671096356797     -0.17700656782986     -0.33818292766750
  C   -0.61383213443523      0.27912670771838      0.38230200337781
  Br  0.33381763812803     -0.43737101986062     -2.26388667405823
  H   -0.33779406524213      0.84429494080385      1.27047462638804
  N   1.22672898168091     -1.28106546591979      0.33147285762745
  H   2.15643331614487     -1.46340383822489     -0.03088967249012
  H   0.65250841574146     -2.10808593605266      0.22064162041336
  N   1.73787390636704      0.92822510810048     -0.19814939496503
  O   1.53620657793262      1.82672854662045      0.60518526446769
  O   2.75333071116223      0.73766365082257     -0.84833962561903
  N   -1.47080135841751     -0.85863806949541      0.83652926436719
  O   -1.51615305537264     -1.86499341792378      0.13568780405629
  O   -2.09369145425448     -0.65437860474021      1.87276170557753
  N   -1.47569082417277      1.18533411864519     -0.46207604649852
  O   -2.63741481122243      0.85368922402968     -0.64936919183939
  O   -0.90823280760795      2.18988062330662     -0.86416161313756
