13

C	-0.528551	-0.045295	-1.440964
C	0.0	0.0	0.0
Cl	-0.039738	1.451633	-2.313492
H	1.093589	0.0	0.0
H	-0.367316	0.928459	0.45197
C	-0.017334	-1.210815	-2.170681
N	0.334799	-2.137304	-2.801182
C	-1.995366	-0.102266	-1.439812
N	-3.169839	-0.116794	-1.387169
N	-0.448528	-1.213157	0.666277
H	0.36546	-1.651563	1.084578
H	-1.130535	-1.024909	1.386601
H	2.815296	0.0	0.0
