13

C	-0.533767	0.033409	-1.437735
C	0.0	0.0	0.0
Cl	-0.041281	-1.464079	-2.308183
H	1.093669	0.0	0.0
H	-0.367446	-0.921989	0.463008
C	-2.000701	0.079067	-1.430458
N	-3.174993	0.085142	-1.371967
C	-0.030857	1.197948	-2.172364
N	0.327341	2.124978	-2.797572
N	-0.450183	1.217131	0.662609
H	-1.112007	1.024762	1.400532
H	0.366551	1.668729	1.057445
H	2.813665	0.0	0.0
