13

C	-0.49186	-0.029336	-1.441664
C	0.0	0.0	0.0
Cl	-2.318867	0.02953	-1.498672
H	1.093702	0.0	0.0
H	-0.349001	0.940227	0.444156
C	-0.017335	1.135341	-2.19468
N	0.351991	2.065847	-2.808753
C	-0.093561	-1.263777	-2.121782
N	0.199382	-2.259454	-2.670693
N	-0.437022	-1.199934	0.688313
H	0.370872	-1.582179	1.167979
H	-1.162533	-1.007698	1.363608
H	2.789734	0.0	0.0
