13

C	-0.490357	0.052314	-1.441143
C	0.0	0.0	0.0
Cl	-2.317615	-0.001044	-1.501902
H	1.094098	0.0	0.0
H	-0.351217	-0.945223	0.430703
C	-0.089031	1.295732	-2.103031
N	0.199967	2.284886	-2.665953
C	-0.017609	-1.101671	-2.211399
N	0.340477	-2.034561	-2.829685
N	-0.434199	1.19187	0.704889
H	0.374179	1.563103	1.19364
H	-1.162686	0.993997	1.374417
H	2.789343	0.0	0.0
