17

C	-0.493946	-0.032816	-1.44836
C	0.0	0.0	0.0
F	-0.218694	1.219812	-2.004203
H	1.092282	0.0	0.0
H	0.094959	-0.76247	-2.004168
C	-1.978669	-0.287825	-1.609148
H	-2.244799	-1.282727	-1.249651
H	-2.243456	-0.222258	-2.666553
H	-2.5603	0.458208	-1.065056
N	-0.395877	-1.304488	0.613994
O	-0.117701	-2.322566	-0.021629
O	-0.969578	-1.304886	1.70562
C	-0.507004	1.172287	0.809093
H	-1.592223	1.168469	0.928586
H	-0.050694	1.158373	1.798111
H	-0.198229	2.086385	0.301729
Cl	3.348255	0.0	0.0
