17

C	-0.411608	0.00477	-1.461172
C	0.0	0.0	0.0
F	-1.795316	0.221032	-1.578266
H	1.091956	0.0	0.0
H	0.077461	0.877133	-1.906763
C	-0.052131	-1.24682	-2.223382
H	-0.269006	-1.104042	-3.284374
H	-0.63273	-2.096496	-1.86064
H	1.009343	-1.460506	-2.087469
N	-0.476424	-1.266116	0.637788
O	0.250692	-2.254728	0.558341
O	-1.589259	-1.262429	1.169337
C	-0.52546	1.196645	0.76591
H	-1.613005	1.243372	0.744997
H	-0.184233	1.154894	1.801408
H	-0.108994	2.100496	0.314751
Cl	3.393921	0.0	0.0
