17
Coordinates from ORCA-job run
  C   -0.69927386811157      0.56322676475371      0.08193542156048
  C   0.72288454230918      0.06471568276495      0.30401842976128
  F   -0.69308362414869      1.91124218925932      0.34131739419561
  H   1.05206229294881      0.44080627217584      1.27106133462837
  N   -1.60502450670899      0.01924718158176      1.23305994835617
  O   -1.06213006858695     -0.22323805019539      2.30572192059964
  O   -2.80157820107971     -0.06398641232748      0.98337800662305
  N   -1.22621474198580      0.34797146320777     -1.18757141611573
  H   -2.17903308125186      0.68805511393052     -1.23678898308218
  H   -1.19833029712902     -0.63790338760059     -1.41326794859691
  C   1.66264469635333      0.48714611099790     -0.81096941515857
  H   1.61097783591705      1.56960500460944     -0.93012481838920
  H   1.37917958076854      0.02365804208782     -1.75573568029867
  H   2.68442780835645      0.20554538133568     -0.55277864445964
  N   0.76245415263136     -1.42568431144717      0.43595400339842
  O   -0.09412507871328     -2.07920490063696     -0.16262403333280
  O   1.68516255843113     -1.89020214449711      1.09241448031068
