17
Coordinates from ORCA-job run
  C   -0.71077976578830      0.53658208800913     -0.13849201147236
  C   0.72957269961606      0.19462777771631      0.22001204294277
  F   -0.73069185595150      1.86622050107012     -0.47917528678004
  H   1.07791205828712      0.94932319938857      0.92295972095780
  N   -1.56764263684766      0.52768556240421      1.16806473046383
  O   -2.77059612884441      0.34803041763832      1.02069328889612
  O   -0.98555626461605      0.75807709286610      2.22268762084401
  N   -1.27103292421145     -0.20517632760470     -1.17379138314789
  H   -1.22474993110720     -1.19272251748976     -0.95877136655132
  H   -2.23322842125430      0.07240212578590     -1.32584208585356
  C   1.62451913016330      0.11379493417810     -1.00377224920924
  H   2.66029593669473     -0.02132377199015     -0.68944602943547
  H   1.32436712953329     -0.70933257922673     -1.65195860475864
  H   1.54197342395524      1.04298289410918     -1.56803456312980
  N   0.81241063083198     -1.09816991941682      0.96971264077379
  O   1.77008227462278     -1.23161425766239      1.72017311880914
  O   -0.04785535508364     -1.95138721977540      0.74398041665088
