17
Coordinates from ORCA-job run
  C   -0.76580806531797      0.40838978377307      0.02286684524455
  C   0.66851766115182      0.06113482185410      0.41686673423677
  F   -0.97795832631035      1.73207572041203      0.29688882561543
  H   0.72515289327850      0.10093760078214      1.50522449823182
  N   -1.75099023531258     -0.28430845851031      1.02352885008393
  O   -1.52714289704262     -0.10652189519851      2.21224014903983
  O   -2.68914577622012     -0.90297606901136      0.53426998964933
  N   -1.05644531476124      0.15963119637677     -1.31608798686251
  H   -0.79219101246443     -0.76772764022488     -1.61799554977322
  H   -2.03720177851632      0.31158725038496     -1.51458270305492
  C   1.68133162677768      0.96144040212262     -0.25142645808427
  H   1.52315992800785      1.98345131285560      0.09314847264548
  H   2.69102468318945      0.65237165127384      0.02009209996263
  H   1.57952781760599      0.93013936856223     -1.33407636972319
  N   0.87508762336970     -1.38605668809006      0.06068371739308
  O   1.60204961923163     -1.65522884974699     -0.89317428929750
  O   0.25203155333300     -2.20033950761526      0.74053317469277
