17
Coordinates from ORCA-job run
  C   -0.73611849643722      0.43219771500013     -0.00231705968959
  C   0.70634933254899      0.06297017328238      0.32982274188060
  F   -0.74911994544323      1.80673871035706     -0.24358903140822
  H   0.93284000653305      0.47506400522240      1.31377216112295
  N   -1.63180436555690      0.32147626392045      1.24030623587652
  O   -2.75318363273515     -0.14565551758263      1.08520046549659
  O   -1.17161410334570      0.79430227271365      2.26905895557000
  N   -1.27819847699917     -0.34691222957633     -1.01438575758849
  H   -2.27594897134390     -0.22378173014500     -1.11486814268750
  H   -0.78924423126392     -0.24082978359940     -1.89141791036115
  C   1.69877746041195      0.52827330013605     -0.71382721179266
  H   1.49467319347295      0.09708410011269     -1.69375132080056
  H   1.66682923428460      1.61531167054777     -0.77987805740893
  H   2.70449920243275      0.22263304933954     -0.42607509395159
  N   0.73202590204920     -1.43151523870013      0.50163274029751
  O   0.08762263576270     -1.86762424318620      1.45091223184784
  O   1.36261525562900     -2.09973251784243     -0.31059594640333
