16

C	-0.595076	0.012181	-1.410816
C	0.0	0.0	0.0
Cl	0.083002	-1.293436	-2.382681
H	1.091049	0.0	0.0
N	-2.009823	-0.096501	-1.376238
H	-2.393305	0.698618	-0.87419
H	-2.372137	-0.087188	-2.321856
N	-0.169002	1.317282	-2.145479
O	0.78832	1.940457	-1.709428
O	-0.851814	1.617105	-3.124424
N	-0.380095	-1.241829	0.651738
H	0.312419	-1.457466	1.356703
H	-1.301314	-1.192201	1.063062
C	-0.502639	1.192974	0.705464
N	-1.01343	2.080503	1.284284
Br	3.439737	0.0	0.0
