16

C	-0.32081	0.058045	-1.517984
C	0.0	0.0	0.0
Cl	-2.063417	0.321091	-1.792679
H	1.096055	0.0	0.0
N	0.430093	1.027695	-2.238522
H	0.143215	1.951078	-1.934701
H	1.41692	0.898941	-2.006237
N	0.029423	-1.323265	-2.092904
O	-0.770003	-2.23661	-1.906512
O	1.119989	-1.419135	-2.638184
N	-0.490346	-1.112465	0.775455
H	0.178471	-1.868655	0.71691
H	-1.385568	-1.433668	0.430976
C	-0.435614	1.278698	0.57502
N	-0.788777	2.307987	1.017597
Br	3.396374	0.0	0.0
