16

C	-0.302481	-0.039496	-1.503328
C	0.0	0.0	0.0
Cl	-0.304376	1.676547	-2.188447
H	1.094787	0.0	0.0
N	0.573874	-0.908219	-2.131041
H	0.47466	-0.92	-3.135007
H	1.53558	-0.759681	-1.823514
N	-1.736304	-0.489326	-1.770425
O	-2.570027	-0.238871	-0.907628
O	-1.956287	-1.035443	-2.844754
N	-0.417625	-1.254214	0.608012
H	-1.291652	-1.143328	1.103741
H	0.305156	-1.558451	1.248156
C	-0.507685	1.182412	0.695689
N	-0.907622	2.072106	1.350893
Br	3.410625	0.0	0.0
