16

C	-0.565512	-0.019302	-1.422401
C	0.0	0.0	0.0
Cl	0.310421	-1.332587	-2.332904
H	1.09417	0.0	0.0
N	-1.959539	-0.152556	-1.408831
H	-2.328998	-0.302065	-2.337949
H	-2.191305	-0.909822	-0.775092
N	-0.24098	1.25258	-2.190822
O	0.543832	2.043193	-1.686113
O	-0.815531	1.377226	-3.26797
N	-0.48675	-1.239044	0.655099
H	0.250075	-1.927326	0.528323
H	-0.54371	-1.06689	1.652246
C	-0.517602	1.156017	0.729669
N	-0.917062	2.047219	1.381571
Br	3.437446	0.0	0.0
