13
Coordinates from ORCA-job run
  C   0.55514633407070     -0.72201563642128      0.11164149331495
  C   -0.73543461894697     -0.30834418218233      0.80114585233270
  F   0.25530620461505     -1.67466807407985     -0.85486032736178
  H   -0.52405963512341      0.26875061733360      1.70038340199837
  H   1.17442060374842     -1.21994967371690      0.86576856836249
  H   -1.33691688011209     -1.18837122530168      1.02522252528261
  C   1.31057462637859      0.41190768813520     -0.54123289745877
  H   1.52344904137422      1.20734682997068      0.17513668891523
  H   0.72751567329964      0.83202608123255     -1.36163811790556
  H   2.25085721861134      0.03549616818797     -0.94543991786945
  N   -1.54510224125511      0.56544860568786     -0.09022875486700
  O   -1.39729394810551      1.78069498795446      0.03875553702522
  O   -2.25746237855488      0.01067781319973     -0.92265405176902
