13
Coordinates from ORCA-job run
  C   0.54775416532848     -0.72685064870128      0.11552397866043
  C   -0.72166070029731     -0.28032469948098      0.82354696709465
  F   0.21419676782766     -1.69707215104323     -0.82192430970108
  H   -0.48291373383320      0.31333462945838      1.70497635378698
  H   1.17729431963298     -1.21558443632642      0.86717679207971
  H   -1.33004766745405     -1.14661122739153      1.08015686610960
  C   1.30328281456505      0.38173597570347     -0.57941986624165
  H   1.54443053201498      1.18868738383913      0.11479146248230
  H   0.70725474447849      0.79303093681119     -1.39491672341809
  H   2.22843021972419     -0.01698972369314     -0.99694796298875
  N   -1.53926457189936      0.58449068390091     -0.06937638288242
  O   -1.37234443377478      1.80013795266082      0.02841661089098
  O   -2.27741245631313      0.02101532426268     -0.87300378587267
