13

C	-0.267659	-0.14019	-1.474185
C	-0.086306	-0.044573	0.05734
F	-0.152221	-1.51176	-1.747405
H	0.987355	-0.178924	0.211477
H	-0.670071	-0.821025	0.559332
C	-1.648979	0.234781	-1.874046
N	-2.74169	0.535769	-2.181362
N	0.690971	0.564567	-2.22783
H	0.409871	1.526155	-2.372936
H	1.613284	0.535548	-1.693347
C	-0.470351	1.268927	0.553381
N	-0.789275	2.32716	0.950548
H	2.765138	0.353187	-0.617474
