13

C	-0.466126	0.020551	-1.396043
C	-0.015717	0.064803	0.048551
F	-0.119647	1.202937	-2.024627
H	1.07701	0.074845	0.034527
H	-0.27703	-0.876172	0.54495
C	0.22286	-1.071635	-2.145046
N	0.510058	-1.971766	-2.8446
N	-1.898189	-0.105688	-1.514199
H	-2.150235	-0.376	-2.458305
H	-2.235868	-0.809491	-0.871307
C	-0.606697	1.184596	0.757609
N	-1.039443	2.086161	1.375815
H	2.600329	-0.341138	-0.274014
