16

C	0.0	0.0	0.0
C	-0.589953	-0.21194	-1.397622
F	1.352245	0.0	0.0
H	-1.683687	-0.017475	-1.276631
N	-0.354745	1.425138	0.455595
O	-0.837205	2.199436	-0.361788
O	-0.045898	1.694389	1.611614
C	-0.500917	-0.99023	1.013217
H	-0.136736	-1.982309	0.741482
H	-1.592281	-0.97323	1.02519
H	-0.101804	-0.711783	1.987398
C	-0.400744	-1.60673	-1.804087
N	-0.247696	-2.721971	-2.138276
C	0.013073	0.655215	-2.411899
N	0.506954	1.295405	-3.263403
Cl	-3.582941	0.0	0.0
