16

C	0.0	0.0	0.0
C	-0.326384	-0.094014	-1.521594
F	1.383861	0.0	0.0
H	-0.224509	-1.164089	-1.749769
N	-0.351254	1.380968	0.526318
O	-0.532305	2.265246	-0.303468
O	-0.30877	1.521894	1.743163
C	-0.532905	-1.091054	0.861405
H	-0.190483	-0.936806	1.883002
H	-0.149405	-2.043459	0.488471
H	-1.624093	-1.06669	0.814761
C	0.725334	0.592325	-2.295058
N	1.555992	1.091235	-2.956196
C	-1.599738	0.338766	-2.123436
N	-2.317015	0.634274	-3.011097
Cl	-3.516347	0.0	0.0
