16

C	0.0	0.0	0.0
C	-0.379113	-0.429708	-1.457233
F	1.356323	0.0	0.0
H	-0.434058	-1.523894	-1.420852
N	-0.355941	1.461669	0.222324
O	-0.352111	1.855199	1.382757
O	-0.484491	2.15599	-0.780142
C	-0.506909	-0.891142	1.088617
H	-1.597463	-0.904783	1.058246
H	-0.155794	-0.511108	2.047242
H	-0.096723	-1.891144	0.921945
C	0.730588	-0.08648	-2.370058
N	1.565225	0.178257	-3.151325
C	-1.589329	0.037254	-2.154145
N	-2.275968	0.305	-3.072385
Cl	-3.465159	0.0	0.0
