15
Coordinates from ORCA-job run
  C   -0.33972111793285      0.27796219802305      0.46670113298386
  C   1.00658275253516      0.46117251807621     -0.27027338857864
  Cl  -0.20066533172936      1.02994332052997      2.06450035653061
  H   1.23731111758094      1.53059633071337     -0.29328024171102
  N   -1.38200719559884      1.10240223144154     -0.30115491835060
  O   -0.97175322813633      2.09823189894272     -0.88759974728312
  O   -2.54279242060596      0.72431366764691     -0.22737773021797
  C   -0.78543130477902     -1.15740324281612      0.57611553465956
  H   -0.03021608972940     -1.73003969187508      1.11648266407322
  H   -0.92313044163434     -1.58381228376166     -0.42005246482382
  H   -1.72892452377638     -1.21217326084221      1.11473198720947
  C   0.89478644207742     -0.02734822801701     -1.64817737414975
  N   0.77695120390213     -0.43256161790835     -2.74399601685368
  C   2.07057587865570     -0.25185206824775      0.43993242273933
  N   2.91743425917115     -0.82843177190561      1.01344778377257
