15
Coordinates from ORCA-job run
  C   -0.27129750874725      0.26184783360098      0.37419591574764
  C   0.82723223674861     -0.13399104415253     -0.63914818590842
  Cl  0.38291985317343      1.37201924906752      1.56322604829587
  H   0.35899535032653     -0.78537885451044     -1.38530719085222
  N   -1.37330972823639      0.95507094016623     -0.44817195884096
  O   -1.87876447408197      1.97810922437761     -0.01995161618826
  O   -1.68623484589057      0.34828871895292     -1.46911860985258
  C   -0.90776203691635     -0.94251507763564      1.03866855517968
  H   -0.16514568966669     -1.47174426408375      1.63662564874048
  H   -1.71133504743330     -0.60845756121505      1.69697276005761
  H   -1.31662654467283     -1.61215614726664      0.27949982102737
  C   1.89151289100771     -0.87895325145058      0.03483276694729
  N   2.72293743232196     -1.50454726900377      0.57878695191204
  C   1.35930000666077      1.04021491112083     -1.33536581663240
  N   1.76657810540631      1.98219259203231     -1.90574508963313
