15
Coordinates from ORCA-job run
  C   -0.27294521985809      0.25774082940424      0.36621355289473
  C   0.83677460619845     -0.12930378205798     -0.63693041427083
  Cl  0.37274889618821      1.35456555896633      1.57512689526802
  H   0.38147608825351     -0.77135260377734     -1.39822770450395
  N   -1.37403339010087      0.96544669257055     -0.44325643853714
  O   -2.00817185206636      1.85450425786607      0.09887794252105
  O   -1.56990324041214      0.49616271480465     -1.56089552307655
  C   -0.92120443683750     -0.95039620422455      1.01209819271838
  H   -1.72317102488909     -0.61714238258019      1.67240843167290
  H   -1.33480782537960     -1.60490979236118      0.24132413452221
  H   -0.18563246806162     -1.49710717240001      1.60287973284258
  C   1.88881189368475     -0.88336019039753      0.04717540192691
  N   2.71091540353711     -1.51641325210825      0.59661613876797
  C   1.38516506167214      1.04987986870172     -1.31175906267450
  N   1.81197750807111      1.99468545759346     -1.86265128007180
