15
Coordinates from ORCA-job run
  C   -0.30737665928009      0.10869544770458      0.53038708653021
  C   1.10613356150837     -0.09426347435625     -0.05283597538843
  Cl  -0.13380888580416      0.67856635836359      2.19596589083724
  H   1.58129301003669     -0.83872432114110      0.59937481143164
  N   -1.04518586055529      1.19367119567019     -0.25775049072517
  O   -0.45682985051851      1.68908182913780     -1.21357282772190
  O   -2.18011296444206      1.44622904525309      0.11869047791469
  C   -1.14720907355040     -1.14888759342128      0.47738187892738
  H   -1.31518225472168     -1.44633004363145     -0.56033017220092
  H   -0.63780829739742     -1.95594474696402      1.00689816346347
  H   -2.10714430614548     -0.95864785993963      0.95510879460965
  C   1.93555794066629      1.11315711598098     -0.00548462624639
  N   2.64518667419240      2.04522550833233      0.06824364342690
  C   1.05494749275989     -0.65839362088583     -1.40478500850365
  N   1.00753947325143     -1.17243484010300     -2.45929164635470
