15
Coordinates from ORCA-job run
  C   -0.26022869244054      0.18887526695703      0.53314708248993
  C   1.09268271413358     -0.16692362004776     -0.11690960138248
  Cl  0.06816743340747      0.93978190846786      2.10074245118012
  H   1.57648808435016     -0.85703713521651      0.58668691059803
  N   -0.99810130206758      1.21589949424542     -0.32886894487597
  O   -0.45906724007402      1.55788239256496     -1.37654959171934
  O   -2.08645140472954      1.57989208548603      0.09131356630706
  C   -1.16575750326715     -1.01294756519513      0.69241215705441
  H   -1.42587794553617     -1.42150237698840     -0.28683515378541
  H   -2.07623295188499     -0.70919787453532      1.20679850806826
  H   -0.66084660784943     -1.78020717165742      1.28193376924727
  C   1.98464371293536      0.98528323106604     -0.27451248636156
  N   2.74464103992229      1.87523850511848     -0.36446471130158
  C   0.90982189857939     -0.88225988127507     -1.38325875569671
  N   0.75611876452116     -1.51277725899023     -2.36163519982204
