15
Coordinates from ORCA-job run
  C   -0.34857531234257      0.25893606974127      0.47257112922758
  C   1.01509912806034      0.46284155504775     -0.22588083546707
  Cl  -0.23970186698165      0.93866816950372      2.10465041048339
  H   1.25480083963838      1.53011382596149     -0.19391123987693
  N   -1.36382819544306      1.12713461850439     -0.28346258153199
  O   -2.52355734701282      0.73864260384557     -0.28924327164874
  O   -0.93494757032371      2.16091978781118     -0.78424077234488
  C   -0.80795720691882     -1.17569218826618      0.50884153495698
  H   -0.92599671728746     -1.55742058215811     -0.50767326246641
  H   -0.06983892833875     -1.77748055057090      1.04109719826601
  H   -1.76408886077125     -1.24576534947528      1.02288171008284
  C   0.92802264982214      0.04089045200196     -1.62738906374868
  N   0.82998903757289     -0.31122855318504     -2.74336400086070
  C   2.05855718019657     -0.29173263790485      0.47129487828195
  N   2.89202317012980     -0.89882722085696      1.03282816664671
