15
Coordinates from ORCA-job run
  C   -0.30589495135002      0.19927561977453      0.37262426728086
  C   0.87408217421891     -0.00875472155070     -0.60216859197826
  Cl  0.21196554113186      1.18385241197627      1.73202104030631
  H   0.49773350480394     -0.57658664738430     -1.45940024261846
  N   -1.40904048718237      0.93603685230494     -0.40652183174377
  O   -2.16582989090611      1.65654094793858      0.22197642452206
  O   -1.48639939359365      0.64659326246019     -1.59744147924785
  C   -0.91225409058100     -1.10777450209850      0.84253905805120
  H   -1.76477122088525     -0.89503314732803      1.48912445627964
  H   -0.17562725343566     -1.67902858001562      1.40836263224231
  H   -1.24741502339313     -1.69125310600560     -0.01879397694254
  C   1.92912228112951     -0.78600255745592      0.05104488445236
  N   2.75733285786651     -1.43453019725368      0.57253753335803
  C   1.39280956051905      1.26769944218039     -1.10048486096434
  N   1.80318639165742      2.28996492245747     -1.50641931299751
