15
Coordinates from ORCA-job run
  C   -0.30790675496785      0.19141710566707      0.38759219009397
  C   0.87582140455145     -0.00731863206955     -0.58716825459056
  Cl  0.21317396893383      1.11987545534110      1.78083016039678
  H   0.48885217442438     -0.54609012508443     -1.45900411663126
  N   -1.37614856327631      0.97223215420890     -0.39994761539016
  O   -1.58804601136706      0.52673581746260     -1.52464372782875
  O   -1.95485394222410      1.89753171408239      0.14260007985729
  C   -0.93954676774722     -1.12081434722617      0.80734667638967
  H   -0.22086286012533     -1.71237393272422      1.37548285187063
  H   -1.80385388427990     -0.91816687959634      1.44201564221149
  H   -1.26129566624362     -1.67739837595509     -0.07517990423125
  C   1.91879763024349     -0.81702675734198      0.04402437843651
  N   2.73425385417985     -1.49367715834541      0.54969038292167
  C   1.40724668206524      1.27740562975324     -1.04944699540474
  N   1.81336873583323      2.30966833182786     -1.43419174810130
