15
Coordinates from ORCA-job run
  C   -0.35463434722081      0.25437080202867      0.47067181814493
  C   1.01261600042578      0.47361703954774     -0.21617773673163
  Cl  -0.26625517595052      0.93199403771352      2.10473357008961
  H   1.24125543044300      1.54316210163646     -0.17900428295144
  N   -1.37103953070362      1.11443497179436     -0.29342542652732
  O   -2.52335892097876      0.70566933380848     -0.32774863358484
  O   -0.95073184558666      2.16217965672131     -0.77180404547059
  C   -0.79999568102273     -1.18475174138816      0.50085474778683
  H   -1.75900839027742     -1.26530070509959      1.00799649678067
  H   -0.05981132119496     -1.77968832024599      1.03786720007684
  H   -0.90719097993742     -1.56611968763086     -0.51686105892873
  C   0.93966957693810      0.05532624110952     -1.61968046389278
  N   0.85160716774877     -0.29593252026652     -2.73672411641303
  C   2.05799948154571     -0.27303921858497      0.48640644432426
  N   2.88987853577150     -0.87692199114401      1.05389548729723
