15
Coordinates from ORCA-job run
  C   -0.40047340303226      0.27396663607134      0.39011100413612
  C   1.07059633590111      0.29023937676576     -0.07392180127438
  Cl  -0.67145254528624      1.70535798444409      1.39380356087838
  H   1.66307475706391      0.27587762853750      0.85025197073261
  N   -1.33005681679648      0.37270897090024     -0.82149089859118
  O   -2.52715113141752      0.37504056406453     -0.57492759746713
  O   -0.80421111226607      0.40375228604679     -1.92957757156858
  C   -0.76114309437930     -0.98729491249240      1.14440275520944
  H   -0.66974478778194     -1.85701183952091      0.48945131584783
  H   -0.09576003852148     -1.10833252294222      2.00113072610374
  H   -1.78848195361463     -0.91164209756664      1.49768225565120
  C   1.43830304216244      1.50700522434189     -0.80354217931524
  N   1.78158929304505      2.49112264498386     -1.34350932833846
  C   1.40811948544281     -0.91599220269440     -0.83518260197584
  N   1.68679196948055     -1.91479774093941     -1.38568161002851
