15
Coordinates from ORCA-job run
  C   -0.30294654367706      0.19316405766192      0.39062362878322
  C   0.86461587578612     -0.00819082936879     -0.60281352457211
  Cl  0.23351050617872      1.14844336078156      1.75942571768609
  H   0.46934235468885     -0.56761942851147     -1.45777220375174
  N   -1.39366212000807      0.95096942556304     -0.38903038599886
  O   -1.62145777873117      0.48578316521899     -1.50260437543449
  O   -1.97145503520197      1.87905987843062      0.14952534674604
  C   -0.91294531724204     -1.11889736993937      0.84138750256150
  H   -1.24705957386192     -1.69043616466082     -0.02684734798102
  H   -0.17757185785822     -1.69611501014196      1.40286991068177
  H   -1.76634266691763     -0.91579905089243      1.49052929540832
  C   1.93036193166429     -0.79232912009860      0.02300206254475
  N   2.76621605963725     -1.44752746659408      0.52344497804496
  C   1.37107715315636      1.27490954317966     -1.09693528987953
  N   1.75931701238650      2.30558500937167     -1.50380531483892
