15
Coordinates from ORCA-job run
  C   -0.35728177144611      0.25187958500256      0.47116502309907
  C   0.99525906034541      0.50004946842962     -0.23513989420628
  Cl  -0.27252785386535      0.96431164499271      2.09055233712061
  H   1.19329033864316      1.57615594441019     -0.21548420917831
  N   -1.40770193084346      1.06445312943239     -0.29867156694147
  O   -2.54613242948539      0.61750146010989     -0.31719767848605
  O   -1.02554770523916      2.11721898039400     -0.79772237763173
  C   -0.75660264963882     -1.19947448706647      0.53468089517021
  H   -1.71027050410890     -1.29940678632252      1.04843319697017
  H   -0.85604923055505     -1.60600393885773     -0.47414088149383
  H   0.00464703505611     -1.75902686079007      1.08021045634539
  C   0.91848474672291      0.06130479263989     -1.63208616698821
  N   0.82643454369903     -0.29785277257771     -2.74642413894238
  C   2.06933637280427     -0.20699707975483      0.46503474978869
  N   2.92566197791132     -0.78311308004192      1.02479025537414
