15
Coordinates from ORCA-job run
  C   -0.30057132061622      0.34582098311420      0.45129371506521
  C   0.99680202184335      0.39263427993107     -0.38780262057780
  Cl  -0.03542681101347      1.28598547134342      1.92891208643345
  H   1.25171438657301      1.44363623276400     -0.55496727913280
  N   -1.36809886757850      1.10335132131836     -0.35066853860825
  O   -2.52731670529604      0.74166612967387     -0.20429405417040
  O   -0.97329134403666      2.03557981901824     -1.04237109715295
  C   -0.77291612805471     -1.04888949270980      0.77011500305763
  H   0.00217852092622     -1.57241342957987      1.33170618457195
  H   -0.98603610085849     -1.59301039505375     -0.15257059117698
  H   -1.68019986844391     -1.00525808171686      1.36872214928132
  C   0.77665261368295     -0.25302202130846     -1.68565328099509
  N   0.57205465240996     -0.79739287143116     -2.70588719332003
  C   2.08900311881836     -0.26654898400798      0.33093569594171
  N   2.95745183164410     -0.81213896135527      0.90252982078299
