15
Coordinates from ORCA-job run
  C   -0.29275157348860      0.13146087463647      0.56493723499707
  C   1.07832120737369     -0.14198619464436     -0.10455814904137
  Cl  0.00248800834347      0.78544138285060      2.17591769518980
  H   1.56873889365480     -0.90551876415308      0.51277184820978
  N   -0.99146121888517      1.20532819526888     -0.28189919801868
  O   -0.59365607415538      2.35572363577452     -0.16402150957608
  O   -1.85362265357192      0.79878648049335     -1.05456918544578
  C   -1.14491772935054     -1.11424769868802      0.64297912651090
  H   -2.10681187469766     -0.87195335016649      1.09501675884730
  H   -0.63948688684661     -1.85036618045290      1.27080797414570
  H   -1.32080835325591     -1.53030869285091     -0.34785884052527
  C   1.95679890269215      1.03119468217662     -0.14562626344461
  N   2.70714083615838      1.93344064526444     -0.18516993313368
  C   0.89371100057225     -0.68785866610510     -1.45351201884669
  N   0.73731751545704     -1.14013634940404     -2.52621553986839
