15
Coordinates from ORCA-job run
  C   -0.29210697737076      0.20131650078017      0.39479299368477
  C   0.85895501724095     -0.03043376390172     -0.61094730837057
  Cl  0.28895875462667      1.12129570575901      1.76935325304027
  H   0.43413261901359     -0.55860038971238     -1.47156393379854
  N   -1.36201837120724      1.00597092686479     -0.36733515487506
  O   -1.61498435713423      0.56241462618861     -1.48430781664419
  O   -1.90327891708879      1.94658846925365      0.18737233001908
  C   -0.94539161732042     -1.09285389266850      0.83682295789159
  H   -0.22767384155719     -1.70050891342328      1.38897220928856
  H   -1.78738631413942     -0.86573583883234      1.49287964568496
  H   -1.30424987879325     -1.64470891457050     -0.03428254005317
  C   1.89516120020537     -0.87002340539690     -0.00795392909152
  N   2.70250444067413     -1.57576382656627      0.46992705825596
  C   1.41460509076780      1.23890297929463     -1.08713079449125
  N   1.84377315208277      2.26013973693103     -1.47659897054087
