15
Coordinates from ORCA-job run
  C   -0.29789119038534      0.33700832638087      0.45853647505838
  C   1.00456186841171      0.38390227139327     -0.37269177343465
  Cl  -0.02676252687864      1.23518233564380      1.96079941920003
  H   1.27746534848339      1.43431637250457     -0.51318435405051
  N   -1.34859765406595      1.13139617374763     -0.32995974545260
  O   -2.51363673674492      0.78099116107343     -0.20422152578998
  O   -0.93547217736332      2.07857873178628     -0.98993301253405
  C   -0.79375709530378     -1.05778896926938      0.73939284349719
  H   -1.01051585953307     -1.57487630936101     -0.19787777450292
  H   -0.02995481700152     -1.60755799440933      1.29131763103787
  H   -1.70351862623170     -1.01523636425219      1.33432968973658
  C   0.78034472203374     -0.22520832038311     -1.68733699271625
  N   0.56997166905204     -0.72568026115555     -2.72871028474207
  C   2.08276837928429     -0.30869907718720      0.33561442036782
  N   2.94499469624308     -0.86632807651208      0.90492498432517
