17

C	0.0	0.0	0.0
C	-0.490945	0.154248	-1.444996
Br	1.968596	0.0	0.0
H	-1.589264	0.151985	-1.346923
C	-0.431999	1.189686	0.844486
H	-0.047009	2.125316	0.441982
H	-0.07596	1.056182	1.869984
H	-1.525681	1.203008	0.839746
N	-0.463662	-1.281141	0.464066
H	-1.486421	-1.255336	0.395299
H	-0.232674	-1.383908	1.446807
C	-0.105879	-1.007829	-2.268824
N	0.176151	-1.848457	-3.040352
N	-0.086388	1.423169	-2.03648
H	0.871415	1.354966	-2.360685
H	-0.678635	1.615105	-2.835001
Br	-3.819004	0.0	0.0
