17

C	0.0	0.0	0.0
C	-0.480905	0.01187	-1.466208
Br	1.962222	0.0	0.0
H	-1.577043	0.06072	-1.364483
C	-0.447142	1.269679	0.703238
H	-1.540658	1.285838	0.700887
H	-0.0852	1.246331	1.732117
H	-0.066814	2.148813	0.186599
N	-0.464542	-1.140791	0.737711
H	-0.270868	-1.998397	0.230024
H	-1.480319	-1.039261	0.817595
C	-0.151369	-1.267375	-2.125304
N	0.108373	-2.273288	-2.676258
N	-0.024608	1.175271	-2.212773
H	-0.600468	1.285114	-3.038676
H	0.935502	1.037661	-2.508158
Br	-3.830828	0.0	0.0
