17

C	0.0	0.0	0.0
C	-0.309711	-0.040151	-1.546748
Br	1.972678	0.0	0.0
H	0.369501	-0.800294	-1.948353
C	-0.489765	1.258116	0.697156
H	-0.047868	2.161796	0.27512
H	-0.240942	1.206569	1.760408
H	-1.580857	1.299716	0.60267
N	-0.50002	-1.235334	0.550401
H	-0.249982	-1.289556	1.533085
H	-1.522072	-1.17072	0.511194
C	0.069198	1.242155	-2.16413
N	0.363543	2.255434	-2.678005
N	-1.638138	-0.401694	-1.981766
H	-2.367803	0.156499	-1.542054
H	-1.821375	-1.354095	-1.691111
Br	-4.199205	0.0	0.0
