16
Coordinates from ORCA-job run
  C   -0.68429031302500     -0.47618437191303     -0.18445309996588
  C   0.78254433449471     -0.38846127300984      0.23153101796508
  F   -1.05796223364962     -1.78407583994441     -0.12628036210621
  H   1.37570270517589     -1.05799624649495     -0.38872303704617
  N   -0.79373187483470     -0.15830442712575     -1.70293864790826
  O   0.17074140900305     -0.45441968051327     -2.39998721128171
  O   -1.86268679390058      0.29968409694717     -2.08581969652088
  N   -1.54788670511384      0.28022364052019      0.61640418535629
  H   -1.41405686686212      1.26717070740460      0.43865070327889
  H   -2.50915494366669      0.02456001818028      0.42766767084342
  N   0.91010708830393     -0.71548607689409      1.59752658141766
  H   1.87299700405648     -0.73091947390332      1.90138614680843
  H   0.32737889942377     -0.13848596357542      2.18799208533879
  N   1.33317961039753      1.00441400905917     -0.10850469306839
  O   2.54796978766823      1.12158380004840     -0.00015559806105
  O   0.54714889252897      1.90669708121428     -0.40229604505000
