16
Coordinates from ORCA-job run
  C   -0.53235216409469     -0.13579802918233     -0.55536626327486
  C   0.56121987475612      0.20024730889371      0.47759848768716
  F   -0.00897464971037     -0.07659051083316     -1.79761490556866
  H   0.08420320126222      0.40066630226771      1.43653226067337
  N   -1.53663399666430      1.01459203049851     -0.42693043434331
  O   -2.19356248566133      1.00441225028081      0.61023597055954
  O   -1.58692992608134      1.83761561191829     -1.32712968955730
  N   -1.26960155229772     -1.33338818428265     -0.41937867464663
  H   -0.67574648787562     -2.13716985343607     -0.57696520213563
  H   -1.73521024559595     -1.38858925133456      0.47618610598732
  N   1.43936447718245      1.24492663913363      0.09722225703415
  H   1.27645086178874      2.10936286479855      0.58645887022006
  H   1.49836765328915      1.37692729448910     -0.90109504168721
  N   1.35906317884625     -1.06781223811330      0.71589849568883
  O   1.82599256901999     -1.61923515729554     -0.27735126031759
  O   1.49234969183639     -1.43216707780269      1.88069902368075
