16
Coordinates from ORCA-job run
  C   -0.66437889017259     -0.41079727568032     -0.13153567142092
  C   0.81342529208180     -0.32538584857455      0.25297567057087
  F   -1.04182874728180     -1.71918309012995      0.01644301321935
  H   1.35723102573548     -1.09563932311569     -0.29032004682410
  N   -0.80727902587837     -0.19060015634134     -1.66079284261133
  O   0.14104860450080     -0.53807205968920     -2.35734314477436
  O   -1.88033637217447      0.25411619102814     -2.04977581619880
  N   -1.50611749506777      0.38941582405971      0.64150314963837
  H   -1.25814837308926      1.36442139933404      0.52812355646176
  H   -2.47415316438799      0.24015821746595      0.38469778282048
  N   1.00780601381120     -0.39073793504835      1.65640758215179
  H   0.14607506073100     -0.26162620313151      2.16744161300790
  H   1.50061410368876     -1.21856606608045      1.94752321782966
  N   1.40508068177380      0.97788085486676     -0.26266948322634
  O   2.60323345356075      0.97061591655935     -0.50180031355900
  O   0.65672783216865      1.95399955447739     -0.34287826708534
