16
Coordinates from ORCA-job run
  C   -0.62873674402129     -0.47580175471459     -0.42422621219786
  C   0.65653019263582     -0.36198663193562      0.40740541405879
  F   -0.50644727423358     -1.50584877991637     -1.31456475476100
  H   1.03123494177499     -1.38310991812023      0.52333693960193
  N   -0.82119186658460      0.78653062378193     -1.27720918998789
  O   -0.47362070706774      1.82984215394111     -0.73277471665188
  O   -1.37339630531667      0.66568454766123     -2.35802805681250
  N   -1.76274016574576     -0.57687593692845      0.38657039909295
  H   -1.57015304979716     -0.94513625387905      1.30522415451797
  H   -2.53048417680307     -1.03250867932416     -0.08659165293711
  N   0.44361216460802      0.23113984601201      1.67093610895490
  H   1.28764304531622      0.20691982524070      2.22656318641181
  H   0.14426192009974      1.19241036796764      1.56025151448137
  N   1.75819780656749      0.31333796744907     -0.43540043996477
  O   1.79591783663082      0.03137562400216     -1.62633006718332
  O   2.54737238193678      1.02402699876262      0.17383737337660
