16

C	-0.508712	0.020052	-1.454564
C	0.0	0.0	0.0
Br	0.245489	-1.495968	-2.47095
H	1.100685	0.0	0.0
C	-1.964674	-0.127122	-1.487357
N	-3.138888	-0.199083	-1.485991
C	-0.140357	1.243464	-2.169225
N	0.098827	2.24431	-2.738589
N	-0.446511	-1.240097	0.614603
H	-1.105026	-1.062915	1.361804
H	0.372044	-1.699653	1.000939
C	-0.45899	1.243551	0.745422
H	-1.546918	1.268196	0.888192
H	0.028495	1.232338	1.724327
H	-0.146958	2.15974	0.238798
H	2.761713	0.0	0.0
