16

C	-0.515049	-0.022362	-1.452351
C	0.0	0.0	0.0
Br	0.11695	1.54707	-2.480645
H	1.099274	0.0	0.0
C	-0.052725	-1.216723	-2.16294
N	0.273835	-2.161787	-2.780566
C	-1.978464	0.013452	-1.478179
N	-3.152319	0.085826	-1.456547
N	-0.408959	-1.283885	0.563307
H	0.425116	-1.737588	0.927125
H	-1.077921	-1.166096	1.314098
C	-0.502347	1.190281	0.791402
H	-0.25297	2.135843	0.307118
H	-1.586772	1.151788	0.955512
H	0.004185	1.174155	1.760417
H	2.764202	0.0	0.0
