16

C	-0.504058	-0.017085	-1.455937
C	0.0	0.0	0.0
Br	0.229089	1.493827	-2.497039
H	1.099362	0.0	0.0
C	-0.093549	-1.246768	-2.135738
N	0.214333	-2.224917	-2.70931
C	-1.961922	0.099869	-1.509931
N	-3.129945	0.23686	-1.519322
N	-0.469377	-1.268719	0.573028
H	-0.838147	-1.107796	1.50275
H	0.345814	-1.868464	0.666398
C	-0.51233	1.192274	0.77879
H	-0.274732	2.130565	0.275698
H	-1.594764	1.142066	0.945714
H	-2.4e-05	1.201161	1.744357
H	2.801242	0.0	0.0
