16

C	-0.425637	-0.024203	-1.491338
C	0.0	0.0	0.0
Br	0.296455	1.516794	-2.50792
H	1.095592	0.0	0.0
C	0.053373	-1.239759	-2.15465
N	0.413495	-2.202861	-2.725005
C	-1.882466	0.032123	-1.61606
N	-3.058902	0.068165	-1.630792
N	-0.394	-1.230379	0.661083
H	0.268752	-1.964526	0.437327
H	-1.339	-1.529096	0.44393
C	-0.546365	1.204362	0.738327
H	-1.636226	1.159787	0.852199
H	-0.093039	1.196445	1.731284
H	-0.275235	2.139961	0.246526
H	2.765667	0.0	0.0
