16

C	-0.521479	0.012604	-1.44813
C	0.0	0.0	0.0
Br	0.269116	-1.47632	-2.480412
H	1.111455	0.0	0.0
C	-1.972311	-0.180995	-1.464842
N	-3.141192	-0.303386	-1.415689
C	-0.20197	1.249396	-2.162695
N	-0.004502	2.257926	-2.734627
N	-0.431076	-1.245131	0.616746
H	-1.09067	-1.077118	1.366751
H	0.394898	-1.693589	1.001129
C	-0.460467	1.239578	0.749917
H	-0.154006	2.158159	0.243911
H	-1.548254	1.26013	0.89806
H	0.031216	1.227776	1.727185
H	2.747175	0.0	0.0
