16

C	-0.470084	0.028747	-1.406557
C	0.0	0.0	0.0
Br	-2.58419	0.032254	-1.558809
H	1.103031	0.0	0.0
C	-0.079888	1.232401	-2.12667
N	0.240338	2.214934	-2.688232
C	-0.084151	-1.164507	-2.147884
N	0.222418	-2.119797	-2.759943
N	-0.344295	-1.279717	0.595762
H	-1.110506	-1.178988	1.251103
H	0.477574	-1.610799	1.093496
C	-0.398459	1.219174	0.807845
H	0.167881	1.200218	1.744538
H	-1.472052	1.220851	1.031474
H	-0.148577	2.15029	0.292465
H	2.556146	0.0	0.0
