16

C	-0.509321	0.136733	-1.448244
C	0.0	0.0	0.0
Br	0.177222	1.78337	-2.310758
H	1.112102	0.0	0.0
C	-0.077692	-0.991409	-2.276652
N	0.219132	-1.873926	-2.993953
C	-1.970092	0.22372	-1.478489
N	-3.140042	0.334096	-1.43797
N	-0.419565	-1.331398	0.428405
H	-1.075442	-1.284223	1.198646
H	0.412852	-1.83179	0.728834
C	-0.494781	1.107485	0.908058
H	-0.235346	2.094963	0.521183
H	0.01016	0.98962	1.871348
H	-1.580159	1.063716	1.066437
H	2.754677	0.0	0.0
