16

C	-0.488632	-0.152701	-1.453841
C	0.0	0.0	0.0
Br	0.264392	-1.788158	-2.266639
H	1.110795	0.0	0.0
C	-1.944999	-0.287762	-1.495444
N	-3.119737	-0.350837	-1.476192
C	-0.089566	0.969623	-2.304594
N	0.184216	1.886093	-2.988668
N	-0.454242	-1.15552	0.755415
H	-1.120908	-0.88925	1.468704
H	0.359609	-1.564582	1.203478
C	-0.460652	1.326077	0.583375
H	-0.128548	2.172596	-0.022182
H	-1.551163	1.376632	0.699894
H	0.006761	1.428095	1.567097
H	2.755831	0.0	0.0
