16

C	-0.506243	-0.149353	-1.447579
C	0.0	0.0	0.0
Br	0.167257	-1.831016	-2.240199
H	1.112125	0.0	0.0
C	-1.967435	-0.211963	-1.481896
N	-3.14374	-0.196743	-1.46811
C	-0.065288	0.939838	-2.319965
N	0.227942	1.827316	-3.033739
N	-0.479279	-1.145825	0.763119
H	0.335609	-1.691855	1.028451
H	-0.94034	-0.837902	1.60916
C	-0.458696	1.323284	0.586677
H	-1.543064	1.356382	0.746847
H	-0.167232	2.166607	-0.043298
H	0.049026	1.448778	1.54722
H	2.76584	0.0	0.0
