16

C	-0.4534	0.001971	-1.437764
C	0.0	0.0	0.0
Br	-2.498609	-0.012025	-1.604185
H	1.097702	0.0	0.0
C	-0.032448	1.195442	-2.167841
N	0.305735	2.156406	-2.755313
C	-0.020834	-1.200563	-2.143593
N	0.328358	-2.162914	-2.72107
N	-0.374182	-1.265315	0.607641
H	0.450887	-1.62913	1.076831
H	-1.114597	-1.143008	1.287426
C	-0.428892	1.233725	0.769491
H	-1.508251	1.243044	0.960478
H	0.106434	1.22997	1.723281
H	-0.155496	2.153931	0.245999
H	2.650187	0.0	0.0
