16

C	-0.509878	-0.22421	-1.436956
C	0.0	0.0	0.0
Br	0.142645	1.18057	-2.670977
H	1.109876	0.0	0.0
C	-0.055551	-1.511269	-1.968992
N	0.261023	-2.539991	-2.441839
C	-1.972326	-0.176919	-1.474025
N	-3.146058	-0.100223	-1.436091
N	-0.410618	-1.190154	0.737268
H	0.41675	-1.578182	1.181301
H	-1.102788	-0.97492	1.443766
C	-0.4969	1.292853	0.614498
H	-0.004525	1.402743	1.584442
H	-1.583782	1.291255	0.766322
H	-0.226538	2.159975	0.010116
H	2.755711	0.0	0.0
