16

C	-0.506984	0.030625	-1.454235
C	0.0	0.0	0.0
Br	0.085856	1.660188	-2.40993
H	1.110443	0.0	0.0
C	-0.006249	-1.117992	-2.212476
N	0.352663	-2.02912	-2.862069
C	-1.970178	0.022765	-1.486985
N	-3.145971	0.01897	-1.439728
N	-0.398833	-1.309631	0.507219
H	0.429366	-1.759285	0.886519
H	-1.103771	-1.234513	1.229826
C	-0.509866	1.154189	0.838778
H	-0.249126	2.12067	0.403793
H	-0.018372	1.088869	1.813209
H	-1.597006	1.113495	0.985943
H	2.752267	0.0	0.0
