16

C	-0.5075	0.017256	-1.454387
C	0.0	0.0	0.0
Br	0.239414	-1.510224	-2.46253
H	1.109287	0.0	0.0
C	-1.963616	-0.122568	-1.490762
N	-3.137069	-0.201956	-1.465634
C	-0.124941	1.233049	-2.173835
N	0.144589	2.223231	-2.748008
N	-0.450146	-1.237038	0.618719
H	-1.071605	-1.053077	1.395761
H	0.372413	-1.719349	0.966338
C	-0.458219	1.245139	0.742456
H	-0.150291	2.15981	0.230157
H	0.034044	1.239535	1.719433
H	-1.545842	1.26783	0.88989
H	2.754721	0.0	0.0
