16

C	-0.479454	-0.012725	-1.411167
C	0.0	0.0	0.0
Br	-2.573012	0.00215	-1.549602
H	1.09752	0.0	0.0
C	-0.073992	1.164828	-2.17062
N	0.258582	2.113167	-2.781961
C	-0.097249	-1.231229	-2.114587
N	0.230862	-2.200628	-2.693441
N	-0.353279	-1.259992	0.630848
H	0.467541	-1.580838	1.137432
H	-1.122791	-1.143838	1.28014
C	-0.400887	1.244128	0.768131
H	-1.477868	1.264206	0.974074
H	-0.124629	2.158139	0.234046
H	0.150138	1.241397	1.713894
H	2.57585	0.0	0.0
