16

C	-0.501142	-0.14039	-1.450599
C	0.0	0.0	0.0
Br	0.144769	-1.825927	-2.248015
H	1.106021	0.0	0.0
C	-1.963609	-0.180101	-1.484131
N	-3.139177	-0.159371	-1.449945
C	-0.035553	0.950459	-2.309801
N	0.289964	1.844591	-2.999966
N	-0.469114	-1.142327	0.765254
H	0.340971	-1.566424	1.205396
H	-1.117915	-0.856318	1.48565
C	-0.434681	1.337553	0.581186
H	0.064503	1.44665	1.548364
H	-1.520558	1.399405	0.728519
H	-0.112624	2.174656	-0.043133
H	2.759563	0.0	0.0
