12
Coordinates from ORCA-job run
  C   1.30124371891416      0.02408699626477      0.11541494947553
  C   -0.13361956295802     -0.03406611954795     -0.36520518149294
  Cl  1.42698785233424     -0.17249261369877      1.87330563728295
  H   -0.12140321380648      0.18058596901341     -1.44687436218374
  H   1.86924116424591     -0.77884034330739     -0.35797053227974
  H   1.73507896286436      0.98416293994013     -0.15109941405313
  N   -0.90245028705644      1.15681332600746      0.18805340028351
  O   -0.31726558865488      2.23452239696537      0.17229207552701
  O   -2.06337129301957      0.97034326612810      0.52918584565892
  N   -0.79979738103794     -1.23199647325540      0.03225579306157
  H   -0.26421790380198     -2.04615279996646     -0.23525854290289
  H   -1.73142646802337     -1.28696654454326     -0.35309966837707
