12
Coordinates from ORCA-job run
  C   1.22760729719182      0.00898466328547      0.22651925278539
  C   -0.13290329528613     -0.01449325914374     -0.46539890118787
  Cl  1.07197402183129     -0.28728854751570      1.97363890039849
  H   0.03532279600423      0.19985512500290     -1.52385003646511
  H   1.70798899377456      0.97638232854225      0.08664106799810
  H   1.84976097378429     -0.78355495269966     -0.19016827462215
  N   -0.89599128187998      1.19393997134916      0.04519181206808
  O   -0.45758909227580      2.28369909016307     -0.31595804437566
  O   -1.83878693260049      1.00386005092213      0.80098401524711
  N   -0.94651774211929     -1.17417617260868     -0.33605801467093
  H   -1.01203710825224     -1.48580566720821      0.62327926635159
  H   -0.61082863017226     -1.92140263008902     -0.92682104352706
