13

C	0.0	0.0	0.0
C	-0.484068	0.056509	-1.439046
F	1.358619	0.0	0.0
H	0.404056	0.205603	-2.063957
H	-0.390102	-0.84783	0.548482
H	-1.160733	0.901236	-1.543721
N	-0.366919	1.213638	0.80712
O	-0.499067	1.050659	2.016947
O	-0.359733	2.305067	0.242461
N	-1.12688	-1.225886	-1.742548
H	-1.418327	-1.198361	-2.714763
H	-1.976014	-1.097123	-1.160811
F	-2.569303	0.0	0.0
