13

C	0.0	0.0	0.0
C	-0.352292	-0.260303	-1.499725
F	1.36511	0.0	0.0
H	0.595988	-0.081163	-2.023607
H	-0.4166	-0.699619	0.711469
H	-0.557995	-1.337359	-1.545348
N	-0.354809	1.363262	0.508981
O	-0.236428	2.307741	-0.275576
O	-0.576848	1.477589	1.71033
N	-1.415826	0.437163	-2.190146
H	-2.189986	0.344782	-1.501335
H	-1.162495	1.417157	-2.208538
F	-2.528105	0.0	0.0
