13

C	0.0	0.0	0.0
C	-0.485944	0.11211	-1.428132
F	1.353795	0.0	0.0
H	-0.201144	-0.839223	-1.893155
H	-0.405958	-0.869016	0.50396
H	-1.578683	0.16577	-1.323423
N	-0.400692	1.15955	0.8757
O	-0.337046	0.951446	2.08468
O	-0.622529	2.254343	0.367606
N	0.186862	1.196418	-2.170651
H	-0.232869	2.05707	-1.842677
H	-0.092502	1.092381	-3.139243
F	-2.640448	0.0	0.0
