13

C	0.0	0.0	0.0
C	-0.453767	0.243682	-1.443319
F	1.367527	0.0	0.0
H	0.457508	0.44525	-2.02156
H	-0.388752	-0.910299	0.440149
H	-1.0908	1.120751	-1.457224
N	-0.368407	1.095353	0.958406
O	-0.496663	0.776353	2.137654
O	-0.372748	2.2496	0.538376
N	-1.21372	-0.849898	-2.033607
H	-2.024526	-0.841491	-1.388597
H	-0.701602	-1.716337	-1.893459
F	-2.525685	0.0	0.0
