13

C	0.0	0.0	0.0
C	-0.465352	0.231302	-1.440676
F	1.358926	0.0	0.0
H	-1.109088	1.102064	-1.451448
H	-0.397125	-0.901711	0.449947
H	0.436588	0.442466	-2.027578
N	-0.363133	1.110811	0.947607
O	-0.503745	0.808573	2.129754
O	-0.348208	2.260233	0.514465
N	-1.222616	-0.873871	-2.016521
H	-0.699087	-1.736064	-1.880753
H	-2.028396	-0.863991	-1.36553
F	-2.533695	0.0	0.0
