13

C	0.0	0.0	0.0
C	-0.432975	-0.00692	-1.462214
F	1.3603	0.0	0.0
H	-0.279893	-1.038285	-1.805102
H	-0.402125	-0.823193	0.574912
H	-1.50655	0.188003	-1.436093
N	-0.410785	1.235336	0.747264
O	-0.519087	2.291027	0.127379
O	-0.477011	1.136799	1.969718
N	0.309084	0.894215	-2.344638
H	1.301563	0.79166	-2.160772
H	0.064211	1.836177	-2.068628
F	-2.520837	0.0	0.0
