13

C	0.0	0.0	0.0
C	-0.486077	0.124682	-1.434912
F	1.355682	0.0	0.0
H	-1.17814	0.960023	-1.491661
H	-0.391071	-0.87078	0.510398
H	0.398359	0.317964	-2.054516
N	-0.377024	1.177676	0.858389
O	-0.518056	0.963655	2.059014
O	-0.372947	2.293428	0.342711
N	-1.113484	-1.148883	-1.800914
H	-1.961613	-1.06147	-1.212359
H	-1.40932	-1.072504	-2.769248
F	-2.562361	0.0	0.0
