13

C	0.0	0.0	0.0
C	-0.467517	-0.004063	-1.43022
F	1.359736	0.0	0.0
H	-0.14229	0.931455	-1.902225
H	-0.396041	-0.835281	0.562149
H	-1.563884	-0.041757	-1.31911
N	-0.413991	1.231239	0.751549
O	-0.549513	1.116134	1.966216
O	-0.456753	2.295881	0.137776
N	0.082537	-1.211932	-2.064187
H	-0.513633	-1.467822	-2.83819
H	1.003854	-1.022512	-2.434674
F	-2.618246	0.0	0.0
