14

C	0.0	0.0	0.0
C	-0.428984	-0.434157	-1.459294
Br	1.947078	0.0	0.0
H	0.490152	-0.611957	-2.026029
H	-0.321854	-0.782265	0.678658
C	-0.453098	1.28293	0.518415
N	-0.598379	2.340832	1.010605
N	-1.007403	0.764543	-2.18604
O	-0.290444	1.767155	-2.147353
O	-2.048246	0.665519	-2.810858
N	-1.290133	-1.551948	-1.574673
H	-0.783666	-2.389361	-1.312711
H	-2.045346	-1.305236	-0.905219
F	-2.420142	0.0	0.0
