14

C	0.0	0.0	0.0
C	-0.335004	-0.141161	-1.555858
Br	1.944796	0.0	0.0
H	0.135592	0.682217	-2.08535
H	-0.36002	-0.859996	0.529044
C	-0.625086	1.230436	0.502404
N	-0.835507	2.337283	0.848263
N	-1.673652	-0.02156	-2.546584
O	-2.724892	-0.617661	-2.426259
O	-1.253035	0.438403	-3.624435
N	0.05458	-1.45064	-2.117267
H	-0.387204	-2.157151	-1.536314
H	1.045082	-1.517312	-2.072257
F	-2.164137	0.0	0.0
