14

C	0.0	0.0	0.0
C	-0.419718	0.180996	-1.517896
Br	1.947227	0.0	0.0
H	0.504219	0.170278	-2.102688
H	-0.328249	-0.986777	0.310452
C	-0.458082	0.981117	0.974427
N	-0.62941	1.796227	1.804534
N	-0.91292	1.601502	-1.723027
O	-0.143354	2.472216	-1.308116
O	-1.954286	1.805474	-2.32456
N	-1.33925	-0.747431	-2.060469
H	-0.883186	-1.649611	-2.131841
H	-2.098552	-0.736029	-1.342111
F	-2.464874	0.0	0.0
