14

C	0.0	0.0	0.0
C	-0.450418	-0.470173	-1.410016
Br	1.939492	0.0	0.0
H	0.429142	-0.583265	-2.051648
H	-0.316385	-0.767417	0.698551
C	-0.44823	1.292607	0.504724
N	-0.600534	2.327697	1.040922
N	-1.208315	0.634877	-2.160268
O	-2.110083	0.285547	-2.912059
O	-0.747017	1.770294	-2.088541
N	-1.158901	-1.690528	-1.308258
H	-1.440882	-1.985092	-2.234869
H	-1.990149	-1.372535	-0.766894
F	-2.453313	0.0	0.0
