15
Coordinates from ORCA-job run
  C   -0.60984322518534      0.22865138238338      0.55082635479486
  C   0.87559856631720      0.41416128986964      0.14856942965012
  H   -0.95835476905714      1.17445522713896      0.98177851584135
  H   1.41723273805466      0.78192808703441      1.03402483303785
  C   -0.65111193662241     -0.78529688212102      1.60816650957003
  N   -0.64240751109004     -1.61875993193757      2.43559349052786
  C   -1.49952205802163     -0.16795611509186     -0.62888411075486
  H   -1.12389715938725     -1.07947780168446     -1.09087464935189
  H   -1.50190674346018      0.62976613081465     -1.37401705298826
  H   -2.52451034961015     -0.32985202752338     -0.29170682432878
  C   0.96350134854265      1.46310034763089     -0.87446381862493
  N   1.03147505236206      2.31394130844615     -1.68026406783714
  N   1.40221660190717     -0.83621261813656     -0.38790892197966
  H   1.50887792671665     -1.50329673217889      0.36884697070958
  H   2.31465151853377     -0.68515166464436     -0.80068665826614
