15
Coordinates from ORCA-job run
  C   -0.59461628323563      0.40891557596219      0.45421756142251
  C   0.91683903718476      0.32489444676633      0.12104365194595
  H   -0.83082963490814      1.45780019285032      0.66819910222721
  H   1.46803666528396      0.79570315868314      0.94996956421488
  C   -0.81264227689992     -0.35597109559480      1.68523295991965
  N   -0.94507848391799     -0.99469236338482      2.66195285569506
  C   -1.48256807327149     -0.10569166569688     -0.68037736782891
  H   -2.53258404540900     -0.06529604481677     -0.38627954248017
  H   -1.21696382143656     -1.13222777810504     -0.92773652738350
  H   -1.34715194821716      0.51672012921199     -1.56688918054336
  C   1.18335258815717      1.12350285600895     -1.08140821587755
  N   1.39429081456912      1.77359151512304     -2.03568878784211
  N   1.29200378958299     -1.06361555003618     -0.12365700617868
  H   2.23391000946350     -1.11362341413479     -0.49260648025525
  H   1.27400166305440     -1.57200996283669      0.75402741296428
