15
Coordinates from ORCA-job run
  C   -0.67147033825809      0.25477919731232      0.46014747494985
  C   0.82900574934930      0.49830740274362      0.15671465330504
  H   -1.11938557574907      1.22168103670907      0.71752416615142
  H   1.26199429878102      1.02579996635551      1.02090479792403
  C   -0.74194154574210     -0.59978687198506      1.64870146390693
  N   -0.75039266664021     -1.30410472683331      2.58852481438757
  C   -1.42165839654559     -0.37281288673758     -0.71614684474646
  H   -0.94903193499407     -1.31033234370316     -1.00456086043910
  H   -2.46128982117705     -0.56136473844588     -0.44373732325994
  H   -1.40515224871094      0.30730929324499     -1.56984969748900
  C   0.93979123242143      1.39923801151175     -0.99683618328683
  N   1.02425977298953      2.13176835127122     -1.91018492513396
  N   1.48369572166718     -0.76893827361459     -0.14942999317135
  H   2.41808369920255     -0.60555740205533     -0.50453004726470
  H   1.56449205340610     -1.31498601577359      0.70175850416651
