15
Coordinates from ORCA-job run
  C   -0.55841129454173      0.28691300499216      0.33427189986118
  C   0.85024737126248      0.36715648728852     -0.31793543832716
  H   -0.71850776755800      1.24916177179850      0.83699168299540
  H   0.82426908343572      1.20596573784356     -1.02392255412118
  C   -0.54383329442387     -0.74930317303719      1.36847885160760
  N   -0.49699732306287     -1.58519881073410      2.19227635787812
  C   -1.67439256493666      0.05147036152283     -0.68548979663149
  H   -1.56123147924101     -0.92177601095584     -1.16554298723386
  H   -1.64315991811136      0.82647827238388     -1.45555332186666
  H   -2.65155778328686      0.08727775328839     -0.20133144762973
  C   1.09268403554957     -0.85319906886427     -1.10127619819164
  N   1.24958370728539     -1.84105517327269     -1.71558729305328
  N   1.96358087031884      0.58274198852440      0.58723666970690
  H   1.84960910137620      1.45994633560671      1.08046080274189
  H   2.02011725593417     -0.16657947638487      1.26792277226390
