15
Coordinates from ORCA-job run
  C   -0.63332088340201      0.28610883358014      0.37080712272805
  C   0.77473855831126      0.44181037248487     -0.23674274467507
  H   -0.82677462840402      1.22204568242937      0.90577887976083
  H   0.73510087112364      1.30182895589805     -0.91409180764733
  C   -0.60675622407602     -0.79160100828803      1.36327228252660
  N   -0.55393381677686     -1.66487479961398      2.14670595818555
  C   -1.71072064970342      0.04090844835793     -0.68673653062330
  H   -1.70576273541682      0.85360210728524     -1.41728399034316
  H   -1.53853424401754     -0.90145387357076     -1.20947859143955
  H   -2.69757348489576      0.00228708818218     -0.22316781414562
  C   1.11114271240539     -0.74695501367470     -1.04943974499160
  N   1.41329911030669     -1.69458340934964     -1.67521750413774
  N   1.73492078022896      0.74310561190775      0.81258479264058
  H   1.86874299496314     -0.07024035811319      1.40441601025905
  H   2.63343163935338      0.97801136248477      0.40759368190272
