14
Coordinates from ORCA-job run
  C   0.60914210542628     -0.61467325905738     -0.51049332097013
  C   -0.37283368086468     -0.03132115882985      0.46935936813389
  H   0.30914040773810     -0.43777050546597     -1.54117250453791
  H   -0.06121344053191     -0.11552153107452      1.50670489761678
  H   0.73643843258117     -1.68294664135771     -0.32491857316667
  N   1.95512074876158      0.01876279315203     -0.33646256221845
  O   2.73998406101016     -0.13468921333402     -1.26168247698343
  O   2.17268882949732      0.60309443418433      0.72137307025964
  N   -1.67399041724462     -0.77555724682594      0.32125444749332
  O   -1.71962736673881     -1.84462339708994      0.91815424175984
  O   -2.53047151852189     -0.28533852071425     -0.40286345536719
  N   -0.64537794609523      1.41807525973958      0.20573011392724
  O   -0.26389280995471      1.88552572442369     -0.86147030616339
  O   -1.25310740506277      1.99798326224997      1.09748706021645
