15
Coordinates from ORCA-job run
  C   -0.59506672875115      0.23454579676874     -0.40085084009974
  C   0.66702540296492     -0.24275862958932      0.34338501527077
  F   -0.18353239668241      1.09344595900685     -1.36795938626703
  H   0.32793740726225     -0.90167889353391      1.14686991070919
  N   -1.44777263549026      1.01518667266252      0.58925051101379
  O   -1.93197862164116      0.33237208705095      1.48994390778909
  O   -1.55631555152199      2.22034397320923      0.43458752670613
  N   -1.40206944340747     -0.77574231664931     -0.96026473641162
  H   -0.79988561282969     -1.47218224257622     -1.38521883662288
  H   -1.97851059758460     -1.20283690599456     -0.24694641838480
  C   1.38496918526912      0.89544396874432      0.94396781929337
  N   2.00060526244465      1.78455850080690      1.40301345008540
  N   1.44736615385919     -1.01697512121173     -0.60790273416409
  H   2.14710283600648     -1.56804615441090     -0.12764161622231
  H   1.92112534010212     -0.39567669428358     -1.25323357269525
