15
Coordinates from ORCA-job run
  C   -0.49305009335537     -0.35873604784385     -0.43991715926071
  C   0.98730064499632     -0.14985379800027     -0.08687474044881
  F   -0.59568657641790     -1.24598712925825     -1.47117927556883
  H   1.48436047882494      0.08339524866561     -1.03146859730433
  N   -1.00709929508738      0.96985868374411     -1.09264202927754
  O   -0.20635286170450      1.61492779518118     -1.76344670162451
  O   -2.18985141374459      1.24173717561569     -0.91690129018598
  N   -1.28296239259345     -0.77931107443484      0.62419462683572
  H   -1.14205578545468     -0.21799707137198      1.45143574745042
  H   -2.26476406600998     -0.79218026370934      0.37923382620994
  C   1.52312382805775     -1.42236799115716      0.41005870475851
  N   1.96296519233053     -2.42752554051017      0.82570369291922
  N   1.28545206353028      0.91147259285720      0.84762001204310
  H   0.91529652114332      0.75536862725820      1.77403396072953
  H   1.02232375548470      1.81819879296387      0.48914922272426
