15
Coordinates from ORCA-job run
  C   -0.60355546236482     -0.11918759689381     -0.42314699852781
  C   0.82636163462534     -0.34565059490910      0.06808119132031
  F   -0.51067453536975     -0.07488376769651     -1.80307185638294
  H   1.12896938784236     -1.30318149458296     -0.38915056003032
  N   -1.08482129518838      1.26622989471700      0.00246571042749
  O   -1.60676695694178      1.96457466346943     -0.85586612886816
  O   -0.93470355287825      1.52944362217725      1.18540399827720
  N   -1.52296546546243     -1.05317509401810      0.05800517195674
  H   -1.20850982227712     -2.00545506862774     -0.06998203146959
  H   -2.44133389503787     -0.92714832845436     -0.34901340456759
  C   0.91360024656584     -0.52524011674677      1.51790160641428
  N   1.09812998111313     -0.72253180258792      2.65993407077600
  N   1.63043913129461      0.78797879205096     -0.36224328819716
  H   1.79585841435399      0.72924535975248     -1.35896795985628
  H   2.51997218972515      0.79898153235015      0.11865047872784
