15

C	0.0	0.0	0.0
C	-0.475231	-0.223333	-1.434751
Br	2.039897	0.0	0.0
H	-1.575732	-0.158029	-1.379026
H	-0.086086	0.55752	-2.092056
C	-0.451279	1.355529	0.499969
H	-0.056616	2.154729	-0.12961
H	-1.546921	1.347249	0.479143
H	-0.102854	1.519016	1.52295
N	-0.486481	-1.018849	0.819316
H	-0.224141	-1.953695	0.542783
H	-0.348768	-0.862014	1.805574
C	-0.093909	-1.53057	-1.959546
N	0.195509	-2.588328	-2.379436
Br	-3.941976	0.0	0.0
