15

C	0.0	0.0	0.0
C	-0.478471	0.240743	-1.432975
Br	2.030197	0.0	0.0
H	-0.17519	-0.591029	-2.076346
H	-1.579939	0.245492	-1.365824
C	-0.45509	1.100556	0.933745
H	-1.551009	1.105986	0.905756
H	-0.058668	2.066944	0.620553
H	-0.113141	0.899205	1.952295
N	-0.490716	-1.241909	0.418302
H	-0.172965	-2.027293	-0.129741
H	-0.395387	-1.412499	1.407272
C	0.004506	1.487701	-2.013412
N	0.387651	2.490156	-2.489338
Br	-3.965274	0.0	0.0
