15

C	0.0	0.0	0.0
C	-0.487229	0.405891	-1.391963
Br	1.967712	0.0	0.0
H	-0.164928	1.426073	-1.61825
H	-1.588133	0.395513	-1.34739
C	-0.437294	1.043784	1.020958
H	-1.531496	1.079201	1.004171
H	-0.025462	2.030773	0.796746
H	-0.104774	0.745622	2.018076
N	-0.462976	-1.337064	0.262216
H	-1.485256	-1.311383	0.190201
H	-0.233807	-1.592695	1.217314
C	-0.03375	-0.482587	-2.45742
N	0.30684	-1.163536	-3.350675
Br	-3.834905	0.0	0.0
