15

C	0.0	0.0	0.0
C	-0.471875	-0.221796	-1.437713
Br	2.039225	0.0	0.0
H	-0.084915	0.565491	-2.088715
H	-1.572536	-0.162577	-1.390585
C	-0.450814	1.357219	0.500539
H	-1.547232	1.353137	0.48056
H	-0.098133	1.522566	1.521211
H	-0.056804	2.152155	-0.133897
N	-0.487289	-1.017913	0.815501
H	-0.371447	-0.863217	1.803885
H	-0.252478	-1.957051	0.530912
C	-0.079529	-1.52326	-1.96594
N	0.219758	-2.574829	-2.39372
Br	-3.952643	0.0	0.0
