15

C	0.0	0.0	0.0
C	-0.459196	-0.106525	-1.467866
Br	1.972334	0.0	0.0
H	-1.557608	-0.04955	-1.437674
H	-0.072444	0.726373	-2.061328
C	-0.450084	1.331828	0.576409
H	-0.10149	1.412073	1.606613
H	-0.050818	2.164664	-0.006668
H	-1.543558	1.357394	0.557575
N	-0.46884	-1.063373	0.841999
H	-1.485055	-0.95041	0.904987
H	-0.281726	-1.962099	0.408575
C	-0.064272	-1.364586	-2.092368
N	0.237949	-2.379569	-2.599789
Br	-3.82204	0.0	0.0
