18
Coordinates from ORCA-job run
  C   0.89999213737355      0.05326965737060     -0.45752041749659
  C   -0.60800785367904     -0.16509586466982     -0.40884967395990
  Cl  1.42313730180698      0.75535469487577     -1.97443255395346
  H   -0.81964124041734     -0.76253419695015     -1.30102161054524
  N   1.70423667728432     -1.24362970133938     -0.32197631292317
  O   2.85141977529823     -1.13093670142693      0.08375060253829
  O   1.15117125382214     -2.26296200856353     -0.71236270190105
  N   1.32797437979530      0.93060480718497      0.71633074198686
  O   1.31431818732608      0.35528973389575      1.79861085738353
  O   1.56379758118693      2.10998273898722      0.50700167266459
  C   -1.34338879337244      1.17298424895069     -0.51382067061088
  H   -2.41596813790617      0.97923884123988     -0.57727319901973
  H   -1.17104589595999      1.78815359204849      0.37280085350014
  H   -1.05078983371231      1.74734068422287     -1.39221972023081
  C   -1.09641971693184     -0.93651696149578      0.81923931403145
  H   -0.55781561774664     -1.86938209479471      0.97489792587323
  H   -1.02475771665511     -0.33587284458211      1.72616507381781
  H   -2.14921248751267     -1.18228862495383      0.66067981884492
