13

C	-0.476226	-0.059273	-1.427345
C	0.0	0.0	0.0
Cl	-2.202403	-0.53769	-1.603224
H	1.091572	0.0	0.0
H	0.114062	-0.770396	-2.00094
H	-0.318834	-0.943475	0.467342
N	-0.274392	1.270325	-2.10994
O	0.857862	1.442436	-2.551721
O	-1.190115	2.081131	-2.145691
N	-0.472801	1.195435	0.680644
H	-1.291489	1.023186	1.24786
H	0.280979	1.514664	1.274247
F	2.637353	0.0	0.0
