13

C	-0.588992	0.056349	-1.395465
C	0.0	0.0	0.0
Cl	0.170797	1.285748	-2.406352
H	1.094251	0.0	0.0
H	-1.658409	0.261554	-1.375275
H	-0.391001	-0.911194	0.466
N	-0.482262	-1.305509	-2.046258
O	0.388976	-1.544628	-2.868573
O	-1.31696	-2.114723	-1.636652
N	-0.457922	1.208271	0.715441
H	0.389979	1.71652	0.942749
H	-0.87957	0.941651	1.595302
F	2.654658	0.0	0.0
