13

C	-0.455739	-0.022411	-1.424269
C	0.0	0.0	0.0
Cl	-0.241849	-1.611903	-2.197745
H	1.092513	0.0	0.0
H	0.067628	0.718557	-2.023216
H	-0.405482	-0.861401	0.53959
N	-1.922545	0.323762	-1.561129
O	-2.700312	-0.147788	-0.735712
O	-2.244354	1.051487	-2.499613
N	-0.414511	1.301335	0.544735
H	-1.18095	1.198889	1.195051
H	0.386638	1.674459	1.037037
F	2.653205	0.0	0.0
