13

C	-0.410601	-0.09208	-1.432189
C	0.0	0.0	0.0
Cl	-2.198214	-0.127181	-1.699546
H	1.094753	0.0	0.0
H	-0.006193	-0.981197	-1.905528
H	-0.392934	0.921652	0.44093
N	0.105041	1.073398	-2.225127
O	-0.107225	2.197877	-1.782958
O	0.694555	0.816809	-3.272681
N	-0.411159	-1.232931	0.67901
H	-1.202928	-1.072094	1.287285
H	0.377925	-1.517803	1.246505
F	2.631565	0.0	0.0
