13

C	-0.384126	-0.057018	-1.441084
C	0.0	0.0	0.0
Cl	-2.165558	-0.06728	-1.749053
H	1.094725	0.0	0.0
H	0.022458	-0.940104	-1.923562
H	-0.393739	0.913697	0.456346
N	0.162217	1.118782	-2.197629
O	0.764737	0.877478	-3.241387
O	-0.040817	2.235819	-1.733037
N	-0.4232	-1.246586	0.643274
H	-1.236531	-1.101938	1.226672
H	0.347985	-1.539461	1.230286
F	2.631234	0.0	0.0
