13

C	-0.327759	-0.061269	-1.47716
C	0.0	0.0	0.0
Cl	0.05028	-1.643895	-2.175297
H	1.093075	0.0	0.0
H	0.218294	0.698898	-2.031377
H	-0.443537	-0.865077	0.502798
N	-1.787442	0.235189	-1.718156
O	-2.624058	-0.613472	-1.429798
O	-2.047197	1.384485	-2.08622
N	-0.395513	1.253345	0.63176
H	0.357946	1.913875	0.4958
H	-1.252975	1.652543	0.274692
F	2.636054	0.0	0.0
