12
Coordinates from ORCA-job run
  C   0.68611662974722     -0.22101568490334      0.70701571425789
  C   -0.17037937860105      0.06164593862633     -0.53268899203901
  Br  1.59821334522184     -1.92432021253139      0.49336046816704
  H   0.42952629166479      0.03364338234390     -1.44421186113589
  H   0.03130705202754     -0.31834490099921      1.57543823855698
  C   1.65393191759658      0.84623231000687      0.90496351022060
  N   2.42862141222054      1.71711147153696      1.05559815618331
  C   -0.87164967463384      1.33384122741707     -0.39542019568195
  N   -1.42393178487705      2.36304967321177     -0.26804956751060
  N   -1.20629129925909     -1.03883992170985     -0.66737508890146
  O   -1.29418600929563     -1.57083876194097     -1.76539784368433
  O   -1.86127850181185     -1.28216452105816      0.33776746156742
