12
Coordinates from ORCA-job run
  C   0.98277735966472      0.43215174859372      0.28609426602079
  C   -0.39179423566560      0.42483425941327     -0.38916783232883
  Br  1.19609733281930      2.11056423337683      1.24541913382169
  H   -0.46812261531258      1.28449833775167     -1.06297879444789
  H   1.75656659678447      0.40675494546914     -0.48028566910403
  C   1.13546169149608     -0.70083159264067      1.18617351742055
  N   1.24548376041539     -1.62661418299394      1.90144453199862
  C   -1.49200661295939      0.43294309504066      0.56411589493300
  N   -2.36431620305010      0.45869583749933      1.35021736421703
  N   -0.50773927074134     -0.79967036105556     -1.30020486571208
  O   -1.63372196828436     -1.21809128543795     -1.51928273297135
  O   0.54331416483340     -1.20623503501649     -1.78054481384752
