12
Coordinates from ORCA-job run
  C   0.72655111741509      0.38975118212208      0.63935223134758
  C   -0.31364034390442      0.27657190949892     -0.48809817690577
  Br  -0.01515756358036     -0.22228699198785      2.32824070131764
  H   0.18313472525682      0.46459700123976     -1.44586161322148
  H   0.94910116770170      1.45092135027295      0.77824686950980
  C   1.96587085024925     -0.31250927227943      0.33708454376447
  N   2.99881014511938     -0.82167606433652      0.10381120386085
  C   -1.40862287734021      1.21560147922601     -0.29109642975561
  N   -2.24628442159109      2.02520151984828     -0.14255122637695
  N   -0.83491537182357     -1.14745535006646     -0.58313716861511
  O   -2.01590532755228     -1.34428680803014     -0.33688771593907
  O   0.01205790004969     -1.97342995550762     -0.89810321898634
