12
Coordinates from ORCA-job run
  C   0.68021500053150      0.34051762193922      0.71404572623586
  C   -0.27537245789467      0.31608847787834     -0.49158828209332
  Br  -0.18708061275830     -0.36954481293766      2.30103395080146
  H   0.29165901135767      0.56821058911618     -1.39389959494763
  H   0.90202278563386      1.38739692107151      0.93726897570711
  C   1.93077978407747     -0.35978063615288      0.45637255995539
  N   2.96641847098110     -0.88893573978011      0.28803632837983
  C   -1.37921948270274      1.24745186074396     -0.30883079880112
  N   -2.22361083942565      2.05057637354922     -0.16388626556117
  N   -0.79181540123895     -1.09292744577935     -0.72543940577648
  O   0.06918316776203     -1.89519054129111     -1.06344868716563
  O   -1.98317942632333     -1.30386266835733     -0.55066450673430
