12
Coordinates from ORCA-job run
  C   0.64979129335634     -0.25067513941912      0.73391674118004
  C   -0.13656667109551      0.10759027918740     -0.53270225314663
  Br  1.70543605414363     -1.85112623804343      0.41427455855986
  H   0.52742230318276      0.22535061186536     -1.39110490581699
  H   -0.05462622801777     -0.48891100764983      1.53353502839134
  C   1.51423331504873      0.85504469358283      1.11511808681165
  N   2.20267933614329      1.76205670997591      1.40568239676873
  C   -0.94458714702709      1.30337263872392     -0.31702683806948
  N   -1.58376037223464      2.27116378275329     -0.12905159124164
  N   -1.06947728830199     -1.04126952267174     -0.86645477151980
  O   -1.77646888855596     -1.43901041053863      0.05044437542863
  O   -1.03407570664177     -1.45358639776595     -2.01763082734570
