12
Coordinates from ORCA-job run
  C   0.95874816445517      0.45134959813502      0.32965616533852
  C   -0.38987744953339      0.42226779596728     -0.39557847261653
  Br  1.09435726518284      2.11546827642899      1.32724426060591
  H   -0.46307627671700      1.29250340017660     -1.05603358951818
  H   1.75971410435931      0.46044809188797     -0.40869129287150
  C   1.10903887160131     -0.69457025631277      1.21363374894564
  N   1.21940154407410     -1.63057174757643      1.91552309692886
  C   -1.52365005197025      0.38449465376321      0.51663324908332
  N   -2.42288188807151      0.37416110167099      1.27207443371946
  N   -0.43879561861110     -0.78700318987911     -1.33251318681128
  O   0.63739935763049     -1.13921163690071     -1.79989084724066
  O   -1.54137802239997     -1.24833608736102     -1.58205756556356
