12
Coordinates from ORCA-job run
  C   0.66531015218412      0.02583493759716      0.76107272912960
  C   -0.17926313794559     -0.17531732688608     -0.50216658345273
  Br  1.23195127213943     -1.70290183947809      1.44559796331438
  H   0.36003391273651     -0.75815608446505     -1.25115573333997
  H   0.04434629526320      0.48468948964006      1.53328235518065
  C   1.82284440936183      0.85602625544884      0.46798520613357
  N   2.74984484313942      1.53418586184960      0.21943781919947
  C   -0.61872941343929      1.10656548169580     -1.04330049271344
  N   -0.96168541900111      2.14286517229111     -1.47821127676594
  N   -1.41145562756344     -0.98252772111225     -0.13722467518860
  O   -2.04956139391031     -0.57780784127251      0.82576256515934
  O   -1.65363589296477     -1.95245638530860     -0.84207987665634
