12
Coordinates from ORCA-job run
  C   0.69605741291940      0.34424284162224      0.69715384316071
  C   -0.29045342248717      0.30954602173426     -0.48260645455606
  Br  -0.12456610759775     -0.37270830215418      2.30643507082502
  H   0.25104897818731      0.55870717875439     -1.40137849693566
  H   0.91407726675108      1.39301379825435      0.91507237060866
  C   1.94667130032918     -0.34312377859906      0.40687510788448
  N   2.98848509522676     -0.84070589728498      0.18865657657585
  C   -1.39249429201761      1.23802990866135     -0.27578129750780
  N   -2.23636910534275      2.03863123800476     -0.11414183243199
  N   -0.80734352616874     -1.10300389810938     -0.69587652673131
  O   0.05183909636021     -1.90874218434035     -1.02953522974612
  O   -1.99795269615992     -1.31188692654339     -0.51387313114580
