12
Coordinates from ORCA-job run
  C   0.74057254245217      0.42875948031883      0.59709294357521
  C   -0.32926396628033      0.24744581010364     -0.49324482965366
  Br  0.04889820701262     -0.09094215265691      2.33708039944338
  H   0.13926608076434      0.38834371827562     -1.47310914597567
  H   0.96036958347193      1.49715643645319      0.66918426050294
  C   1.97555030587552     -0.28323977873272      0.29989813010185
  N   3.00532177562482     -0.79877153360851      0.06652239090523
  C   -1.42635187719891      1.18819554182842     -0.31655816416605
  N   -2.26701176500266      1.99819668907565     -0.18892976101598
  N   -0.84019323641646     -1.18287512727966     -0.49792800227411
  O   -2.01038739330593     -1.37538525758230     -0.20147970143405
  O   0.00322974300289     -2.01788382619526     -0.79852852000910
