12
Coordinates from ORCA-job run
  C   0.96057087507208      0.44201337864867      0.33546087445871
  C   -0.37702759413362      0.41966815480074     -0.41029772525994
  Br  1.11114351253073      2.12479278116590      1.29867115000182
  H   -0.42267748956449      1.27465193084651     -1.09263294300803
  H   1.77220294565824      0.42084368930098     -0.39109158691224
  C   1.07771003426903     -0.68779641083784      1.24500017799837
  N   1.16288107392962     -1.61438605104028      1.96275848743794
  C   -1.52606832446284      0.42650684552902      0.48306894444514
  N   -2.44036036360037      0.45923946693710      1.21959908026743
  N   -0.43034263757283     -0.81091320666422     -1.31822409431015
  O   0.64389164880748     -1.16646042546808     -1.78770944785899
  O   -1.53192368093302     -1.28616015321849     -1.54560291726005
