12
Coordinates from ORCA-job run
  C   0.59339156774014     -0.03600686938705      0.81766307090102
  C   -0.12187161924097     -0.11108563782879     -0.53622897600049
  Br  1.25287787479229     -1.79886871499806      1.30421930602363
  H   0.53053355930811     -0.52701643330048     -1.30639540749214
  H   -0.12673005103844      0.25669084719245      1.58452851872785
  C   1.69444382254786      0.91172862668646      0.75094025398198
  N   2.57773748584496      1.68372107491338      0.67977217237997
  C   -0.63122126937114      1.20052728580291     -0.92327978258449
  N   -1.03027885414238      2.26435686919028     -1.22262833804012
  N   -1.29921244437392     -1.05902654096360     -0.41244080184041
  O   -2.05505123735714     -0.85242791216700      0.52827385518868
  O   -1.38661883470936     -1.93159259514048     -1.26542387124549
