12
Coordinates from ORCA-job run
  C   0.66925203721421      0.31664122817185      0.73463510813326
  C   -0.27268844450025      0.32794032659056     -0.48138947964720
  Br  -0.21105231711892     -0.46092820887792      2.28298026754579
  H   0.30155893223657      0.61377206882140     -1.36910927189716
  H   0.87782897538516      1.35640081610704      0.99989711185859
  C   1.93073008543849     -0.35951715902918      0.46660096377893
  N   2.98146822347292     -0.84798610538383      0.27148362572118
  C   -1.38353019290002      1.24680416187500     -0.27827516745179
  N   -2.23381968942321      2.04029630709174     -0.11523027490056
  N   -0.77876458932259     -1.07507784996446     -0.76967290371507
  O   0.09412551736950     -1.86709455182641     -1.10074092209479
  O   -1.97510853785185     -1.29125103357579     -0.64217905733119
