12
Coordinates from ORCA-job run
  C   0.64163316014501      0.39076760059870      0.72463500289087
  C   -0.22025401907349      0.26275112785349     -0.54313184377143
  Br  -0.38013294591197     -0.08659829101444      2.30675165905967
  H   0.42568880699702      0.37416534162733     -1.42047073622108
  H   0.90043333645504      1.44643248172346      0.84176903626478
  C   1.87106480200566     -0.38624219395161      0.65148318934277
  N   2.89768993951632     -0.95596873970620      0.60520040276801
  C   -1.27913209662757      1.26174621500798     -0.56386077960951
  N   -2.08427793097432      2.11635175513780     -0.58694456804129
  N   -0.79830620857383     -1.13805765479823     -0.64871335990407
  O   -2.01186599251433     -1.26519621834226     -0.57509182650284
  O   0.03945914855646     -2.01915142413601     -0.79262617627588
