12
Coordinates from ORCA-job run
  C   0.95845558118505      0.44709091983333      0.33863129796718
  C   -0.39535518650665      0.43214876657426     -0.37691949614389
  Br  1.08618454879996      2.07632633602482      1.39367223178336
  H   -0.48108649051585      1.32486863432135     -1.00503407363000
  H   1.75363372512528      0.49059497570423     -0.40481301353789
  C   1.12623113956618     -0.72769783809846      1.18048453224129
  N   1.24974193427262     -1.68574502343659      1.84966403414072
  C   -1.52237838609475      0.35175455999128      0.54064234468896
  N   -2.41655522018836      0.30513799410810      1.30081297317277
  N   -0.44361811686224     -0.74247726564308     -1.35719503237945
  O   -1.54812771472933     -1.18317759294303     -1.63406105400454
  O   0.63387418594808     -1.08882446643621     -1.82588474429853
