12
Coordinates from ORCA-job run
  C   0.61312870888687     -0.23550974369661      0.76826693624160
  C   -0.12455647451052      0.04977035347409     -0.54512610336341
  Br  1.41897665819369     -2.00261826921901      0.69229738138010
  H   0.54074294798311     -0.05554730408473     -1.40412393381729
  H   -0.11082417441467     -0.25128330062477      1.58563841531092
  C   1.63454849428219      0.77361396987863      0.99970647595232
  N   2.45313306627158      1.59898482607965      1.17251171225464
  C   -0.74554085047599      1.36980317055063     -0.51176067359044
  N   -1.23514853065168      2.43712957486805     -0.47126936536931
  N   -1.21985181106494     -0.98499968595615     -0.72109898000227
  O   -1.25643902923797     -1.55947765803154     -1.80049194796126
  O   -1.96816900526166     -1.13886593323823      0.23545008296440
