12
Coordinates from ORCA-job run
  C   0.93751817482985      0.38406585717379      0.40195820042244
  C   -0.34638249525251      0.43020153595719     -0.43952775261726
  Br  1.12679981671727      2.10670864105474      1.29410912907582
  H   -0.34742106629635      1.32951857950167     -1.05707278497109
  H   1.79636893892604      0.28973763070399     -0.26744724445342
  C   0.95180895189834     -0.68093244319802      1.39256618759914
  N   0.98623935589039     -1.51308296291172      2.22158702863225
  C   -1.55017198064961      0.36247864438090      0.37786193833905
  N   -2.52257521576241      0.31121654375685      1.03486539759651
  N   -0.34636327724076     -0.73191575957733     -1.41855482069693
  O   -0.19995451145883     -1.84940495454795     -0.94020630683840
  O   -0.48486669160144     -0.43759131229411     -2.60013897208809
