12
Coordinates from ORCA-job run
  C   0.94664378853036      0.48043600198782      0.32170614729965
  C   -0.40773948095943      0.41094747985612     -0.39010320204994
  Br  1.04160217873864      2.14381034159063      1.32434839053623
  H   -0.51167033859572      1.27755160574949     -1.05117116071860
  H   1.73861546240024      0.51734222794837     -0.42554202489462
  C   1.14397021482997     -0.66491873110518      1.19736975133469
  N   1.29791780214031     -1.60295286357924      1.88813091119122
  C   -1.53177941420050      0.34259186645690      0.53220301632623
  N   -2.42568776786113      0.31354627100103      1.29358757861849
  N   -0.42807811732035     -0.80097662997852     -1.32446707239747
  O   0.65078225555628     -1.10430981119580     -1.81938836243387
  O   -1.51457658325867     -1.31306775873163     -1.54467397281202
