12
Coordinates from ORCA-job run
  C   0.73252792178977      0.36401635427964      0.64802849489663
  C   -0.30287448503547      0.28989575356790     -0.48724568376982
  Br  -0.03653902483660     -0.24307790161150      2.32641344945044
  H   0.20501900202753      0.47518119287844     -1.43966087718522
  H   0.98403827760721      1.41717749447517      0.79797792931656
  C   1.95367899132255     -0.36982576981371      0.34637504506081
  N   2.97378598763594     -0.90476875682537      0.11439101681287
  C   -1.37410274832469      1.25528303040712     -0.28729365598670
  N   -2.19218432674153      2.08411578270687     -0.13572958752707
  N   -0.86033110689566     -1.11873326651869     -0.60061825639276
  O   -0.03482189372183     -1.96236752338185     -0.92560578421859
  O   -2.04619659482722     -1.28789639016403     -0.35703209045715
