12
Coordinates from ORCA-job run
  C   0.57807292034376     -0.03754552477228      0.82850622477463
  C   -0.12745099945311     -0.13696707792296     -0.52905963658215
  Br  1.03131561407663     -1.81954843096268      1.45853519502330
  H   0.48284305390180     -0.67952409088926     -1.25352964831468
  H   -0.11295487443277      0.39084640171403      1.55744090343227
  C   1.77815423340237      0.77565239420242      0.71196889438352
  N   2.74247416518727      1.43805772608595      0.60023386223456
  C   -0.48637773486280      1.18862633951147     -1.02231458315113
  N   -0.76376257534636      2.26331179629681     -1.40785570023449
  N   -1.40293961810872     -0.93964701026743     -0.35550521754786
  O   -2.14067023552794     -0.58043954604069      0.55300716030479
  O   -1.57670394918014     -1.86082297695539     -1.14142745432277
