12
Coordinates from ORCA-job run
  C   0.75621813773783      0.40796613123065      0.59186991683901
  C   -0.32201656129764      0.25495672338016     -0.49433342485013
  Br  0.05290493361028     -0.07845811008344      2.33701678543962
  H   0.14836621812757      0.37145716796574     -1.47650476573711
  H   1.01081972446608      1.46899792985483      0.65738444065122
  C   1.96645375208267     -0.34589516373713      0.29616309949657
  N   2.97803722201196     -0.89657705179245      0.06350266184089
  C   -1.38626719413106      1.23343510216982     -0.32243968109297
  N   -2.19894334584451      2.07214831117271     -0.19860089979935
  N   -0.88179967445561     -1.15750318566801     -0.48653589543756
  O   -0.06700692325087     -2.02370643805817     -0.77738241187012
  O   -2.05876628905668     -1.30682141643471     -0.19213982548006
