12
Coordinates from ORCA-job run
  C   0.97427811820879      0.40421359449756      0.29676130148945
  C   -0.36199291736517      0.41834061247306     -0.45714685137925
  Br  1.27019853069560      2.14302074047349      1.10954975960868
  H   -0.32866331358590      1.19925020794059     -1.22170646487719
  H   1.77514967363681      0.25323767289057     -0.42847811129275
  C   1.00019497109278     -0.64896650382571      1.30067176002531
  N   1.01130459357249     -1.51750848038901      2.09248946308634
  C   -1.51043787541635      0.59475709638692      0.41761708009152
  N   -2.43008238430152      0.76819055749917      1.12731006362071
  N   -0.45879628525612     -0.89684329703624     -1.22515895373676
  O   -1.39197432254350     -1.64727831991704     -0.98245225112977
  O   0.44982121126211     -1.07141388099337     -2.02945679550630
