12
Coordinates from ORCA-job run
  C   0.93138453794438      0.37895957517191      0.42339207063740
  C   -0.34400775522350      0.43728017333133     -0.42937511004037
  Br  1.10065210488717      2.08309629063404      1.35481983154175
  H   -0.35192040592401      1.35660843269735     -1.01687704602893
  H   1.79743884756013      0.30344578875364     -0.23885988007591
  C   0.94334624473683     -0.70677613280506      1.39134012304485
  N   0.97393595924242     -1.55553761038623      2.20348021597255
  C   -1.55603512615902      0.32946770982386      0.37167587543959
  N   -2.53502270333300      0.24338374434135      1.01519031162520
  N   -0.32588722709508     -0.69057485283842     -1.44832238767340
  O   -0.06677264968546     -1.80892980070283     -1.02209605184587
  O   -0.56811182695087     -0.37042331802093     -2.60536795259684
