12
Coordinates from ORCA-job run
  C   0.82993053702383     -0.26947655069806      0.50993200502490
  C   -0.27392040921578      0.16543249297896     -0.46089689278736
  Br  1.90378033177387     -1.66736894760772     -0.30980183446539
  H   0.14313244293879      0.48412096553993     -1.41806232943965
  H   0.36976777769163     -0.70367012427503      1.39996386448081
  C   1.66656516078346      0.86720418562765      0.86060804530968
  N   2.33015938919177      1.79742234090421      1.13537752450805
  C   -1.10157299691436      1.21015127867013      0.13300532535231
  N   -1.75499667465561      2.05451526024679      0.62356664422284
  N   -1.15934338628505     -1.03038992874397     -0.75649395151424
  O   -1.57884395061089     -1.63872128773875      0.21960010659654
  O   -1.37565822172166     -1.26821968490416     -1.93679850728848
