12
Coordinates from ORCA-job run
  C   0.64546357392071     -0.27130472708772      0.72918493927327
  C   -0.14000643548587      0.09801134886395     -0.53471948743755
  Br  1.56631371942845     -1.96074254703618      0.45380988721287
  H   0.51121080155453      0.13181314026999     -1.41014934563993
  H   -0.05639428259517     -0.42259355899514      1.55191707143307
  C   1.60163974531339      0.77686393614859      1.04876672416409
  N   2.36585788958687      1.63621831964531      1.29093987039697
  C   -0.85004022499318      1.35927597364767     -0.34930444840181
  N   -1.41322837697934      2.37675995285864     -0.18130205211260
  N   -1.16527434679337     -0.98733179192682     -0.80389802409122
  O   -1.87825350343967     -1.29525511717821      0.14236182225341
  O   -1.18828855951734     -1.44371492921008     -1.93860695705056
