12
Coordinates from ORCA-job run
  C   0.56934937071669     -0.01059698427181      0.83465021538041
  C   -0.12967119051597     -0.16464129874427     -0.52127392734651
  Br  0.94302674485696     -1.76692920447741      1.57851572102067
  H   0.46145099226025     -0.77719296185646     -1.20463857866222
  H   -0.10900027838545      0.49020918742787      1.52846621362122
  C   1.80347099397125      0.74325145655466      0.68055302164126
  N   2.79598708966779      1.35615752481444      0.53748987310676
  C   -0.42638230078751      1.14194726186228     -1.09909677830850
  N   -0.65200477231247      2.20193414282122     -1.55308173929690
  N   -1.44001240016496     -0.89968028510637     -0.31018693389249
  O   -1.64853479227752     -1.85929227157914     -1.03955273868406
  O   -2.16767945702907     -0.45316656744504      0.56715565142036
