12
Coordinates from ORCA-job run
  C   0.95330617506772      0.32108319372775      0.43528319751420
  C   -0.26052661879624      0.44860917516505     -0.49401270757747
  Br  1.26826490228289      2.02413696936619      1.31500315392653
  H   -0.06027185321547      1.22948601254750     -1.23271224965376
  H   1.83279084313718      0.11339525969838     -0.17579334553789
  C   0.75859285233210     -0.73891215446388      1.41310025271024
  N   0.59526625214786     -1.61180365052880      2.18307213430694
  C   -1.50155971977250      0.71297453489769      0.21726140274738
  N   -2.49353176059994      0.96151347298848      0.79487838672223
  N   -0.35644369972244     -0.84857933454138     -1.29227123976130
  O   0.64051640144687     -1.09686014928136     -1.96095529781666
  O   -1.37640377430803     -1.51504332957562     -1.20185368758042
