12
Coordinates from ORCA-job run
  C   0.71975293273694      0.38469676789553      0.65057005485957
  C   -0.30641975324538      0.27925190755466     -0.49046927215364
  Br  -0.04602905446879     -0.22884121490093      2.32792918954616
  H   0.20344353865865      0.47018712751859     -1.44076344673086
  H   0.94542677823402      1.44450841269242      0.79452718560134
  C   1.95955242895723     -0.32238766309645      0.36151117736867
  N   2.99351803636702     -0.83448308752458      0.13938038724370
  C   -1.40066084675471      1.22135504001908     -0.30426510910680
  N   -2.23808985344884      2.03281967150241     -0.16479386332881
  N   -0.83085639062725     -1.14232479771698     -0.59849512862748
  O   -2.01500914823452     -1.33639670785204     -0.36537427664495
  O   0.01637133182563     -1.96938545609171     -0.90975689802690
