12
Coordinates from ORCA-job run
  C   0.73575620589769      0.36580551571372      0.64281481471357
  C   -0.31337561786070      0.29121869187085     -0.47992460873661
  Br  -0.00382535715829     -0.27118557111147      2.32329775869861
  H   0.17986316701517      0.49527311771300     -1.43626038880105
  H   0.97435575896183      1.42064106470398      0.80185269299432
  C   1.96263090589865     -0.34787274140642      0.31755127663337
  N   2.98585772479089     -0.86912167193874      0.06881111621217
  C   -1.39389148971312      1.24050812769044     -0.25423482362908
  N   -2.21727761256059      2.06014053445377     -0.08247756417779
  N   -0.85336344945297     -1.12291602077085     -0.60368033133755
  O   -2.03366366686403     -1.31111915592470     -0.34699685977335
  O   -0.02106656895453     -1.95137189099360     -0.94975308279659
