12
Coordinates from ORCA-job run
  C   0.89457112779513     -0.16583455526236      0.44183061123385
  C   -0.32694955595574      0.18974256946667     -0.41334528049865
  Br  2.22593515470284     -1.05211987382820     -0.66290827391176
  H   -0.04418944669045      0.79766782670000     -1.27485470485181
  H   0.59406056575096     -0.88016087570591      1.21116346600933
  C   1.45599532466797      1.03500025512559      1.04004379386453
  N   1.89627249280102      2.01561331850706      1.51510310046234
  C   -1.34811289895182      0.85250671873470      0.39107744962936
  N   -2.16132537125939      1.39094208577099      1.04641620141041
  N   -0.91968320584826     -1.09174063135462     -0.96886746315792
  O   -1.13380843920042     -1.11426018472933     -2.17302245727878
  O   -1.13476574781184     -1.97835665342459     -0.15263644291092
