12
Coordinates from ORCA-job run
  C   0.63447763061939     -0.06538703540228      0.78381904789768
  C   -0.14267772445475     -0.07626724876003     -0.53783924268970
  Br  1.40289908919376     -1.82230851137229      1.10139523027535
  H   0.49012978717250     -0.39897687995059     -1.36667880369972
  H   -0.06090249942525      0.12996993101374      1.60282003253419
  C   1.68216941995051      0.94238450305847      0.74198711717642
  N   2.52111266401848      1.76389374452168      0.69210997313866
  C   -0.73566759854199      1.23106494332440     -0.79887515603130
  N   -1.20089962226026      2.29167056605029     -0.99708206524378
  N   -1.26316995689443     -1.09369577891787     -0.43275469683744
  O   -1.98060736192881     -0.99846296226734      0.55460881314431
  O   -1.34786382744916     -1.90488527129817     -1.34451024966470
