12
Coordinates from ORCA-job run
  C   0.70289024847106      0.34796733601084      0.68816371867645
  C   -0.30258743473663      0.30877111711008     -0.47554342378337
  Br  -0.08165751612909     -0.39245417528328      2.30460525522349
  H   0.21986465460680      0.57343188143723     -1.40102309815817
  H   0.90991928644029      1.39807485425698      0.91018816341093
  C   1.95785673511758     -0.31960125069748      0.37238937828824
  N   3.00264836519523     -0.80095706487759      0.13290453424543
  C   -1.41387018697504      1.21995596009699     -0.24210433955229
  N   -2.26562806471122      2.00743492997105     -0.05883824027090
  N   -0.80320884384042     -1.10894595262488     -0.69209604693366
  O   0.06161715934486     -1.89992188408779     -1.04593296986141
  O   -1.98784440278342     -1.33575575131215     -0.49371293128476
