12
Coordinates from ORCA-job run
  C   0.94361783055492      0.43162695494657      0.35185224037235
  C   -0.35876052478603      0.41831547150810     -0.45893694398247
  Br  1.13360520870439      2.15319520470529      1.23094417001413
  H   -0.32543012403355      1.22462484206432     -1.19649293449935
  H   1.78019381608844      0.33656481467842     -0.34183542861359
  C   0.96966791612876     -0.65202976272488      1.32272778035552
  N   0.98466657934514     -1.54438681451469      2.08752325397038
  C   -1.54965479967920      0.52032243119104      0.36974961877134
  N   -2.50470596491551      0.63705409046106      1.04339262418283
  N   -0.36972024578777     -0.87335625136099     -1.27191239846435
  O   -1.28262138167984     -1.66607503907870     -1.09608797060666
  O   0.57914169006026     -0.98585594187552     -2.03992401150012
