12
Coordinates from ORCA-job run
  C   0.73521831821872      0.38033194519419      0.63544992642595
  C   -0.32540335454940      0.28564697134107     -0.47468412768788
  Br  0.03061766757096     -0.27915816101366      2.32229422933691
  H   0.15106925660711      0.50347467823828     -1.43646006453507
  H   0.95183537475910      1.43968979340411      0.79590052998005
  C   1.97407307341825     -0.30368558076180      0.29221170116159
  N   3.00682821079872     -0.79729145330167      0.02685735276998
  C   -1.42486343598850      1.20887211015934     -0.23302189639798
  N   -2.26741337208816      2.00574759900395     -0.04786014407435
  N   -0.83494242271027     -1.14027396458877     -0.59681854339514
  O   0.01253695970221     -1.94923545135194     -0.95198174515221
  O   -2.00855627573875     -1.35511848632312     -0.33088721843183
