12
Coordinates from ORCA-job run
  C   0.74360070938010      0.38986091804750      0.61988978258013
  C   -0.32964370278417      0.27815153443993     -0.47644358682874
  Br  0.05553936501181     -0.23416060637691      2.32684924238760
  H   0.13685115299542      0.47573231236004     -1.44744691117991
  H   0.96632680300126      1.45111684922465      0.75728752087830
  C   1.97586324212791     -0.30578746462723      0.27650741582270
  N   3.00367051023488     -0.80861574327487      0.00927855948772
  C   -1.42319315753501      1.20981782222489     -0.24011419029849
  N   -2.26122995313673      2.01306717149622     -0.06205534970675
  N   -0.84542034296407     -1.14803695822810     -0.56556890551920
  O   -2.01640475544019     -1.35373411866829     -0.28124326415667
  O   -0.00495987089121     -1.96641171661782     -0.91594031346668
