12
Coordinates from ORCA-job run
  C   0.97309052657399      0.37330958718066      0.33916507946996
  C   -0.31944712766924      0.41906958107937     -0.48629093184033
  Br  1.29441416239773      2.12083478562469      1.12349388085741
  H   -0.21376784495474      1.17670295312778     -1.26747578002294
  H   1.80476502354533      0.17204775382625     -0.33759026145366
  C   0.90322285142436     -0.65242966556646      1.36902057931837
  N   0.84001697977687     -1.49897570524833      2.18189843885137
  C   -1.50478853329726      0.66503883309909      0.31988718648705
  N   -2.45242655911520      0.89622229115005      0.97414499947985
  N   -0.43003763084763     -0.91165084195998     -1.22509585296055
  O   0.51513577384423     -1.14796889387819     -1.96912725848530
  O   -1.41017762167844     -1.61220067843494     -1.02203007970123
