12
Coordinates from ORCA-job run
  C   0.92370723757832      0.33151337301746      0.48699572311062
  C   -0.24352282934038      0.45207151292774     -0.50123888532466
  Br  1.16496895435720      2.02639619732820      1.40450911032426
  H   -0.01821428639485      1.24490684236239     -1.21962636002171
  H   1.83625073077057      0.14711470731457     -0.08167793788995
  C   0.69938699371521     -0.74667328848010      1.43825331782165
  N   0.51669612954627     -1.63717922312682      2.18315207688118
  C   -1.52280749655941      0.68862405740605      0.14927525134845
  N   -2.54637380050028      0.91261386084535      0.67993802619275
  N   -0.27773317984298     -0.83681229325308     -1.31737451089247
  O   -1.28802410847315     -1.52299095213127     -1.28244730248345
  O   0.75466565514348     -1.05958479421051     -1.93975850906666
