12
Coordinates from ORCA-job run
  C   0.73823075666962      0.37565960584861      0.63474450621734
  C   -0.31433232067527      0.28378712242526     -0.48353125007057
  Br  0.00325398622696     -0.23319876067773      2.32750551923780
  H   0.17648674791774      0.47117083017786     -1.44448350277466
  H   0.97832232600672      1.43268442839761      0.77586749322355
  C   1.96336651011734     -0.34428208949805      0.31675661405166
  N   2.98595080452087     -0.86805848695219      0.07051885643770
  C   -1.39378531101533      1.23720795052624     -0.27056838781939
  N   -2.21907236923975      2.05681609622303     -0.10833563238599
  N   -0.85635656344339     -1.13180480766126     -0.58214693850030
  O   -2.03651515244721     -1.31399689770743     -0.32099493111920
  O   -0.02554941463831     -1.96698499110197     -0.91533234649794
