16

C	0.0	0.0	0.0
C	-0.28581	-0.016769	-1.514805
F	1.377678	0.0	0.0
H	-0.039674	0.992928	-1.865401
H	0.518833	-0.67471	-1.876769
N	-0.390372	1.312606	0.667953
O	-0.383458	1.321604	1.896699
O	-0.598811	2.296941	-0.03437
C	-0.568672	-1.149981	0.76851
H	-1.660849	-1.007247	0.746915
H	-0.295709	-2.070185	0.24704
H	-0.175451	-1.160604	1.78541
N	-1.570056	-0.523593	-1.966119
H	-1.828339	0.006753	-2.790881
H	-2.296793	-0.312233	-1.224684
F	-3.083187	0.0	0.0
