16

C	0.0	0.0	0.0
C	-0.560162	-0.073313	-1.400766
F	1.370271	0.0	0.0
H	-0.322796	-1.08563	-1.748399
H	-1.651391	0.009088	-1.242125
N	-0.337503	1.362083	0.625992
O	-0.02138	1.508431	1.805482
O	-0.825754	2.24372	-0.073359
C	-0.567208	-1.067308	0.890772
H	-0.191595	-0.945424	1.906932
H	-0.256977	-2.041652	0.500985
H	-1.663812	-0.930062	0.812823
N	0.063985	0.884882	-2.328032
H	-0.455461	1.750076	-2.255485
H	-0.057473	0.533034	-3.270663
F	-2.971479	0.0	0.0
