16

C	0.0	0.0	0.0
C	-0.567275	-0.041031	-1.399989
F	1.369032	0.0	0.0
H	-1.654886	0.056121	-1.209468
H	-0.183239	0.813413	-1.962726
N	-0.334319	1.370749	0.606673
O	-0.508551	1.445785	1.818169
O	-0.291718	2.342404	-0.147057
C	-0.533315	-1.083592	0.884231
H	-0.25875	-2.034452	0.425913
H	-1.625893	-0.937547	0.872179
H	-0.104306	-1.004819	1.883409
N	-0.234502	-1.329055	-2.024895
H	0.476923	-1.204895	-2.73279
H	-1.064372	-1.693169	-2.472685
F	-2.946635	0.0	0.0
