16

C	0.0	0.0	0.0
C	-0.558531	-0.175759	-1.392041
F	1.370447	0.0	0.0
H	-1.651169	-0.101925	-1.237449
H	-0.299309	-1.203711	-1.670739
N	-0.343483	1.397163	0.534991
O	-0.846725	2.227211	-0.214307
O	-0.023496	1.619107	1.70149
C	-0.566485	-1.006486	0.959836
H	-0.260524	-2.004832	0.634355
H	-0.188148	-0.8187	1.964684
H	-1.662956	-0.872509	0.875673
N	0.043981	0.730618	-2.384201
H	-0.08199	0.307656	-3.296193
H	-0.502442	1.582413	-2.373729
F	-2.971768	0.0	0.0
