16

C	0.0	0.0	0.0
C	-0.51788	-0.120224	-1.423911
F	1.368558	0.0	0.0
H	-0.387605	-1.174959	-1.693154
H	-1.597636	0.067271	-1.325814
N	-0.347418	1.373258	0.588073
O	-0.173953	1.512883	1.796664
O	-0.683005	2.280544	-0.168126
C	-0.543825	-1.060453	0.910287
H	-0.213724	-2.032986	0.533908
H	-1.642178	-0.939317	0.824754
H	-0.174043	-0.915563	1.925391
N	0.144194	0.700425	-2.435978
H	-0.123683	1.660045	-2.263077
H	1.146519	0.646212	-2.290692
F	-2.890333	0.0	0.0
