16

C	0.0	0.0	0.0
C	-0.553837	0.06588	-1.405939
F	1.369306	0.0	0.0
H	-0.354189	-0.923474	-1.832975
H	-1.64132	0.171544	-1.242765
N	-0.3452	1.283691	0.771021
O	-0.172648	1.259083	1.98759
O	-0.679208	2.285382	0.142984
C	-0.560229	-1.164877	0.763258
H	-1.657908	-1.029353	0.696264
H	-0.236193	-2.083975	0.265985
H	-0.192579	-1.15686	1.788857
N	0.115098	1.058974	-2.266507
H	-0.230777	1.965202	-1.978938
H	-0.23225	0.906377	-3.206438
F	-2.953939	0.0	0.0
