16

C	0.0	0.0	0.0
C	-0.359245	0.073315	-1.511067
F	1.378145	0.0	0.0
H	-0.266204	-0.96614	-1.854852
H	0.46932	0.633579	-1.956277
N	-0.324624	1.331652	0.671187
O	-0.135428	2.343145	-0.004352
O	-0.650611	1.335093	1.854509
C	-0.613316	-1.126002	0.762016
H	-1.703929	-0.94999	0.684313
H	-0.278563	-1.134523	1.799184
H	-0.33412	-2.062943	0.272946
N	-1.615186	0.622261	-1.957833
H	-1.558412	1.623589	-1.827513
H	-2.368138	0.299377	-1.297379
F	-3.146809	0.0	0.0
