16

C	0.0	0.0	0.0
C	-0.547105	0.351371	-1.398364
F	1.370735	0.0	0.0
H	0.307831	0.699432	-1.989579
H	-1.242919	1.170752	-1.268662
N	-0.291694	1.174633	0.950321
O	-0.164551	2.301185	0.475907
O	-0.498708	0.941319	2.136355
C	-0.497226	-1.268651	0.619166
H	-0.048211	-1.396879	1.602416
H	-1.589569	-1.153632	0.662411
H	-0.207465	-2.107094	-0.017856
N	-1.2974	-0.688443	-2.07565
H	-0.774314	-1.556678	-2.064875
H	-2.122311	-0.762517	-1.45963
F	-2.853554	0.0	0.0
