16

C	0.0	0.0	0.0
C	-0.380871	0.036419	-1.505723
F	1.379142	0.0	0.0
H	0.469279	0.529832	-1.98785
H	-0.364111	-1.015903	-1.816876
N	-0.310703	1.359282	0.626899
O	-0.020751	2.343574	-0.053001
O	-0.734197	1.406835	1.776191
C	-0.621919	-1.092734	0.799768
H	-1.713407	-0.916172	0.711365
H	-0.294323	-1.064564	1.839293
H	-0.346462	-2.049249	0.348106
N	-1.613531	0.641795	-1.941868
H	-2.378584	0.32553	-1.290139
H	-1.5254	1.639949	-1.794372
F	-3.164691	0.0	0.0
