16

C	0.0	0.0	0.0
C	-0.51205	0.149483	-1.422541
F	1.381383	0.0	0.0
H	-1.591464	0.318712	-1.293876
H	-0.384295	-0.836781	-1.883306
N	-0.33976	1.238852	0.835096
O	-0.167098	1.148676	2.048434
O	-0.66504	2.274635	0.261405
C	-0.539256	-1.213122	0.694823
H	-0.171513	-1.259235	1.719731
H	-0.205659	-2.097038	0.143677
H	-1.638217	-1.080328	0.631785
N	0.154648	1.142653	-2.262085
H	-0.110819	2.053823	-1.912673
H	1.156422	1.058633	-2.126797
F	-2.883056	0.0	0.0
