18

C	0.0	0.0	0.0
C	-0.20429	-0.052724	-1.551158
F	1.420402	0.0	0.0
H	0.113942	-1.015478	-1.939917
N	-0.541464	1.097906	0.686529
H	-0.352513	1.946715	0.168604
H	-1.572924	0.883227	0.626979
C	-0.456935	-1.302804	0.61275
H	-0.133309	-1.30059	1.65615
H	-0.006944	-2.153408	0.09457
H	-1.549569	-1.301036	0.543457
N	0.683218	0.942615	-2.246376
O	1.251687	0.535054	-3.263435
O	0.776809	2.077925	-1.794151
N	-1.574727	0.184813	-2.119596
O	-1.943978	1.347375	-2.215967
O	-2.136043	-0.806453	-2.56886
F	-2.796726	0.0	0.0
