18

C	0.0	0.0	0.0
C	-0.223044	-0.14548	-1.542548
F	1.38995	0.0	0.0
H	0.048556	0.800458	-2.004288
N	-0.567518	1.197214	0.487047
H	-1.602297	0.950148	0.447272
H	-0.392614	1.957023	-0.164242
C	-0.460191	-1.171104	0.836535
H	-0.130734	-0.967931	1.858678
H	-0.013922	-2.09765	0.482291
H	-1.549918	-1.188349	0.781242
N	-1.589025	-0.468294	-2.078641
O	-1.951533	-1.634931	-2.043623
O	-2.158677	0.463271	-2.636978
N	0.710421	-1.13392	-2.188364
O	1.353	-0.705308	-3.153176
O	0.78288	-2.27433	-1.74608
F	-2.809619	0.0	0.0
