18

C	0.0	0.0	0.0
C	-0.564461	0.052755	-1.437452
F	1.380042	0.0	0.0
H	-1.669106	0.124313	-1.254005
N	-0.510535	1.056901	0.814716
H	-1.532584	0.881541	0.773455
H	-0.335517	1.941243	0.353175
C	-0.44294	-1.325404	0.604761
H	-0.124594	-1.30825	1.648632
H	-1.531205	-1.36766	0.539937
H	0.039696	-2.16365	0.099961
N	-0.27372	-1.179383	-2.224982
O	-1.235835	-1.748439	-2.740787
O	0.89562	-1.553638	-2.296455
N	-0.072994	1.194201	-2.26459
O	-0.119851	2.31244	-1.753958
O	0.296456	0.972675	-3.415658
F	-2.862287	0.0	0.0
