18

C	0.0	0.0	0.0
C	-0.537158	-0.04299	-1.448767
F	1.386897	0.0	0.0
H	-1.633628	0.100487	-1.312743
N	-0.511672	1.124594	0.713897
H	-0.343498	1.966346	0.17495
H	-1.534962	0.938718	0.691285
C	-0.452492	-1.265924	0.711259
H	-1.538367	-1.318172	0.615178
H	-0.176227	-1.143194	1.760169
H	0.054772	-2.140959	0.306306
N	-0.315476	-1.334315	-2.163618
O	-1.245985	-1.730061	-2.866712
O	0.765797	-1.903334	-2.029825
N	0.070969	1.004845	-2.323167
O	-0.076202	2.17119	-1.963056
O	0.666804	0.65936	-3.34085
F	-2.852501	0.0	0.0
