18

C	0.0	0.0	0.0
C	-0.574603	-0.085716	-1.414982
F	1.377612	0.0	0.0
H	-1.674991	-0.149318	-1.257367
N	-0.535201	1.228647	0.516398
H	-0.264349	1.291834	1.493274
H	-1.560488	1.037	0.481574
C	-0.414973	-1.228206	0.803575
H	-0.060432	-1.072209	1.827763
H	-1.504404	-1.270244	0.778579
H	0.03579	-2.144516	0.418226
N	-0.071471	-1.273792	-2.161332
O	-0.673054	-2.329078	-1.975113
O	0.907427	-1.134741	-2.893762
N	-0.259394	1.096579	-2.270465
O	-1.112741	1.361769	-3.12088
O	0.80301	1.68797	-2.123542
F	-2.873381	0.0	0.0
