18

C	0.0	0.0	0.0
C	-0.572566	-0.263905	-1.393137
F	1.388888	0.0	0.0
H	-1.673528	-0.302579	-1.226364
N	-0.528333	1.286935	0.355023
H	-0.257725	1.470517	1.316462
H	-1.553779	1.097241	0.346067
C	-0.412197	-1.111577	0.957405
H	-1.501538	-1.157567	0.935903
H	-0.060362	-0.820975	1.952705
H	0.040113	-2.069614	0.696903
N	-0.078968	-1.540237	-1.984378
O	0.870602	-1.498315	-2.765659
O	-0.662251	-2.563194	-1.632416
N	-0.254287	0.800124	-2.390287
O	0.816977	1.390766	-2.327441
O	-1.114804	0.970849	-3.257257
F	-2.868979	0.0	0.0
