15

C	-0.528691	-0.05197	-1.539925
C	0.074415	-0.031059	-0.154185
Br	0.155072	-1.550052	-2.599321
H	1.164341	0.025405	-0.114067
H	-0.192958	-0.972987	0.334186
C	-1.985459	-0.152525	-1.546895
N	-3.151564	-0.289355	-1.479949
N	-0.135071	1.238078	-2.268107
O	-1.031625	2.056517	-2.458734
O	1.045986	1.379864	-2.536495
C	-0.388227	1.15387	0.68659
H	-0.181848	2.10196	0.182093
H	-1.445744	1.119133	0.968922
H	0.294112	1.099011	1.537652
F	2.218583	0.325109	1.251314
