15

C	-0.480433	-0.082141	-1.53182
C	0.041006	-0.037272	-0.113883
Br	0.317492	1.288396	-2.66181
H	1.131216	-0.020692	-0.038328
H	-0.306058	-0.956995	0.372719
C	-0.245847	-1.368995	-2.179134
N	-0.034054	-2.404821	-2.692931
N	-2.008725	0.12686	-1.500201
O	-2.464565	1.246789	-1.671707
O	-2.646673	-0.873278	-1.180039
C	-0.38585	1.188253	0.680465
H	-0.204094	2.100512	0.108132
H	-1.433009	1.170414	1.002995
H	0.306817	1.199953	1.52121
F	2.34246	0.413045	0.960213
