15

C	-0.551676	-0.046682	-1.534457
C	0.061596	-0.033422	-0.15298
Br	0.099039	-1.558025	-2.595578
H	1.152519	0.00499	-0.120414
H	-0.218731	-0.969645	0.339075
C	-2.009983	-0.122398	-1.530704
N	-3.177271	-0.246073	-1.45899
N	-0.141716	1.235218	-2.267831
O	-1.025655	2.068705	-2.452162
O	1.039297	1.356394	-2.546307
C	-0.375388	1.16071	0.688667
H	-1.43142	1.144256	0.978171
H	0.311431	1.095846	1.535381
H	-0.156537	2.104264	0.181001
F	2.222324	0.29248	1.234478
