15

C	-0.530256	0.026696	-1.471579
C	-0.039846	0.069181	-0.037265
Br	0.436152	-1.279391	-2.534629
H	1.04692	0.152486	0.015258
H	-0.551009	0.924155	0.424594
C	-1.955538	-0.270908	-1.602422
N	-3.100428	-0.535078	-1.654409
N	-0.311157	1.429684	-2.067953
O	0.720208	1.664405	-2.673853
O	-1.196008	2.238078	-1.796229
C	-0.317783	-1.211911	0.732821
H	-1.380332	-1.477862	0.791796
H	0.093877	-1.07026	1.73124
H	0.264796	-2.019956	0.2952
F	2.420822	-0.510066	0.539312
