15

C	-0.29261	-0.121961	-1.33586
C	-0.04009	-0.074484	0.163096
Br	0.586053	-1.631356	-2.174076
H	1.041016	0.06958	0.194675
H	-0.508937	0.850823	0.508671
C	-1.723783	-0.256747	-1.637327
N	-2.881954	-0.359996	-1.81596
N	0.126784	1.195818	-2.027085
O	0.508407	1.147656	-3.180611
O	-0.235036	2.197316	-1.421191
C	-0.592274	-1.275335	0.918032
H	-1.671122	-1.402574	0.777137
H	-0.097149	-2.198986	0.612625
H	-0.411356	-1.140016	1.988341
F	2.11633	0.78718	-1.019808
