15

C	-0.47712	0.059905	-1.443195
C	-0.056565	0.111738	0.002935
Br	0.550438	-1.244019	-2.467054
H	1.031361	0.17249	0.049432
H	-0.570415	0.980281	0.437274
C	-1.893404	-0.250232	-1.630266
N	-3.037074	-0.516305	-1.694994
N	-0.230981	1.412191	-2.138962
O	0.66349	2.114069	-1.692086
O	-0.939622	1.674168	-3.107782
C	-0.35747	-1.185048	0.748652
H	-1.349045	-1.608364	0.553073
H	-0.268799	-0.987293	1.819846
H	0.456872	-1.860984	0.49101
F	2.382072	-0.844865	0.141611
