15

C	-0.360409	0.01979	-1.388172
C	-0.083783	-0.13591	0.104859
Br	0.33473	-1.545859	-2.315896
H	1.005465	-0.212426	0.140601
H	-0.603829	-1.053527	0.406214
C	-1.800027	0.063224	-1.666471
N	-2.963817	0.082286	-1.836341
N	0.199034	1.306184	-2.041561
O	0.832049	1.228665	-3.073605
O	-0.283526	2.32227	-1.554312
C	-0.492217	1.049465	0.970116
H	-0.432215	0.744271	2.02049
H	0.228955	1.841867	0.788597
H	-1.505934	1.40989	0.774398
F	2.044537	1.00387	-0.6927
