15

C	-0.305164	0.064984	-1.304889
C	-0.197372	0.077537	0.222607
Br	0.427655	1.744021	-1.99289
H	0.798656	0.476535	0.428176
H	-0.951133	0.77376	0.612034
C	0.338022	-1.087749	-1.982575
N	0.123972	-1.957353	-2.765552
N	-1.801593	0.022525	-1.691539
O	-2.282621	0.859247	-2.444097
O	-2.426142	-0.906096	-1.186096
C	-0.28953	-1.297403	0.877461
H	-1.238948	-1.790808	0.67896
H	0.53228	-1.899838	0.492707
H	-0.169085	-1.188133	1.960797
F	1.893915	-0.858319	-1.095061
