16

C	-0.430228	0.011632	-1.48164
C	0.0	0.0	0.0
Br	-2.422736	0.044438	-1.624957
H	1.097556	0.0	0.0
C	0.032202	1.220629	-2.159199
N	0.381638	2.197937	-2.710206
C	0.001907	-1.179182	-2.21066
N	0.341509	-2.137905	-2.800504
C	-0.463051	-1.250266	0.72934
H	-1.550355	-1.265518	0.855865
H	0.009658	-1.256758	1.714064
H	-0.15397	-2.160174	0.209947
N	-0.439042	1.247956	0.601528
H	-1.18259	1.094699	1.270083
H	0.348337	1.678883	1.068799
Cl	3.303305	0.0	0.0
