16

C	-0.488686	0.004441	-1.466793
C	0.0	0.0	0.0
Br	0.225465	1.575656	-2.414389
H	1.101275	0.0	0.0
C	-0.054457	-1.182233	-2.204194
N	0.239257	-2.159282	-2.788134
C	-1.950887	0.087973	-1.521906
N	-3.125876	0.101739	-1.557776
C	-0.508535	-1.245857	0.70864
H	-0.197874	-2.155717	0.192617
H	-1.599521	-1.233317	0.802984
H	-0.065231	-1.274611	1.707318
N	-0.540381	1.203602	0.635239
H	0.157169	1.936862	0.558907
H	-0.654335	1.017802	1.625114
Cl	3.375431	0.0	0.0
