16

C	-0.426612	-0.000502	-1.512299
C	0.0	0.0	0.0
Br	0.347698	1.551273	-2.440103
H	1.10452	0.0	0.0
C	0.003346	-1.202138	-2.222604
N	0.307758	-2.189148	-2.78512
C	-1.881709	0.124685	-1.611601
N	-3.052631	0.2372	-1.592194
C	-0.524764	-1.26125	0.670232
H	-1.620371	-1.275736	0.706267
H	-0.169259	-2.165062	0.171966
H	-0.145678	-1.260991	1.692546
N	-0.446672	1.169986	0.71523
H	-1.430543	1.36604	0.567518
H	0.107655	1.975042	0.456682
Cl	3.364896	0.0	0.0
