16

C	-0.428522	-0.012239	-1.481709
C	0.0	0.0	0.0
Br	-2.420785	0.013613	-1.628214
H	1.102989	0.0	0.0
C	0.031612	1.187626	-2.177417
N	0.362207	2.156465	-2.75489
C	0.007632	-1.213705	-2.190663
N	0.332205	-2.19238	-2.755084
C	-0.462081	-1.238473	0.750267
H	-0.150973	-2.156864	0.247009
H	0.009201	-1.227066	1.735671
H	-1.549688	-1.25312	0.875403
N	-0.439474	1.257624	0.580242
H	-1.188022	1.117271	1.245466
H	0.346105	1.694043	1.04562
Cl	3.305209	0.0	0.0
