16

C	-0.432905	0.037004	-1.478621
C	0.0	0.0	0.0
Br	-2.426174	0.061119	-1.618967
H	1.104341	0.0	0.0
C	0.022983	1.25922	-2.137178
N	0.358959	2.230581	-2.706984
C	0.001425	-1.139626	-2.228687
N	0.318422	-2.104848	-2.82006
C	-0.458325	-1.264339	0.708996
H	0.010103	-1.281412	1.695758
H	-0.1408	-2.165079	0.17814
H	-1.546237	-1.288689	0.830867
N	-0.436028	1.238312	0.62264
H	-1.207843	1.081684	1.257642
H	0.340628	1.638562	1.130293
Cl	3.305068	0.0	0.0
