16

C	-0.488956	0.064378	-1.464371
C	0.0	0.0	0.0
Br	0.215497	1.677785	-2.346603
H	1.102772	0.0	0.0
C	-0.047656	-1.088344	-2.250461
N	0.254181	-2.035375	-2.878177
C	-1.951887	0.141159	-1.51707
N	-3.126595	0.14584	-1.55554
C	-0.507132	-1.274738	0.656844
H	-0.201425	-2.161742	0.099878
H	-1.597085	-1.263712	0.758444
H	-0.057416	-1.348116	1.650178
N	-0.544532	1.173257	0.687119
H	-0.616138	0.954898	1.675127
H	0.136378	1.922415	0.611201
Cl	3.377239	0.0	0.0
