16

C	-0.352329	-0.152521	-1.507981
C	0.0	0.0	0.0
Br	-2.338887	-0.157926	-1.777458
H	1.109288	0.0	0.0
C	0.134119	0.992592	-2.272867
N	0.486859	1.944257	-2.866121
C	0.128385	-1.40442	-2.083545
N	0.479373	-2.432551	-2.533485
C	-0.507144	-1.168175	0.823475
H	-0.074604	-1.069103	1.819175
H	-1.597372	-1.154337	0.912862
H	-0.191738	-2.126817	0.405637
N	-0.425657	1.262894	0.557237
H	0.196903	2.003759	0.260402
H	-1.379142	1.492211	0.302454
Cl	3.310939	0.0	0.0
