16

C	-0.486107	-0.008673	-1.473671
C	0.0	0.0	0.0
Br	0.248974	1.537504	-2.434454
H	1.09752	0.0	0.0
C	-0.073005	-1.212737	-2.195128
N	0.217958	-2.202663	-2.759142
C	-1.946449	0.09736	-1.521381
N	-3.121391	0.133897	-1.534684
C	-0.50157	-1.24283	0.720301
H	-1.593957	-1.24095	0.810315
H	-0.186274	-2.157582	0.215542
H	-0.062745	-1.25395	1.720792
N	-0.503541	1.225115	0.613611
H	0.281498	1.835781	0.803586
H	-0.959275	1.015994	1.491984
Cl	3.361991	0.0	0.0
