16

C	-0.490345	0.004527	-1.474207
C	0.0	0.0	0.0
Br	0.279906	1.529118	-2.438619
H	1.096539	0.0	0.0
C	-0.11949	-1.210842	-2.198914
N	0.139283	-2.206588	-2.768641
C	-1.94782	0.150406	-1.508646
N	-3.121568	0.217371	-1.494876
C	-0.495179	-1.252359	0.711469
H	-1.58868	-1.264562	0.790666
H	-0.164937	-2.162974	0.208341
H	-0.067967	-1.258341	1.716609
N	-0.47909	1.226645	0.620935
H	0.313398	1.74999	0.970081
H	-1.103787	1.025366	1.389928
Cl	3.354583	0.0	0.0
