16

C	-0.426248	0.022281	-1.481047
C	0.0	0.0	0.0
Br	-2.419327	0.056278	-1.629993
H	1.111835	0.0	0.0
C	0.037655	1.235858	-2.14994
N	0.385339	2.200178	-2.724643
C	0.007848	-1.164071	-2.216154
N	0.32299	-2.138405	-2.793565
C	-0.462805	-1.254676	0.7219
H	-0.151217	-2.161873	0.199305
H	-1.550621	-1.272054	0.845224
H	0.006603	-1.265105	1.708058
N	-0.435716	1.245989	0.608079
H	0.345066	1.657658	1.10319
H	-1.198459	1.093751	1.255069
Cl	3.305117	0.0	0.0
