16

C	-0.489625	0.020831	-1.473993
C	0.0	0.0	0.0
Br	0.284931	1.551533	-2.424375
H	1.094788	0.0	0.0
C	-0.124579	-1.188814	-2.21124
N	0.107332	-2.19003	-2.782436
C	-1.946254	0.172592	-1.506504
N	-3.118149	0.261669	-1.482062
C	-0.49558	-1.260255	0.697528
H	-0.16157	-2.165343	0.187043
H	-1.589434	-1.275247	0.772471
H	-0.072581	-1.274464	1.704506
N	-0.474428	1.221547	0.633577
H	0.317791	1.723833	1.013108
H	-1.125583	1.017486	1.380399
Cl	3.34953	0.0	0.0
