16

C	0.0	0.0	0.0
C	-0.525963	0.052275	-1.427532
Cl	1.805782	0.0	0.0
H	-0.173358	-0.806127	-1.996152
H	-1.628948	0.076578	-1.314429
N	-0.498452	1.137672	0.717858
H	-0.304529	0.99744	1.704884
H	-1.527689	1.071409	0.59895
C	-0.441004	-1.338316	0.582621
H	-0.040785	-2.184295	0.016064
H	-1.53928	-1.329473	0.560193
H	-0.093362	-1.413742	1.617174
N	-0.089894	1.250499	-2.180102
O	0.841776	1.108321	-2.980922
O	-0.68465	2.307932	-1.98452
H	-3.119798	0.0	0.0
