16

C	0.0	0.0	0.0
C	-0.494958	-0.005748	-1.446927
Cl	1.804457	0.0	0.0
H	-0.195939	-0.909655	-1.974729
H	-1.600032	0.078996	-1.343714
N	-0.503886	1.069632	0.811213
H	-0.339436	1.945395	0.325058
H	-1.530705	0.913261	0.786926
C	-0.453125	-1.314261	0.616072
H	-0.128522	-1.337324	1.657474
H	-0.032122	-2.168951	0.081133
H	-1.549976	-1.320927	0.566596
N	0.007372	1.114687	-2.262635
O	-0.174937	2.266319	-1.855995
O	0.576592	0.842547	-3.323766
H	-3.097955	0.0	0.0
