16

C	0.0	0.0	0.0
C	-0.531839	0.109496	-1.423165
Cl	1.787281	0.0	0.0
H	-1.635144	0.130277	-1.307236
H	-0.181332	-0.726385	-2.026273
N	-0.502185	1.107654	0.764976
H	-1.530651	1.042479	0.646091
H	-0.305484	0.926295	1.744968
C	-0.447852	-1.360485	0.527824
H	-0.100167	-1.479302	1.558446
H	-1.545918	-1.348042	0.50579
H	-0.049904	-2.184216	-0.072379
N	-0.095641	1.335376	-2.12949
O	0.823018	1.218624	-2.949407
O	-0.677253	2.388892	-1.880779
H	-3.125664	0.0	0.0
