19

C	-0.433939	0.028314	-1.480506
C	0.0	0.0	0.0
F	-0.100921	-1.231441	-2.011618
H	1.096743	0.0	0.0
C	-1.930228	0.187567	-1.680747
H	-2.276923	1.14611	-1.289722
H	-2.47466	-0.61614	-1.180205
H	-2.157337	0.138991	-2.748922
C	0.376618	1.058686	-2.240848
H	0.15347	0.987999	-3.309221
H	1.43986	0.875167	-2.070109
H	0.136452	2.067408	-1.895516
C	-0.481629	-1.23212	0.768333
H	-0.138615	-2.126063	0.248565
H	-0.040813	-1.227633	1.766858
H	-1.570149	-1.263507	0.867042
C	-0.459688	1.223903	0.650836
N	-0.880744	2.193313	1.165246
Cl	3.41155	0.0	0.0
