19

C	-0.441647	-0.04573	-1.472889
C	0.0	0.0	0.0
F	-0.131362	1.211922	-2.020069
H	1.096685	0.0	0.0
C	0.377433	-1.063248	-2.243918
H	1.438563	-0.891071	-2.052785
H	0.1727	-0.951572	-3.312052
H	0.124845	-2.083585	-1.949461
C	-1.938018	-0.222582	-1.655823
H	-2.483478	0.532241	-1.083213
H	-2.262784	-1.215637	-1.33751
H	-2.185221	-0.099649	-2.713326
C	-0.439	-1.226758	0.809494
H	0.008529	-1.173716	1.803217
H	-0.072648	-2.139636	0.336576
H	-1.524662	-1.285802	0.91959
C	-0.513313	1.209867	0.637609
N	-0.9838	2.138806	1.181737
Cl	3.409962	0.0	0.0
