19

C	-0.36025	-0.008159	-1.49058
C	0.0	0.0	0.0
F	-1.770063	-0.027056	-1.623422
H	1.097261	0.0	0.0
C	0.150756	1.245106	-2.17182
H	1.234897	1.307688	-2.044488
H	-0.093798	1.212985	-3.237204
H	-0.310499	2.132663	-1.734538
C	0.178374	-1.258631	-2.158981
H	-0.327551	-2.14776	-1.779402
H	0.004347	-1.202438	-3.23687
H	1.251689	-1.340396	-1.966787
C	-0.498004	-1.227163	0.768386
H	-1.570296	-1.375328	0.617581
H	-0.305379	-1.098805	1.835239
H	0.043293	-2.11635	0.443579
C	-0.498802	1.216864	0.636292
N	-0.933528	2.174117	1.160933
Cl	3.381171	0.0	0.0
