15

C	0.0	0.0	0.0
C	-0.491221	0.038833	-1.513075
Cl	1.750912	0.0	0.0
H	-0.280691	-0.947982	-1.931661
C	-0.463814	1.122291	0.813778
N	-0.809593	2.00583	1.512084
N	-0.409475	-1.446268	0.68477
O	0.322639	-1.793311	1.610096
O	-1.389907	-2.080902	0.298073
N	0.262991	1.046383	-2.28501
O	1.001067	0.66103	-3.190975
O	0.112485	2.210205	-1.915511
C	-1.954496	0.381951	-1.745814
N	-3.081183	0.620639	-2.069492
F	-1.975891	0.0	0.0
