19

C	-0.35582	-0.016054	-1.503072
C	0.0	0.0	0.0
F	-1.726293	0.277984	-1.609449
H	1.092429	0.0	0.0
N	0.350596	0.94881	-2.300283
H	0.327477	1.842203	-1.819486
H	1.330786	0.673359	-2.302232
C	-0.120149	-1.3941	-2.08679
H	-0.271789	-1.327213	-3.165133
H	-0.821501	-2.116655	-1.670079
H	0.903798	-1.716801	-1.881694
C	-0.538032	-1.161267	0.807622
H	-1.614835	-1.281862	0.677289
H	-0.020819	-2.071634	0.503363
H	-0.332596	-1.003325	1.866367
N	-0.474333	1.291047	0.587408
O	-1.367004	1.257637	1.435602
O	0.034554	2.334751	0.174716
Br	3.479395	0.0	0.0
