19

C	-0.376104	-0.072854	-1.48801
C	0.0	0.0	0.0
F	-0.173986	1.240112	-2.004187
H	1.090389	0.0	0.0
N	0.516897	-1.003572	-2.073943
H	0.414254	-1.00985	-3.081068
H	1.481798	-0.780846	-1.827054
C	-1.817865	-0.403842	-1.811228
H	-2.483196	0.31488	-1.333842
H	-2.065312	-1.411776	-1.478319
H	-1.955825	-0.346292	-2.894767
C	-0.50366	-1.17	0.82015
H	-1.592347	-1.187474	0.878144
H	-0.093816	-1.107998	1.830891
H	-0.138382	-2.089603	0.361332
N	-0.507008	1.279612	0.570073
O	0.287154	2.192492	0.762709
O	-1.720031	1.342879	0.806917
Br	3.566348	0.0	0.0
