19

C	-0.508193	-0.031038	-1.446489
C	0.0	0.0	0.0
F	-1.916832	0.273892	-1.371884
H	1.091829	0.0	0.0
N	0.166688	0.892647	-2.272768
H	-0.342339	1.037935	-3.133632
H	0.351969	1.766114	-1.800962
C	-0.416958	-1.414634	-2.056001
H	-0.692689	-1.348901	-3.112052
H	-1.093594	-2.112919	-1.563998
H	0.613381	-1.76705	-1.985837
C	-0.499185	-1.15201	0.846684
H	-0.022653	-2.070662	0.503342
H	-0.203528	-0.996565	1.883508
H	-1.584659	-1.25073	0.801717
N	-0.436599	1.300755	0.615142
O	-1.234215	1.275858	1.551418
O	0.026845	2.338797	0.139916
Br	3.511843	0.0	0.0
