14

C	-0.608409	-0.027633	-1.460489
C	-0.011051	-0.085962	-0.049014
Br	-0.103528	-1.596081	-2.519522
H	1.087103	-0.180639	-0.095187
H	-1.700514	-0.063393	-1.412301
C	-0.227779	1.173593	-2.194351
N	0.00379	2.149989	-2.805391
C	-0.588234	-1.23627	0.643916
N	-1.098861	-2.12742	1.214803
C	-0.292477	1.206106	0.722789
H	0.125661	1.10778	1.724264
H	-1.364963	1.418791	0.787237
H	0.235783	2.028552	0.241101
Cl	3.102168	0.703697	0.435891
