14

C	-0.202779	0.089071	-1.373296
C	0.024538	0.158145	0.14645
Br	0.286033	1.778469	-2.228704
H	1.119992	0.259189	0.258707
H	0.519722	-0.639354	-1.768526
C	-1.584967	-0.211142	-1.716179
N	-2.706237	-0.456684	-1.971096
C	-0.35512	-1.138896	0.71486
N	-0.731693	-2.132678	1.215379
C	-0.749268	1.267762	0.858569
H	-0.421312	2.244276	0.502582
H	-1.82372	1.168595	0.68278
H	-0.570436	1.211357	1.934354
Cl	2.733293	-1.15622	-1.210296
