14

C	-0.609437	0.063315	-1.455005
C	-0.008933	-0.086147	-0.051887
Br	-0.092861	-1.423807	-2.620511
H	1.093366	-0.165783	-0.105568
H	-1.701107	0.014142	-1.40708
C	-0.242946	1.315795	-2.10549
N	-0.023566	2.336345	-2.644671
C	-0.573173	-1.286753	0.561341
N	-1.073405	-2.219875	1.071069
C	-0.301883	1.147489	0.80676
H	0.219421	2.005463	0.38294
H	-1.37628	1.345269	0.885098
H	0.116908	0.984653	1.799586
Cl	3.09896	0.707143	0.456715
