14

C	-0.178961	-0.043199	-1.412148
C	-0.038881	-0.170801	0.110271
Br	-1.956317	0.592788	-1.95101
H	1.016653	-0.440857	0.24787
H	0.561409	0.703791	-1.72816
C	0.06752	-1.307453	-2.089402
N	0.263304	-2.336071	-2.623197
C	-0.892926	-1.232447	0.647075
N	-1.585318	-2.061845	1.10845
C	-0.271269	1.153579	0.838298
H	0.415012	1.88955	0.418722
H	-0.043521	1.029055	1.899256
H	-1.305817	1.484118	0.73653
Cl	2.681417	1.409975	-1.036684
