17

C	-0.419879	-0.000653	-1.473836
C	0.0	0.0	0.0
F	0.059901	-1.159113	-1.997033
H	1.093504	0.0	0.0
N	-1.944296	-0.098073	-1.551715
O	-2.546568	0.828225	-1.014526
O	-2.441891	-1.052748	-2.133098
C	0.042869	1.164051	-2.305835
H	1.121772	1.265642	-2.172594
H	-0.18738	0.936349	-3.349823
H	-0.452203	2.08313	-2.004052
C	-0.509596	-1.188922	0.667477
N	-0.896017	-2.158674	1.205797
N	-0.426407	1.23562	0.741139
O	-1.179616	1.107228	1.701679
O	0.055479	2.288603	0.338962
Br	3.308773	0.0	0.0
