17

C	-0.556722	-0.136416	-1.413436
C	0.0	0.0	0.0
F	-1.921982	-0.201829	-1.353225
H	1.093305	0.0	0.0
N	-0.217487	1.073095	-2.282361
O	0.975154	1.265549	-2.461759
O	-1.151537	1.691165	-2.774609
C	0.010082	-1.351045	-2.1062
H	1.099916	-1.307507	-2.072762
H	-0.339674	-2.25068	-1.599116
H	-0.338897	-1.367052	-3.140929
C	-0.452426	-1.146399	0.780025
N	-0.802109	-2.111705	1.350563
N	-0.44521	1.263706	0.684162
O	-0.718699	1.195218	1.877692
O	-0.446213	2.282362	0.001791
Br	3.301473	0.0	0.0
