17

C	-0.526266	0.030982	-1.444693
C	0.0	0.0	0.0
F	0.029069	1.08476	-2.086693
H	1.091648	0.0	0.0
N	-0.028373	-1.229532	-2.157561
O	-0.56427	-2.274913	-1.800855
O	0.810737	-1.095136	-3.032491
C	-2.027798	0.090143	-1.584572
H	-2.28562	0.05125	-2.64525
H	-2.499384	-0.739754	-1.061764
H	-2.387267	1.033074	-1.170501
C	-0.516751	-1.119787	0.770245
N	-0.936591	-2.014039	1.406452
N	-0.456652	1.286614	0.65069
O	0.183939	2.291892	0.372435
O	-1.453951	1.240088	1.372995
Br	3.318259	0.0	0.0
