17

C	-0.367707	0.021084	-1.48774
C	0.0	0.0	0.0
F	0.024979	-1.188487	-1.975566
H	1.095267	0.0	0.0
N	-1.883964	0.06461	-1.662206
O	-2.368996	-0.600675	-2.567946
O	-2.489983	0.817596	-0.90391
C	0.253895	1.110458	-2.318482
H	0.073312	0.865238	-3.367992
H	-0.166178	2.082577	-2.074349
H	1.326382	1.113337	-2.109749
C	-0.546707	-1.183884	0.641382
N	-0.982079	-2.167139	1.114001
N	-0.385815	1.234347	0.763962
O	-0.032473	2.303276	0.281995
O	-0.956939	1.085455	1.838568
Br	3.306216	0.0	0.0
