16

C	0.0	0.0	0.0
C	-0.555693	-0.053209	-1.408279
F	1.369811	0.0	0.0
H	-0.069459	0.692816	-2.032988
H	-1.654915	0.037846	-1.252115
N	-0.391048	1.355092	0.579122
O	-0.463851	2.295898	-0.20713
O	-0.483975	1.447219	1.79697
C	-0.476972	-1.118761	0.881522
H	-1.572182	-1.088625	0.828922
H	-0.0662	-2.052698	0.489306
H	-0.100009	-0.96429	1.891865
N	-0.229324	-1.378317	-1.997047
O	-1.126122	-2.217585	-2.07543
O	0.931622	-1.566237	-2.375627
F	-2.792647	0.0	0.0
