16

C	0.0	0.0	0.0
C	-0.640013	-0.109919	-1.357985
F	1.370305	0.0	0.0
H	-0.421402	0.759032	-1.968905
H	-1.763223	-0.161924	-1.056685
N	-0.327245	1.435541	0.478702
O	-0.162394	2.339143	-0.339593
O	-0.60046	1.607828	1.657467
C	-0.474507	-0.982025	1.035156
H	-0.185003	-1.977807	0.705415
H	-0.001845	-0.752346	1.988884
H	-1.561091	-0.881206	1.074246
N	-0.214258	-1.277235	-2.142926
O	0.014765	-2.351691	-1.583567
O	-0.163493	-1.126731	-3.367242
F	-2.847147	0.0	0.0
