16

C	0.0	0.0	0.0
C	-0.613412	0.080293	-1.383979
F	1.370641	0.0	0.0
H	-0.439305	-0.884503	-1.865694
H	-1.699337	0.245522	-1.187416
N	-0.338836	1.274759	0.770775
O	-0.472338	1.198595	1.98722
O	-0.337091	2.317036	0.120833
C	-0.537113	-1.196801	0.72779
H	-1.633648	-1.081161	0.6707
H	-0.186111	-2.095488	0.213315
H	-0.170326	-1.196782	1.753622
N	-0.009141	1.081419	-2.301673
O	1.17135	0.914031	-2.625122
O	-0.727947	1.979079	-2.736713
F	-2.884065	0.0	0.0
