16

C	0.0	0.0	0.0
C	-0.650067	0.017843	-1.352433
F	1.360173	0.0	0.0
H	-0.595427	-0.972039	-1.805844
H	-1.748711	0.216642	-1.090841
N	-0.364757	1.279355	0.773911
O	-0.979959	2.172265	0.212021
O	0.040216	1.317101	1.935571
C	-0.50804	-1.177403	0.794546
H	-0.149249	-2.094048	0.318145
H	-0.111877	-1.117535	1.807763
H	-1.603074	-1.103308	0.763726
N	-0.064583	0.943448	-2.338799
O	-0.371286	0.740726	-3.516424
O	0.675033	1.854099	-1.964672
F	-2.88611	0.0	0.0
