16

C	0.0	0.0	0.0
C	-0.638372	0.277687	-1.337011
F	1.364218	0.0	0.0
H	-1.754473	0.192748	-1.083486
H	-0.389399	1.26611	-1.713867
N	-0.347428	1.222401	0.874914
O	-0.295716	2.32606	0.335259
O	-0.53408	1.040354	2.071611
C	-0.501596	-1.246656	0.674809
H	-0.056733	-1.330112	1.665668
H	-1.591263	-1.144662	0.713031
H	-0.200299	-2.098219	0.066736
N	-0.258417	-0.673184	-2.400054
O	-0.722023	-0.438021	-3.51622
O	0.484459	-1.626928	-2.155716
F	-2.874831	0.0	0.0
