16

C	0.0	0.0	0.0
C	-0.654185	0.035396	-1.3482
F	1.359696	0.0	0.0
H	-1.75303	0.236521	-1.075989
H	-0.610725	-0.949708	-1.811746
N	-0.358068	1.270827	0.793932
O	-0.988915	2.165725	0.25469
O	0.075408	1.299332	1.945774
C	-0.502946	-1.187217	0.784157
H	-0.144434	-2.097708	0.295855
H	-0.099909	-1.1377	1.79531
H	-1.597625	-1.118217	0.761544
N	-0.062209	0.966221	-2.324765
O	-0.349123	0.765885	-3.508314
O	0.66589	1.880141	-1.936846
F	-2.88517	0.0	0.0
