19

C	-0.506515	0.041247	-1.41156
C	0.0	0.0	0.0
F	-0.005964	-1.049699	-2.122434
H	1.092729	0.0	0.0
N	-1.916645	0.124141	-1.548841
H	-2.174025	-0.04459	-2.513828
H	-2.346939	-0.563119	-0.944813
N	0.019158	1.224612	-2.240707
O	-0.338007	1.222038	-3.421661
O	0.716732	2.078272	-1.715945
C	-0.367034	-1.344259	0.633687
H	0.202789	-1.430653	1.56187
H	-1.435163	-1.452154	0.882001
H	-0.061954	-2.17324	-0.006864
C	-0.517704	1.145133	0.860965
H	-0.034541	1.073347	1.840525
H	-1.605984	1.112189	1.005868
H	-0.249875	2.11303	0.439116
F	2.642275	0.0	0.0
