19

C	-0.114288	-0.103104	-1.526153
C	0.0	0.0	0.0
F	-0.408079	1.141303	-2.068162
H	1.099344	0.0	0.0
N	1.039775	-0.635072	-2.125824
H	1.840403	-0.510758	-1.467607
H	0.905061	-1.596491	-2.399744
N	-1.352127	-0.936079	-1.916605
O	-2.445964	-0.393259	-1.78632
O	-1.193644	-2.11395	-2.241512
C	-0.418036	-1.301652	0.67119
H	-0.124876	-1.268216	1.723919
H	0.096109	-2.152964	0.218847
H	-1.500937	-1.477768	0.621467
C	-0.654298	1.219768	0.611961
H	-1.739212	1.223814	0.456058
H	-0.241435	2.135529	0.188637
H	-0.460953	1.231214	1.689352
F	2.729451	0.0	0.0
