19

C	-0.135786	0.170331	-1.521754
C	0.0	0.0	0.0
F	-1.177292	0.997064	-1.901149
H	1.095704	0.0	0.0
N	1.068719	0.608585	-2.124875
H	1.863125	0.457063	-1.461704
H	0.979754	1.577327	-2.388517
N	-0.52426	-1.20423	-2.127006
O	-1.717237	-1.434784	-2.328013
O	0.387928	-2.006986	-2.286648
C	-0.637803	-1.228421	0.618795
H	-1.726513	-1.244188	0.487457
H	-0.22231	-2.145696	0.19692
H	-0.422967	-1.239996	1.691801
C	-0.440366	1.288651	0.682641
H	-1.524097	1.442011	0.636107
H	0.052701	2.151269	0.227769
H	-0.134162	1.256859	1.73238
F	2.737	0.0	0.0
