19

C	-0.495047	0.039732	-1.422139
C	0.0	0.0	0.0
F	-0.328957	-1.160657	-2.05449
H	1.099683	0.0	0.0
N	-1.863859	0.406127	-1.585508
H	-2.093717	0.430801	-2.573372
H	-2.001725	1.330511	-1.200555
N	0.407975	1.009846	-2.243295
O	0.157243	2.208887	-2.09356
O	1.264404	0.550625	-2.981651
C	-0.463213	-1.288716	0.669082
H	-1.555606	-1.387728	0.694532
H	-0.084045	-1.29513	1.694837
H	-0.038533	-2.155861	0.162009
C	-0.432276	1.218622	0.808573
H	-0.159941	2.149098	0.30742
H	-1.507646	1.230293	1.036536
H	0.115374	1.195695	1.753846
F	2.63641	0.0	0.0
