15

C	-0.470367	-0.115692	-1.435171
C	0.0	0.0	0.0
Br	0.151445	1.50908	-2.473598
H	1.093589	0.0	0.0
H	0.085957	-0.920151	-1.919491
N	-1.872374	-0.318566	-1.563476
H	-2.370563	0.44878	-1.125364
H	-2.142762	-0.357915	-2.538561
C	-0.364782	-1.268168	0.781514
H	0.096549	-1.211555	1.770696
H	-1.441681	-1.417796	0.877468
H	0.073658	-2.128498	0.268104
C	-0.556839	1.17547	0.645618
N	-1.047467	2.107394	1.170818
H	2.728161	0.0	0.0
