15

C	-0.446118	0.009421	-1.446271
C	0.0	0.0	0.0
Br	0.057725	1.683406	-2.339022
H	1.095453	0.0	0.0
H	0.155611	-0.741493	-1.971665
N	-1.883413	-0.136127	-1.602295
H	-2.15697	-1.016145	-1.175821
H	-2.109027	-0.183785	-2.590671
C	-0.367413	-1.324591	0.682948
H	0.173733	-1.379849	1.630122
H	-0.019528	-2.158316	0.065576
H	-1.437108	-1.431609	0.882625
C	-0.521666	1.124351	0.758066
N	-0.908829	2.018071	1.416525
H	2.738247	0.0	0.0
