15

C	-0.231874	-0.056743	-1.493838
C	0.0	0.0	0.0
Br	-2.166501	-0.455562	-1.984697
H	1.100017	0.0	0.0
H	-0.124634	0.94011	-1.932396
N	0.62003	-1.064605	-2.036333
H	0.733708	-0.933521	-3.032668
H	1.536943	-0.953157	-1.574533
C	-0.436845	-1.24514	0.763128
H	-1.522612	-1.298003	0.871854
H	-0.088274	-2.125781	0.222131
H	0.028984	-1.24054	1.75193
C	-0.515714	1.219962	0.589234
N	-0.924238	2.204748	1.086099
H	2.71334	0.0	0.0
