15

C	-0.32329	0.04183	-1.511275
C	0.0	0.0	0.0
Br	-0.650659	-1.871172	-2.216435
H	1.095273	0.0	0.0
H	-1.300088	0.478603	-1.730255
N	0.705094	0.666882	-2.220852
H	0.470034	1.572189	-2.594195
H	1.602038	0.637351	-1.724252
C	-0.544162	-1.125943	0.865388
H	-0.298689	-0.920866	1.909669
H	-1.627977	-1.238443	0.771012
H	-0.066623	-2.061775	0.581068
C	-0.428242	1.300261	0.498959
N	-0.797037	2.351655	0.874489
H	2.799885	0.0	0.0
