15

C	-0.399984	0.04551	-1.434914
C	0.0	0.0	0.0
Br	-2.615683	0.158403	-1.569562
H	1.097464	0.0	0.0
H	-0.208548	1.006345	-1.905966
N	0.059198	-1.004542	-2.195246
H	-0.214848	-0.965588	-3.164252
H	-0.102815	-1.914697	-1.791918
C	-0.3702	-1.288664	0.729931
H	-1.433745	-1.524441	0.641444
H	-0.107579	-1.188527	1.784901
H	0.239768	-2.109886	0.340956
C	-0.457555	1.175945	0.714283
N	-0.790949	2.117933	1.334569
H	2.624251	0.0	0.0
