17

C	-0.529805	0.009978	-1.418325
C	0.0	0.0	0.0
Br	0.277066	-1.424196	-2.473204
H	1.090605	0.0	0.0
H	-0.357999	0.930305	0.458744
C	-2.040962	-0.103642	-1.566009
H	-2.345871	0.032702	-2.606328
H	-2.519672	0.656014	-0.945841
H	-2.361265	-1.093074	-1.238616
N	-0.124773	1.352654	-2.040055
O	0.761727	1.424363	-2.878073
O	-0.767921	2.312208	-1.606703
C	-0.469602	-1.197225	0.817041
H	0.046822	-1.164504	1.779283
H	-1.549628	-1.225175	1.006999
H	-0.174038	-2.131245	0.332734
F	2.64903	0.0	0.0
