16

C	0.0	0.0	0.0
C	-0.406292	0.186447	-1.454823
F	1.418162	0.0	0.0
H	-1.499293	0.184843	-1.472576
H	-0.035699	-0.666317	-2.044898
N	-0.439153	1.069773	0.849265
H	-0.370041	1.919498	0.293029
H	-1.434582	0.917179	1.016118
C	-0.448266	-1.334579	0.548052
H	-0.091984	-1.428294	1.576698
H	-1.539379	-1.391584	0.525785
H	-0.024907	-2.145078	-0.050902
N	0.088705	1.48045	-1.935602
H	1.079608	1.405739	-2.124022
H	-0.379485	1.721145	-2.798558
Cl	-3.799759	0.0	0.0
