16

C	0.0	0.0	0.0
C	-0.408288	-0.176965	-1.454632
F	1.411686	0.0	0.0
H	-1.498526	-0.250239	-1.463315
H	-0.120631	0.748239	-1.986247
N	-0.458724	1.2374	0.565224
H	-1.454546	1.120294	0.754906
H	-0.387795	1.969833	-0.134573
C	-0.438396	-1.156291	0.869131
H	-0.073987	-0.985969	1.88471
H	-0.023545	-2.082227	0.47277
H	-1.528308	-1.213177	0.869874
N	0.183537	-1.382345	-2.036919
H	1.17783	-1.229343	-2.149032
H	-0.215414	-1.541065	-2.953539
Cl	-3.788752	0.0	0.0
