16

C	0.0	0.0	0.0
C	-0.487204	0.372051	-1.395093
F	1.393056	0.0	0.0
H	-1.4965	0.779735	-1.296188
H	0.185023	1.160112	-1.745307
N	-0.424449	1.054452	0.89384
H	-0.18016	0.78374	1.841054
H	-1.443073	1.078248	0.850611
C	-0.416525	-1.3937	0.432474
H	-0.025315	-1.582116	1.43736
H	-1.505904	-1.452523	0.452008
H	-0.004752	-2.135958	-0.252662
N	-0.435268	-0.765855	-2.324423
H	-1.300983	-1.282587	-2.2022
H	-0.460486	-0.400915	-3.269963
Cl	-3.75681	0.0	0.0
