16

C	0.0	0.0	0.0
C	-0.308372	-0.318504	-1.481338
F	1.402929	0.0	0.0
H	-0.011478	-1.361965	-1.64259
H	0.399623	0.301466	-2.039672
N	-0.465323	1.323449	0.317765
H	-1.470599	1.326089	0.149796
H	-0.346788	1.484785	1.313182
C	-0.459009	-1.072987	0.965662
H	-1.551045	-1.120703	0.950466
H	-0.130149	-0.825043	1.980316
H	-0.042358	-2.046484	0.693391
N	-1.630101	-0.10455	-2.024672
H	-1.828986	0.88654	-2.065179
H	-2.366036	-0.492552	-1.440631
Cl	-4.150645	0.0	0.0
