16

C	0.0	0.0	0.0
C	-0.426439	0.110512	-1.462297
F	1.399685	0.0	0.0
H	-0.067204	-0.783679	-1.983336
H	-1.517569	0.111273	-1.500933
N	-0.450018	1.173891	0.70573
H	-0.243449	1.05807	1.693246
H	-1.469403	1.176721	0.620928
C	-0.426443	-1.312799	0.626313
H	-1.516746	-1.358073	0.637853
H	-0.0229	-2.159119	0.062249
H	-0.045492	-1.368612	1.651666
N	0.098309	1.291492	-2.148207
H	-0.288077	2.10132	-1.673995
H	1.095795	1.322486	-1.958616
Cl	-3.741976	0.0	0.0
