16

C	0.0	0.0	0.0
C	-0.269693	0.222658	-1.506827
F	1.399979	0.0	0.0
H	0.248066	1.159955	-1.753608
H	0.264004	-0.570207	-2.04395
N	-0.471177	1.048511	0.859386
H	-0.377338	1.943107	0.390068
H	-1.463241	0.898073	1.028979
C	-0.497349	-1.33181	0.50791
H	-0.195803	-1.455925	1.550325
H	-1.588308	-1.361504	0.444944
H	-0.070737	-2.141589	-0.08858
N	-1.625177	0.292533	-2.00278
H	-2.123347	-0.567656	-1.810579
H	-2.165298	0.978262	-1.488534
Cl	-4.133786	0.0	0.0
