16

C	0.0	0.0	0.0
C	-0.446163	-0.187176	-1.442176
F	1.431252	0.0	0.0
H	-1.534271	-0.289891	-1.423286
H	-0.004216	-1.118603	-1.812327
N	-0.435495	1.258641	0.495571
H	0.018746	2.00892	-0.006247
H	-0.23856	1.347208	1.483054
C	-0.486356	-1.116899	0.887544
H	-1.579218	-1.091002	0.896967
H	-0.133925	-2.079197	0.509517
H	-0.101933	-0.984796	1.903667
N	-0.085153	0.898397	-2.351532
H	-0.69851	1.685101	-2.179965
H	0.869811	1.184657	-2.169439
Cl	-4.054649	0.0	0.0
