16

C	0.0	0.0	0.0
C	-0.268269	-0.532936	-1.426243
F	1.407117	0.0	0.0
H	0.220992	-1.511766	-1.501621
H	0.293079	0.138245	-2.090349
N	-0.466374	1.334905	0.242512
H	-1.464829	1.288249	0.434442
H	-0.346599	1.892927	-0.596828
C	-0.489959	-0.919091	1.092855
H	-0.178339	-0.52376	2.062254
H	-1.580704	-0.977802	1.063685
H	-0.063124	-1.915485	0.958227
N	-1.622921	-0.646616	-1.919375
H	-2.175035	-1.257389	-1.329951
H	-2.108615	0.23786	-1.836042
Cl	-4.123681	0.0	0.0
