12

C	0.0	0.0	0.0
C	-0.405625	-0.176385	-1.494084
Cl	1.776839	0.0	0.0
H	0.205046	0.55504	-2.039528
H	-0.366718	0.952608	0.375145
H	-0.366271	-0.81421	0.621578
N	-1.789129	-0.025735	-1.877141
H	-2.466036	-0.175525	-1.0615
H	-1.944617	0.941475	-2.137107
C	0.093099	-1.495591	-1.958644
N	0.476713	-2.539828	-2.338125
H	-3.4762	0.0	0.0
