12

C	0.0	0.0	0.0
C	-0.424934	-0.032476	-1.496059
Cl	1.778279	0.0	0.0
H	0.289845	0.61778	-2.014202
H	-0.370045	-0.855548	0.558356
H	-0.350314	0.921912	0.457826
N	-1.75924	0.379762	-1.857
H	-1.77701	1.393833	-1.844737
H	-2.478762	0.102122	-1.123037
C	-0.154041	-1.386983	-2.025353
N	0.057152	-2.454528	-2.467248
H	-3.483591	0.0	0.0
