12

C	0.0	0.0	0.0
C	-0.363518	-0.208727	-1.50219
Cl	1.776811	0.0	0.0
H	0.272087	0.501554	-2.046272
H	-0.370579	0.9608	0.350621
H	-0.373543	-0.802632	0.630399
N	-1.730061	-0.056567	-1.932798
H	-1.861081	0.895636	-2.254296
H	-2.415891	-0.154104	-1.125502
C	0.134595	-1.541721	-1.917795
N	0.515053	-2.59705	-2.265908
H	-3.383057	0.0	0.0
