12

C	0.0	0.0	0.0
C	-0.512151	-0.123405	-1.447213
Cl	1.776054	0.0	0.0
H	0.292981	0.21676	-2.109238
H	-0.359868	-0.79889	0.64245
H	-0.335911	0.962116	0.378673
N	-1.658233	0.741762	-1.632319
H	-2.026483	0.604428	-2.570474
H	-2.438243	0.44535	-0.956159
C	-0.697875	-1.560072	-1.787327
N	-0.816226	-2.678778	-2.128209
H	-3.485027	0.0	0.0
