12

C	0.0	0.0	0.0
C	-0.448875	-0.110145	-1.484424
Cl	1.778293	0.0	0.0
H	0.281744	0.475592	-2.056466
H	-0.345571	0.946801	0.409521
H	-0.370022	-0.820551	0.60932
N	-1.771735	0.343534	-1.838475
H	-1.766379	1.3593	-1.80382
H	-2.499048	0.069806	-1.10713
C	-0.25166	-1.505141	-1.928045
N	-0.097147	-2.610095	-2.292934
H	-3.524034	0.0	0.0
