12

C	0.0	0.0	0.0
C	-0.698303	0.177262	-1.329179
Cl	1.771121	0.0	0.0
H	-1.741279	0.448023	-0.961316
H	-0.34671	-0.940641	0.422508
H	-0.314308	0.803332	0.667753
N	-0.793772	-1.107062	-2.043259
H	-1.675121	-1.494657	-1.69332
H	-0.94363	-0.921885	-3.029634
C	-0.135866	1.232224	-2.150368
N	0.272544	2.109232	-2.820678
H	-3.033829	0.0	0.0
