14

C	0.0	0.0	0.0
C	-0.420846	0.061462	-1.48384
F	1.364785	0.0	0.0
H	-1.542106	0.009565	-1.388194
C	-0.666179	1.07866	0.76147
N	-0.581154	2.050262	1.446756
C	-0.447372	-1.294689	0.564867
N	-0.547175	-2.37585	1.024727
C	0.164653	-1.006757	-2.276175
N	0.627255	-1.905076	-2.884283
N	-0.067646	1.367862	-2.133764
O	-0.509406	1.514786	-3.272325
O	0.585555	2.189194	-1.499914
H	-2.338884	0.0	0.0
