14

C	0.0	0.0	0.0
C	-0.260197	0.265069	-1.510737
Cl	1.824988	0.0	0.0
H	0.360008	-0.456985	-2.048026
H	-0.303467	0.871754	0.582994
N	-0.521728	-1.257375	0.385088
H	-1.565634	-1.006183	0.317202
H	-0.28858	-1.39791	1.364437
C	0.159902	1.619103	-1.875557
N	0.544577	2.68679	-2.181158
N	-1.64313	0.02445	-2.102879
O	-2.290681	0.997366	-2.458718
O	-1.898791	-1.145879	-2.344935
F	-2.632827	0.0	0.0
