14

C	0.0	0.0	0.0
C	-0.461247	-0.040762	-1.475973
Cl	1.801739	0.0	0.0
H	0.340841	0.368014	-2.093273
H	-0.280224	0.983948	0.386597
N	-0.499254	-1.122543	0.722885
H	-1.53159	-0.933624	0.628401
H	-0.227881	-1.018671	1.694338
C	-1.68251	0.699526	-1.81536
N	-2.318849	1.435553	-2.480302
N	-0.548335	-1.478064	-1.933712
O	0.530847	-1.997746	-2.214885
O	-1.641959	-2.020085	-1.999852
F	-2.63157	0.0	0.0
