14

C	0.0	0.0	0.0
C	-0.601663	0.035203	-1.394481
Cl	1.78195	0.0	0.0
H	-1.732702	0.064263	-1.069074
H	-0.295617	0.932598	0.483277
N	-0.491445	-1.199425	0.626616
H	-0.178861	-1.208134	1.590677
H	-1.514371	-1.037563	0.608005
C	-0.255087	-1.117921	-2.201195
N	0.004357	-2.073507	-2.833797
N	-0.27268	1.296702	-2.105344
O	-0.34772	2.335196	-1.449267
O	0.010657	1.24444	-3.303291
F	-2.775237	0.0	0.0
