14

C	0.0	0.0	0.0
C	-0.273891	0.239956	-1.514006
Cl	1.823108	0.0	0.0
H	0.39068	-0.439582	-2.050627
H	-0.302028	0.882016	0.567759
N	-0.511029	-1.251354	0.421685
H	-0.271627	-1.362058	1.402432
H	-1.553672	-1.009602	0.354939
C	0.065908	1.616914	-1.870493
N	0.392375	2.710335	-2.147026
N	-1.634868	-0.092378	-2.108342
O	-1.8423	-1.284701	-2.274802
O	-2.311936	0.830073	-2.537375
F	-2.623653	0.0	0.0
