14

C	0.0	0.0	0.0
C	-0.362343	-0.03491	-1.510141
Cl	1.84041	0.0	0.0
H	-0.04579	0.907833	-1.96096
H	-0.327801	0.964026	0.378447
N	-0.469565	-1.036312	0.842944
H	-1.495875	-0.856123	0.784598
H	-0.265151	-1.927196	0.404137
C	-1.753249	-0.314271	-1.921508
N	-2.517521	-0.588285	-2.780617
N	0.468138	-1.07284	-2.228838
O	0.368083	-2.234169	-1.842301
O	1.1839	-0.689586	-3.149916
F	-2.609533	0.0	0.0
