14

C	0.0	0.0	0.0
C	-0.256073	0.183152	-1.525986
Cl	1.822803	0.0	0.0
H	0.347779	-0.58275	-2.017046
H	-0.301935	0.904231	0.533221
N	-0.528472	-1.231582	0.45148
H	-0.304399	-1.314781	1.43841
H	-1.572606	-0.975163	0.365461
C	0.192668	1.505074	-1.965885
N	0.587385	2.553633	-2.316543
N	-1.643327	-0.054251	-2.107988
O	-2.281363	0.919559	-2.478905
O	-1.918154	-1.226888	-2.316009
F	-2.641473	0.0	0.0
