15

C	-0.459229	0.001755	-1.439
C	0.0	0.0	0.0
Cl	0.25742	1.330004	-2.318193
H	1.089489	0.0	0.0
H	-0.120909	-0.934085	-1.884425
N	-1.978222	-0.014373	-1.5783
O	-2.539899	-0.785368	-0.807467
O	-2.508486	0.650169	-2.451972
N	-0.404416	-1.266438	0.697998
O	-0.95882	-1.189981	1.786006
O	-0.098234	-2.291881	0.100596
N	-0.496565	1.164591	0.775453
O	-1.462313	1.781172	0.32013
O	0.098849	1.414955	1.817591
Br	3.287317	0.0	0.0
