15

C	-0.624674	0.002484	-1.375033
C	0.0	0.0	0.0
Cl	-0.067796	-1.40447	-2.276441
H	1.086241	0.0	0.0
H	-1.710136	-0.012027	-1.330807
N	-0.254213	1.24759	-2.141572
O	0.716367	1.886894	-1.760631
O	-0.9754	1.495753	-3.103329
N	-0.517734	-1.207214	0.731583
O	0.295006	-1.977688	1.22039
O	-1.74593	-1.309908	0.77837
N	-0.500583	1.160307	0.802611
O	-0.037182	1.263842	1.931744
O	-1.342188	1.89622	0.288041
Br	3.344969	0.0	0.0
