14

C	-0.468548	-0.005516	-1.418819
C	0.0	0.0	0.0
Br	0.128521	-1.588668	-2.319204
H	1.091547	0.0	0.0
H	-0.310345	-0.945005	0.455674
N	-2.002611	0.083954	-1.488998
O	-2.46648	1.214921	-1.59747
O	-2.634587	-0.946081	-1.302164
N	0.016932	1.204994	-2.220359
O	-0.300222	1.225998	-3.403607
O	0.654831	2.050835	-1.612349
C	-0.537652	1.106874	0.766658
N	-0.982062	1.981037	1.415688
F	2.472441	0.0	0.0
