14

C	-0.379564	0.03299	-1.439599
C	0.0	0.0	0.0
Br	-2.299062	0.137376	-1.81506
H	1.092233	0.0	0.0
H	-0.320819	0.946319	0.443386
N	0.307687	1.266828	-2.046096
O	-0.192924	2.346492	-1.759591
O	1.323923	1.071974	-2.694763
N	0.136536	-1.174284	-2.225962
O	0.730105	-2.032174	-1.588645
O	-0.088211	-1.173017	-3.430055
C	-0.583183	-1.110316	0.71542
N	-1.050718	-2.002356	1.323624
F	2.468644	0.0	0.0
