14

C	-0.31872	-0.003997	-1.46224
C	0.0	0.0	0.0
Br	0.09747	1.696843	-2.247844
H	1.091863	0.0	0.0
H	-0.341104	0.940406	0.433799
N	0.44111	-1.131646	-2.169033
O	1.171834	-0.882763	-3.11155
O	0.195813	-2.232868	-1.691746
N	-1.793834	-0.269194	-1.814224
O	-2.618028	0.154947	-1.015091
O	-2.027473	-0.834925	-2.876853
C	-0.563776	-1.106707	0.74287
N	-1.00427	-1.966793	1.412754
F	2.48287	0.0	0.0
