14

C	-0.35057	-0.022204	-1.448557
C	0.0	0.0	0.0
Br	-0.014397	1.63679	-2.333829
H	1.095007	0.0	0.0
H	-0.321856	-0.94651	0.440856
N	0.436156	-1.174714	-2.096171
O	1.241275	-0.951147	-2.978889
O	0.133876	-2.266997	-1.625642
N	-1.811176	-0.408017	-1.768589
O	-2.054053	-0.709787	-2.931466
O	-2.609134	-0.380115	-0.841623
C	-0.564608	1.114121	0.72227
N	-0.992868	2.008673	1.353836
F	2.477768	0.0	0.0
