14

C	-0.41425	0.022897	-1.434753
C	0.0	0.0	0.0
Br	0.34921	1.541174	-2.323366
H	1.093579	0.0	0.0
H	-0.298245	0.951307	0.446594
N	-0.01906	-1.279847	-2.132441
O	0.931065	-1.293926	-2.894603
O	-0.721313	-2.231208	-1.802213
N	-1.932025	0.120702	-1.684792
O	-2.619774	0.504209	-0.747866
O	-2.323106	-0.152612	-2.81294
C	-0.562699	-1.090363	0.767726
N	-0.970333	-1.982714	1.415912
F	2.483159	0.0	0.0
