13

C	0.0	0.0	0.0
C	-0.581818	-0.171035	-1.400597
Br	1.942587	0.0	0.0
H	-1.658637	-0.273622	-1.217222
H	-0.317797	-0.822094	0.639509
H	-0.325721	0.937332	0.449952
N	-0.136947	-1.344499	-2.130205
H	-0.535383	-2.170644	-1.70108
H	0.874328	-1.408498	-2.079854
N	-0.255811	0.996705	-2.218283
H	-0.631453	0.799021	-3.139323
H	-0.783374	1.784206	-1.853567
Cl	-3.732173	0.0	0.0
