13

C	0.0	0.0	0.0
C	-0.534997	0.057612	-1.425326
Cl	1.763441	0.0	0.0
H	-1.546948	0.460209	-1.367726
H	-0.377541	-0.847752	0.564967
H	0.095334	0.734128	-2.00698
N	-0.37821	1.22716	0.796204
O	-0.561869	1.069062	1.997698
O	-0.401469	2.293694	0.191048
N	-0.612131	-1.248976	-2.06131
H	-1.413938	-1.730238	-1.668571
H	0.220221	-1.794408	-1.876302
Br	-3.630258	0.0	0.0
