13

C	0.0	0.0	0.0
C	-0.467859	0.285567	-1.434185
Cl	1.763801	0.0	0.0
H	0.102579	1.152351	-1.774759
H	-0.365231	-0.933581	0.421735
H	-0.121112	-0.57214	-2.022026
N	-0.427768	1.076629	0.963902
O	-0.580234	0.735092	2.131242
O	-0.540183	2.214518	0.521477
N	-1.85968	0.517505	-1.678221
H	-2.489106	-0.196554	-1.324565
H	-2.174836	1.373983	-1.243853
Br	-4.698274	0.0	0.0
