17

C	0.0	0.0	0.0
C	-0.58155	0.002496	-1.418921
Cl	1.755702	0.0	0.0
H	-1.688277	0.013134	-1.19301
N	-0.590992	1.211842	0.687194
O	-1.757441	0.903644	1.187217
O	-0.269325	2.344632	0.251875
N	-0.427991	-1.213851	0.62669
H	-0.14126	-1.180402	1.60122
H	-1.452778	-1.155513	0.623726
C	-0.291809	-1.257849	-2.084883
N	-0.067102	-2.222731	-2.718837
C	-0.216449	1.175741	-2.323576
H	0.866469	1.281537	-2.414304
H	-0.618669	2.09675	-1.905898
H	-0.638978	1.002368	-3.317426
H	-2.876524	0.0	0.0
