17

C	0.0	0.0	0.0
C	-0.253188	0.042417	-1.559071
Cl	1.761801	0.0	0.0
H	0.261274	-0.878586	-1.859764
N	-0.366835	1.365422	0.67081
O	-0.584472	2.337322	-0.039678
O	-0.395293	1.346696	1.896652
N	-0.670418	-1.060454	0.579497
H	-1.72769	-0.766343	0.431731
H	-0.475068	-1.077887	1.577031
C	0.490831	1.125327	-2.218532
N	1.039415	1.939982	-2.863604
C	-1.643744	-0.017559	-2.19565
H	-1.482451	-0.129612	-3.277836
H	-2.213253	-0.85407	-1.804853
H	-2.222399	0.876207	-1.98742
H	-2.977528	0.0	0.0
