15

C	0.0	0.0	0.0
C	-0.492054	0.000901	-1.448802
Br	1.949283	0.0	0.0
H	-0.044714	0.855575	-1.960034
H	-0.321518	0.943717	0.435076
C	-0.407166	-1.169105	0.889897
H	-1.492869	-1.212198	0.870109
H	-0.047885	-0.979819	1.905211
H	0.033476	-2.099499	0.534226
C	-1.96311	0.026687	-1.726974
N	-2.682114	0.062957	-2.672948
N	0.06439	-1.179172	-2.20857
O	-0.30228	-2.300812	-1.868706
O	0.845961	-0.939197	-3.128537
F	-2.633583	0.0	0.0
