15

C	0.0	0.0	0.0
C	-0.482024	0.501291	-1.379724
Br	1.947512	0.0	0.0
H	0.291659	0.272011	-2.123646
H	-0.336537	0.696618	0.760965
C	-0.394894	-1.422618	0.383567
H	0.033941	-1.64049	1.365105
H	-0.012894	-2.143609	-0.3375
H	-1.484205	-1.417653	0.414912
C	-0.648718	1.952149	-1.362371
N	-0.636132	3.127156	-1.374014
N	-1.700869	-0.152392	-2.00745
O	-2.501646	0.575684	-2.573339
O	-1.608565	-1.365653	-2.155139
F	-2.563912	0.0	0.0
