15

C	0.0	0.0	0.0
C	-0.558182	0.406117	-1.378363
Br	1.947416	0.0	0.0
H	0.27108	0.519572	-2.091441
H	-0.296852	0.773158	0.701081
C	-0.386091	-1.355127	0.598241
H	-0.006278	-1.376202	1.62392
H	-1.475191	-1.378074	0.586041
H	0.056907	-2.178891	0.042643
C	-1.246081	1.692008	-1.293459
N	-1.579382	2.818611	-1.296819
N	-1.439148	-0.595431	-2.083502
O	-2.319565	-0.153559	-2.805902
O	-1.078582	-1.766553	-2.037097
F	-2.535277	0.0	0.0
