15

C	0.0	0.0	0.0
C	-0.621954	-0.215516	-1.405787
Br	1.949385	0.0	0.0
H	-0.822379	0.752512	-1.859764
H	-0.324511	0.971138	0.356863
C	-0.371523	-1.097129	0.997773
H	-1.454907	-1.08112	1.091924
H	-0.024621	-2.063249	0.629033
H	0.107895	-0.897	1.958375
C	-1.854042	-1.036561	-1.451687
N	-2.459905	-1.901955	-1.986395
N	0.353042	-0.886916	-2.345025
O	0.731449	-0.238707	-3.32137
O	0.700162	-2.030548	-2.075802
F	-2.613346	0.0	0.0
