15

C	0.0	0.0	0.0
C	-0.50378	-0.159907	-1.440008
Br	1.949435	0.0	0.0
H	-0.222255	0.732389	-2.003413
H	-0.32542	0.980047	0.34089
C	-0.402274	-1.081498	0.99749
H	-0.007129	-0.821489	1.983257
H	-1.489161	-1.100221	1.013153
H	0.005743	-2.047298	0.701703
C	-1.95494	-0.427223	-1.684579
N	-2.670657	-0.740278	-2.580436
N	0.236926	-1.268008	-2.152992
O	0.912766	-0.954552	-3.131336
O	0.111218	-2.407762	-1.714951
F	-2.633076	0.0	0.0
