15

C	0.0	0.0	0.0
C	-0.489899	-0.04139	-1.450979
Br	1.948674	0.0	0.0
H	-0.060663	0.813708	-1.976957
H	-0.320397	0.957563	0.404862
C	-0.401681	-1.138263	0.932015
H	-1.487094	-1.176655	0.927679
H	-0.027241	-0.915572	1.934379
H	0.031039	-2.081621	0.601384
C	-1.960107	-0.056046	-1.736821
N	-2.678723	-0.053587	-2.683052
N	0.101177	-1.22114	-2.184692
O	-0.212047	-2.345441	-1.802172
O	0.852111	-0.978761	-3.128368
F	-2.619743	0.0	0.0
