15

C	-0.319948	-0.05951	-1.492887
C	0.0	0.0	0.0
Br	-0.175684	1.857301	-2.294728
H	1.095276	0.0	0.0
H	-0.309028	-0.979847	0.38475
N	0.563562	-0.954553	-2.108247
H	0.501346	-0.961579	-3.116599
H	1.52051	-0.793666	-1.79061
C	-1.71936	-0.387799	-1.782713
N	-2.837555	-0.685819	-1.99403
C	-0.627106	1.114566	0.811662
H	-0.202364	2.081814	0.546097
H	-1.712607	1.158463	0.673545
H	-0.425678	0.938585	1.871457
Cl	3.444816	0.0	0.0
