15

C	-0.540351	0.002716	-1.42604
C	0.0	0.0	0.0
Br	0.062031	-1.583951	-2.426577
H	1.092991	0.0	0.0
H	-0.312493	0.961181	0.433688
N	-1.993525	-0.031022	-1.427353
H	-2.322519	0.7486	-0.865701
H	-2.344764	0.083458	-2.370955
C	-0.025241	1.162239	-2.17318
N	0.261835	2.143436	-2.754778
C	-0.514661	-1.153224	0.852344
H	-0.172167	-2.10621	0.447522
H	-0.096826	-1.055882	1.856227
H	-1.603902	-1.176004	0.917643
Cl	3.488211	0.0	0.0
