15

C	-0.264367	0.119862	-1.498843
C	0.0	0.0	0.0
Br	-2.171944	0.651549	-1.894868
H	1.098278	0.0	0.0
H	-0.374607	-0.952713	0.378232
N	0.599992	1.120521	-2.045066
H	1.537314	0.983831	-1.659586
H	0.634551	1.075115	-3.055227
C	-0.15216	-1.193822	-2.155647
N	-0.015219	-2.233864	-2.68818
C	-0.489349	1.183516	0.82113
H	-0.216582	2.118749	0.330308
H	-1.571983	1.166557	0.964817
H	-0.0032	1.161417	1.799341
Cl	3.417201	0.0	0.0
