15

C	-0.353189	-0.049225	-1.489552
C	0.0	0.0	0.0
Br	-0.117036	1.742953	-2.305264
H	1.095289	0.0	0.0
H	-0.301437	-0.985005	0.385241
N	0.488665	-0.959514	-2.24124
H	0.299178	-1.900118	-1.904029
H	1.454212	-0.745888	-1.980821
C	-1.765936	-0.392779	-1.697614
N	-2.895584	-0.704251	-1.793684
C	-0.622434	1.100336	0.8383
H	-1.712471	1.123744	0.736879
H	-0.224571	2.075368	0.55814
H	-0.381328	0.932496	1.890685
Cl	3.451046	0.0	0.0
