15

C	-0.299104	0.020959	-1.493015
C	0.0	0.0	0.0
Br	-2.213465	0.595613	-1.812259
H	1.095462	0.0	0.0
H	-0.316152	0.969314	0.394973
N	0.567261	0.961655	-2.125255
H	0.604053	0.830015	-3.127785
H	1.503601	0.874003	-1.723531
C	-0.260501	-1.325084	-2.088862
N	-0.195667	-2.385651	-2.593971
C	-0.596237	-1.154683	0.779399
H	-1.687482	-1.173683	0.704815
H	-0.324901	-1.058667	1.832961
H	-0.204961	-2.110778	0.42609
Cl	3.418568	0.0	0.0
