15

C	-0.554232	-0.002754	-1.427621
C	0.0	0.0	0.0
Br	0.118539	-1.573225	-2.409028
H	1.093482	0.0	0.0
H	-0.319104	0.958597	0.433424
N	-2.010983	-0.04117	-1.552133
H	-2.384973	0.751494	-1.035287
H	-2.345126	-0.888252	-1.105063
C	-0.097427	1.191425	-2.149494
N	0.223692	2.197554	-2.665312
C	-0.50117	-1.148794	0.865439
H	-0.039661	-1.068099	1.852224
H	-1.588009	-1.14282	1.003149
H	-0.202469	-2.110892	0.446121
Cl	3.478846	0.0	0.0
