15

C	-0.556759	0.024165	-1.416763
C	0.0	0.0	0.0
Br	0.273378	-1.498963	-2.47837
H	1.091699	0.0	0.0
H	-0.327522	0.94286	0.454957
N	-1.983183	-0.051566	-1.434957
H	-2.330584	-0.047309	-2.38665
H	-2.282598	-0.907844	-0.985599
C	-0.155087	1.230357	-2.144343
N	0.079338	2.220657	-2.731556
C	-0.498511	-1.175057	0.834291
H	-1.56721	-1.113849	1.06519
H	-0.28983	-2.124677	0.336724
H	0.045649	-1.181048	1.780565
Cl	3.485976	0.0	0.0
