14

C	-0.482594	0.003568	-1.463746
C	0.0	0.0	0.0
Cl	0.170061	1.45308	-2.276515
H	1.096018	0.0	0.0
H	-0.010553	-0.851912	-1.950901
C	-1.991238	-0.02606	-1.612843
H	-2.265887	-0.041196	-2.669176
H	-2.431736	0.861672	-1.154109
H	-2.401222	-0.916881	-1.13003
C	-0.456704	-1.230587	0.648562
N	-0.825957	-2.238829	1.125273
C	-0.50027	1.162218	0.734186
N	-0.922814	2.093331	1.312207
Br	3.349156	0.0	0.0
