14

C	-0.338873	0.004158	-1.496931
C	0.0	0.0	0.0
Cl	-2.116771	0.0622	-1.764516
H	1.098509	0.0	0.0
H	0.057944	0.935556	-1.905496
C	0.273888	-1.191053	-2.196381
H	0.10684	-1.125937	-3.273256
H	-0.167407	-2.120306	-1.829717
H	1.3485	-1.194192	-1.99041
C	-0.485659	-1.205612	0.666944
N	-0.862561	-2.185352	1.193484
C	-0.481638	1.199096	0.680509
N	-0.85531	2.173089	1.219752
Br	3.358035	0.0	0.0
