14

C	-0.483363	0.002301	-1.463477
C	0.0	0.0	0.0
Cl	0.173788	1.447855	-2.279574
H	1.095901	0.0	0.0
H	-0.014762	-0.855871	-1.949201
C	-1.99221	-0.022041	-1.61158
H	-2.267677	-0.04065	-2.667642
H	-2.405628	-0.908875	-1.124471
H	-2.428611	0.86955	-1.156593
C	-0.457532	-1.229296	0.650328
N	-0.827621	-2.23662	1.128351
C	-0.499452	1.163586	0.732753
N	-0.924648	2.094725	1.308648
Br	3.349533	0.0	0.0
