14

C	-0.338934	0.004604	-1.496928
C	0.0	0.0	0.0
Cl	-2.11685	0.062585	-1.764433
H	1.098432	0.0	0.0
H	0.057783	0.936169	-1.905209
C	0.273903	-1.190345	-2.196767
H	-0.167296	-2.119746	-1.83038
H	1.348519	-1.193468	-1.990853
H	0.106802	-1.1249	-3.273607
C	-0.485632	-1.205838	0.666561
N	-0.862519	-2.186053	1.192221
C	-0.481625	1.198965	0.68075
N	-0.855367	2.173561	1.218841
Br	3.358034	0.0	0.0
