14

C	-0.46488	0.006172	-1.470627
C	0.0	0.0	0.0
Cl	0.107062	1.510859	-2.241827
H	1.09614	0.0	0.0
H	0.070045	-0.807245	-1.965899
C	-1.965697	-0.120494	-1.644113
H	-2.317938	-1.05794	-1.206214
H	-2.2238	-0.110804	-2.704769
H	-2.475691	0.713608	-1.157005
C	-0.442196	-1.243538	0.634903
N	-0.798571	-2.261716	1.100268
C	-0.522528	1.146565	0.740427
N	-0.976274	2.061103	1.320876
Br	3.35346	0.0	0.0
