17
Coordinates from ORCA-job run
  C   -0.69161697141278      0.05955914688293      0.00290703246532
  C   0.82904228545037     -0.18612177765688      0.07206023882014
  Cl  -1.02577698314029      1.68728676900890      0.80840008819775
  H   0.96586084434677     -1.19793634341775     -0.32971305158307
  N   -1.10155900765859      0.04138605827983     -1.36033383473758
  H   -2.11209053228145      0.06312196465109     -1.42615762693063
  H   -0.73754820791925      0.83678441880028     -1.86963198948904
  C   -1.46340326653891     -0.98106276005713      0.79218632054966
  H   -1.16140702149318     -0.98221671152550      1.83894571431237
  H   -1.28244344037858     -1.96682991782829      0.35627443270344
  H   -2.53326545163570     -0.76589784873869      0.74752492603831
  C   1.28975027664186     -0.20493677601523      1.46148412106686
  N   1.68607005213954     -0.23526729688906      2.56620064624637
  C   1.67198643931930      0.78376660783058     -0.75952353282536
  H   1.44401840271272      0.66952649357956     -1.82042291685213
  H   2.73200132456988      0.56397928933923     -0.62363609011026
  H   1.49238125727829      1.81485868375613     -0.45356447787216
