17
Coordinates from ORCA-job run
  C   -0.63093095927007      0.26915374784862      0.03790403606085
  C   0.79913730353797     -0.31170409851118     -0.02166151339372
  Cl  -0.63216401001044      1.71353730358715      1.10470447588750
  H   0.74382576777854     -1.14327455114071     -0.73893372417366
  N   -0.96668838981011      0.73182999061837     -1.29930807720125
  H   -1.15686894936539     -0.07593450496232     -1.88532412716138
  H   -1.81271648552144      1.28933523843917     -1.26074159378428
  C   -1.62257185095169     -0.73062355260516      0.61831442406164
  H   -1.62598454189001     -1.63616807988520      0.00229206925529
  H   -2.62564460013776     -0.29970694883213      0.60807345469248
  H   -1.37221668571261     -1.00573258179116      1.64339347555264
  C   1.18141102005889     -0.89041174694749      1.26772809913604
  N   1.51052170948005     -1.34676445721915      2.29813021362337
  C   1.85972606620953      0.67978693317169     -0.50540833831356
  H   2.80117020349077      0.15670855911085     -0.68347277184130
  H   1.51959339828181      1.14600320865158     -1.42866716166183
  H   2.03040100383194      1.45396554046709      0.24197705926116
