17
Coordinates from ORCA-job run
  C   -0.73058159496375      0.17324052671407      0.25353332197577
  C   0.78042239295441      0.12790230593164      0.55967190334408
  Cl  -1.52117506214724      0.82282831941361      1.80204389794087
  H   0.90448950948513     -0.37896458435633      1.52175458011477
  N   -0.97884082102100      1.00284006284000     -0.86879172659995
  H   -0.68932675880091      1.96018985707562     -0.70259230527874
  H   -1.95952153122534      0.99664933748591     -1.12003939644691
  C   -1.31494166024635     -1.20956604360284      0.03127350664329
  H   -1.05415210434198     -1.87761574555188      0.85329632544233
  H   -2.40378061594337     -1.14617844868664     -0.01825087552214
  H   -0.94720056308113     -1.61905105044291     -0.91047898733371
  C   1.28649918446284      1.49465779592862      0.71219222899102
  N   1.69390578989902      2.59428836542739      0.77449310214857
  C   1.58269003610726     -0.60112890106377     -0.52444718606279
  H   2.65099913878456     -0.51361021201141     -0.31897966412339
  H   1.37422009688391     -0.16612509678318     -1.50188583441070
  H   1.32829456319396     -1.66135648831791     -0.54179289082236
