17
Coordinates from ORCA-job run
  C   -0.74876059960904      0.14961793014238      0.02776126654942
  C   0.76919316892030     -0.18313937490914      0.08015482085957
  Cl  -0.99568205456818      1.71394717597015      0.88179185404312
  H   0.86431211651577     -1.15750328219480     -0.41952081479464
  N   -1.26573152354374      0.31643783131874     -1.30929152810729
  H   -1.18520210728412     -0.55075990515753     -1.82854251328127
  H   -0.78715273178224      1.05504836420946     -1.80860055810521
  C   -1.56369865440154     -0.91703515184310      0.73666548157227
  H   -1.26825463603153     -1.01405376432220      1.78105301503671
  H   -1.41842902856546     -1.88232688383148      0.23980798664010
  H   -2.61846894804683     -0.64906648260424      0.68189494189567
  C   1.21983436726040     -0.37121336661155      1.46051965380212
  N   1.59919590439615     -0.51877812249430      2.56206803308985
  C   1.67570321083643      0.81955089726984     -0.63683299644985
  H   1.41143309097326      0.89065529975446     -1.69312112036689
  H   2.71445151946582      0.49111698265535     -0.57493728315987
  H   1.59825690546455      1.80650185264796     -0.18087023922381
