17
Coordinates from ORCA-job run
  C   -0.67657567047009      0.16622247111939      0.43505612346233
  C   0.85593884135721      0.34463320771918      0.33878994659400
  Cl  -1.02739600999200     -0.54598211744623      2.05147960098427
  H   1.13285752650277      0.96802323299075      1.19515871451479
  N   -1.26954482950162      1.49006579459525      0.43989459376154
  H   -1.17808905494879      1.90302515258493     -0.48360911461103
  H   -2.25810681590043      1.41972193546519      0.65473948658444
  C   -1.23285648770858     -0.77957999974296     -0.61970145783498
  H   -2.31824322253192     -0.83740164502517     -0.51715749417209
  H   -0.99819994909981     -0.39261217912375     -1.61608107048959
  H   -0.82892497760236     -1.78820061172948     -0.52517469674002
  C   1.14570450585830      1.10901683921981     -0.87781603753369
  N   1.34402811813971      1.69662942505913     -1.87544626106385
  C   1.66959940590883     -0.95117934348679      0.34564937393385
  H   1.41579967756248     -1.55045064994694      1.22011489729862
  H   2.73438604482668     -0.71522458285275      0.38678738289303
  H   1.49062289759963     -1.53870692939953     -0.55568398758161
