17
Coordinates from ORCA-job run
  C   -0.68200861696090      0.12920065047318     -0.02666648460279
  C   0.80254209313111     -0.26131323065671      0.11844970169120
  Cl  -0.86381539603610      1.85530773827658      0.60354323048725
  H   0.84245187643824     -1.31757979241071     -0.17592416469461
  N   -1.05857007460262      0.01517759680169     -1.39481280513356
  H   -0.60089959246029      0.71378765613272     -1.96670337061857
  H   -2.05934955975234      0.13355774600731     -1.49712980181292
  C   -1.57664474496735     -0.74284566636518      0.83401310229068
  H   -1.30265406229020     -0.66683574957769      1.88582405331812
  H   -1.48710796691686     -1.78129817000839      0.50484486866943
  H   -2.61730055158233     -0.42764844984683      0.73028754363397
  C   1.22616033536483     -0.18483609258461      1.51766410271304
  N   1.59324083652320     -0.13780365859389      2.63189308147951
  C   1.76157155004809      0.52810546140316     -0.77602958133945
  H   1.68080087222896      1.59822834535193     -0.58227178637673
  H   2.78973037236929      0.21960345503409     -0.58053895571985
  H   1.54985262946527      0.32719216056336     -1.82744273398471
