17
Coordinates from ORCA-job run
  C   -0.72753456648383      0.17820488795235      0.25809409445173
  C   0.78701639284675      0.14039657895571      0.54817031941841
  Cl  -1.50161357300755      0.85814955841398      1.80202563032034
  H   0.92196610813514     -0.34554119687349      1.51952755661363
  N   -0.98943640850201      0.98485098469402     -0.87760024517010
  H   -1.97249034458451      0.97198277582388     -1.11888298690286
  H   -0.69952027499885      1.94571124008492     -0.73420194309633
  C   -1.31284711745641     -1.20917881269354      0.07007641303127
  H   -0.95548019350228     -1.63727400197289     -0.86740926875977
  H   -1.04195634568157     -1.86063588666045      0.90212269369937
  H   -2.40224103892259     -1.14752841774865      0.03188248053456
  C   1.29311417847669      1.51049727207302      0.66534339909347
  N   1.69601799874234      2.61297888541300      0.70027296488171
  C   1.57712097905218     -0.61190564304064     -0.52905988607805
  H   1.35493427960261     -0.19970435172066     -1.51340414229025
  H   2.64774571480665     -0.51720040280117     -0.33931900783122
  H   1.32520421147724     -1.67280346989939     -0.51863807191590
