17
Coordinates from ORCA-job run
  C   -0.78916264836891      0.18073489911966      0.34048974899142
  C   0.74818775721152      0.13445790418089      0.57266026409672
  Cl  -1.48915069523680      0.80433297831908      1.88558403025260
  H   0.92992163186967     -0.40197712037686      1.51003264324104
  N   -1.22920193589512      1.06241378624587     -0.70542413123191
  H   -0.98611408190763      0.69405842257345     -1.61632882151963
  H   -0.84777203750818      1.99527187056528     -0.59739310051437
  C   -1.35547336229376     -1.20671386625391      0.09698681331435
  H   -1.03204148628802     -1.58817109168451     -0.87492940112787
  H   -2.44336327136620     -1.14636773741881      0.09792210011346
  H   -1.03495893214216     -1.90184016725936      0.87492294614418
  C   1.25066604764703      1.50033840143009      0.73294023025382
  N   1.65029150209987      2.60300606146337      0.79312739701473
  C   1.50792536160711     -0.55506339151879     -0.56598909681922
  H   1.25113275914830     -1.61331563217759     -0.61981055659467
  H   1.28676999802098     -0.08388052610339     -1.52612182966509
  H   2.58334339340230     -0.47628479110447     -0.39866923594956
