17
Coordinates from ORCA-job run
  C   -0.67941916270779      0.16758165570219      0.43312930074058
  C   0.85059509603564      0.36076257854545      0.33102455590324
  Cl  -1.02157392836531     -0.51548400149986      2.06348640403763
  H   1.12204266930434      1.00449569286313      1.17408533025306
  N   -1.28653604720032      1.48505616686057      0.41153801421952
  H   -2.27366511095556      1.40899721529043      0.63095128817643
  H   -1.20219144151203      1.87926811101356     -0.52081118792528
  C   -1.22645825232584     -0.80487967858491     -0.60216486707475
  H   -0.99510710304327     -0.43644377683339     -1.60635032905482
  H   -0.81316711189439     -1.80753563771818     -0.48694967869601
  H   -2.31130977582901     -0.87073751239534     -0.49874052925566
  C   1.13220125189957      1.10460827697159     -0.90010468552823
  N   1.34854296065716      1.66676053087463     -1.90858311456243
  C   1.67867017043642     -0.92523706294170      0.36167934077875
  H   1.43529526877481     -1.50817395336157      1.25011472248011
  H   1.50210122604156     -1.53409883595192     -0.52586157966145
  H   2.74097929068401     -0.67693976883468      0.39255701516930
