13

C	0.0	0.0	0.0
C	-0.461744	-0.273824	-1.435664
Br	1.958347	0.0	0.0
H	-1.502881	-0.581525	-1.285389
H	-0.349469	0.969835	0.342045
H	0.163494	-1.060829	-1.871912
C	-0.442013	-1.016698	0.954453
N	-0.613434	-1.85778	1.756872
C	-0.443155	0.998755	-2.266203
H	-1.210984	1.665947	-1.862154
H	0.53026	1.504372	-2.253458
H	-0.697522	0.787213	-3.311391
F	-2.559957	0.0	0.0
