13

C	0.0	0.0	0.0
C	-0.455078	0.012475	-1.463566
Br	1.958306	0.0	0.0
H	-1.514065	-0.26202	-1.364371
H	-0.355766	0.877449	0.530684
H	0.130527	-0.722765	-2.025042
C	-0.429259	-1.206787	0.702711
N	-0.579766	-2.232458	1.256806
C	-0.347627	1.401996	-2.070404
H	0.665401	1.815605	-2.017422
H	-1.038422	2.059971	-1.536616
H	-0.650543	1.386267	-3.122328
F	-2.559798	0.0	0.0
