13

C	0.0	0.0	0.0
C	-0.20335	-0.098902	-1.55969
Br	1.956034	0.0	0.0
H	0.453662	0.675775	-1.966222
H	-0.353908	0.935837	0.406937
H	0.269454	-1.048504	-1.84072
C	-0.498025	-1.117068	0.786431
N	-0.624439	-2.068245	1.470273
C	-1.539156	0.015184	-2.278676
H	-2.019256	0.966168	-2.067721
H	-1.318414	-0.065303	-3.357417
H	-2.233351	-0.747987	-1.95448
F	-2.387517	0.0	0.0
