13

C	0.0	0.0	0.0
C	-0.447761	-0.254719	-1.448121
Br	1.958463	0.0	0.0
H	0.23981	-0.964005	-1.921719
H	-0.352413	0.95896	0.365132
H	-1.457219	-0.653683	-1.329568
C	-0.425317	-1.059707	0.911717
N	-0.567777	-1.965376	1.647601
C	-0.54392	1.05452	-2.214505
H	0.382746	1.637917	-2.174946
H	-0.786668	0.877227	-3.267512
H	-1.362112	1.619363	-1.762741
F	-2.520348	0.0	0.0
