13

C	0.0	0.0	0.0
C	-0.443757	0.014978	-1.470447
Br	1.959007	0.0	0.0
H	-1.487156	0.335846	-1.380913
H	-0.329974	0.904387	0.501266
H	0.179014	0.740309	-2.005277
C	-0.455283	-1.161864	0.75524
N	-0.605354	-2.154727	1.367129
C	-0.384061	-1.357018	-2.121611
H	-1.144464	-1.990119	-1.660624
H	0.594473	-1.837519	-2.015673
H	-0.60943	-1.281366	-3.190673
F	-2.535177	0.0	0.0
