13

C	0.0	0.0	0.0
C	-0.446459	-0.003606	-1.469508
Br	1.959061	0.0	0.0
H	0.166992	0.723647	-2.011862
H	-0.326964	0.911886	0.489437
H	-1.493585	0.306866	-1.378314
C	-0.456233	-1.149944	0.773495
N	-0.603059	-2.121482	1.419915
C	-0.371167	-1.379912	-2.108583
H	0.618272	-1.839893	-2.01583
H	-0.616337	-1.318349	-3.174132
H	-1.111004	-2.024529	-1.630477
F	-2.542225	0.0	0.0
