15

C	-0.47043	0.037227	-1.442411
C	0.0	0.0	0.0
F	-1.729031	0.5494	-1.577793
H	1.088007	0.0	0.0
H	0.223177	0.663279	-2.009295
N	-0.441455	-1.308388	-2.12475
O	-1.329642	-1.553861	-2.931562
O	0.521927	-2.011162	-1.85165
N	-0.543138	-1.2142	0.710195
O	0.011542	-1.545435	1.747606
O	-1.555096	-1.740911	0.237367
N	-0.423413	1.15505	0.735209
H	-1.209303	1.631772	0.319728
H	0.357518	1.773624	0.896898
Cl	3.262281	0.0	0.0
