15

C	-0.610247	-0.017573	-1.387986
C	0.0	0.0	0.0
F	0.131085	-0.698328	-2.297579
H	1.097377	0.0	0.0
H	-1.632804	-0.393234	-1.385964
N	-0.713903	1.396138	-1.905542
O	0.27547	2.110418	-1.79979
O	-1.773149	1.699667	-2.454183
N	-0.390868	-1.288084	0.667048
O	-0.479865	-1.295723	1.892883
O	-0.55315	-2.269767	-0.054509
N	-0.563386	1.112062	0.748474
H	0.140225	1.841598	0.741603
H	-0.656315	0.804795	1.710476
Cl	3.240751	0.0	0.0
