15

C	-0.530198	0.023457	-1.427634
C	0.0	0.0	0.0
F	0.01918	-0.974513	-2.157331
H	1.090451	0.0	0.0
H	-1.616794	-0.047683	-1.467463
N	-0.189276	1.342534	-2.067844
O	-1.010607	2.239412	-1.870399
O	0.845431	1.431093	-2.709924
N	-0.510021	-1.309902	0.571505
O	0.280082	-2.059137	1.127884
O	-1.728275	-1.49256	0.478523
N	-0.478914	1.047411	0.841794
H	-1.337573	1.469718	0.516896
H	0.24124	1.745103	0.968057
Cl	3.320616	0.0	0.0
