15

C	-0.552809	0.045739	-1.414864
C	0.0	0.0	0.0
F	-0.068556	-0.983373	-2.147574
H	1.09045	0.0	0.0
H	-1.642581	0.021615	-1.43064
N	-0.169274	1.339943	-2.087429
O	0.731838	1.332648	-2.913751
O	-0.845794	2.311837	-1.746397
N	-0.507705	-1.316278	0.565831
O	-1.699334	-1.573479	0.363843
O	0.258234	-1.991667	1.240569
N	-0.462883	1.036904	0.867437
H	0.305483	1.651624	1.090455
H	-1.236044	1.564829	0.491934
Cl	3.290523	0.0	0.0
