15

C	-0.495444	0.148017	-1.431263
C	0.0	0.0	0.0
F	-1.823365	0.49694	-1.454829
H	1.097438	0.0	0.0
H	0.089697	0.911982	-1.941572
N	-0.356666	-1.105847	-2.255432
O	0.685517	-1.215668	-2.890331
O	-1.291414	-1.899477	-2.223593
N	-0.52869	-1.306893	0.545626
O	-1.559252	-1.276272	1.212221
O	0.096929	-2.318358	0.238187
N	-0.416105	1.080137	0.82611
H	0.324792	1.758702	0.916516
H	-1.297556	1.491513	0.564183
Cl	3.258075	0.0	0.0
