15

C	-0.602447	-0.08878	-1.39199
C	0.0	0.0	0.0
F	0.186496	-0.757363	-2.267968
H	1.097417	0.0	0.0
H	-1.604505	-0.518855	-1.40081
N	-0.767187	1.307754	-1.934011
O	-1.901589	1.636238	-2.278383
O	0.244429	1.990372	-2.0245
N	-0.384295	-1.265207	0.722594
O	-0.576978	-1.209567	1.935209
O	-0.448544	-2.289566	0.0485
N	-0.512821	1.159307	0.701139
H	-0.860609	0.85505	1.602357
H	0.279622	1.763943	0.879333
Cl	3.225758	0.0	0.0
