15

C	-0.616974	0.105645	-1.377544
C	0.0	0.0	0.0
F	-1.980567	0.134411	-1.266317
H	1.090275	0.0	0.0
H	-0.269063	1.023602	-1.849008
N	-0.254483	-1.006369	-2.331641
O	0.887638	-0.950875	-2.76461
O	-1.117846	-1.826617	-2.617678
N	-0.423344	-1.333388	0.615388
O	-1.059045	-1.310482	1.669114
O	-0.079635	-2.345844	0.013028
N	-0.436639	1.125036	0.754906
H	0.21319	1.286181	1.511297
H	-1.362546	0.974901	1.131218
Cl	3.250421	0.0	0.0
