15

C	-0.117546	-0.041616	-1.553182
C	0.0	0.0	0.0
Cl	0.149173	1.69623	-2.165817
H	1.095788	0.0	0.0
N	0.885568	-0.936308	-1.96882
H	1.758009	-0.704584	-1.449006
H	1.012287	-0.943182	-2.971651
C	-1.445884	-0.394244	-2.066925
N	-2.520221	-0.675211	-2.452015
C	-0.468076	-1.270946	0.538812
N	-0.880007	-2.24975	1.045422
N	-0.597406	1.143362	0.650036
H	-1.353856	0.872065	1.261096
H	0.116886	1.612304	1.189437
F	2.62043	0.0	0.0
