15

C	-0.498052	-0.011685	-1.429644
C	0.0	0.0	0.0
Cl	-2.442323	-0.024627	-1.375391
H	1.094278	0.0	0.0
N	-0.027602	1.107428	-2.111179
H	-0.084248	1.905269	-1.488744
H	-0.479261	1.259262	-3.000852
C	-0.200932	-1.254183	-2.14017
N	0.027061	-2.236485	-2.741377
C	-0.488384	-1.137983	0.761807
N	-0.857466	-2.025535	1.440326
N	-0.313076	1.297385	0.598509
H	0.480013	1.54079	1.180044
H	-1.156602	1.269229	1.156999
F	2.503486	0.0	0.0
