15

C	-0.541488	-0.227836	-1.409964
C	0.0	0.0	0.0
Cl	-0.167003	-1.897427	-1.956101
H	1.106209	0.0	0.0
N	-1.972488	-0.03922	-1.440093
H	-2.301521	-0.003056	-2.39864
H	-2.131933	0.865327	-1.003439
C	0.155154	0.685329	-2.340715
N	0.567359	1.441687	-3.140782
C	-0.540446	-0.979324	0.924339
N	-0.963749	-1.723272	1.731273
N	-0.376922	1.380307	0.384426
H	0.504484	1.861255	0.53658
H	-0.884867	1.385463	1.259826
F	2.524774	0.0	0.0
