15

C	-0.487796	-0.036594	-1.450066
C	0.0	0.0	0.0
Cl	-0.236414	-1.671681	-2.152342
H	1.102649	0.0	0.0
N	-1.89194	0.287958	-1.527702
H	-1.990362	1.164091	-1.019839
H	-2.160718	0.436918	-2.494343
C	0.341678	0.891605	-2.248989
N	0.864793	1.679257	-2.946864
C	-0.570884	-1.07962	0.781028
N	-1.021729	-1.908263	1.483718
N	-0.358682	1.328115	0.543389
H	-0.959996	1.241706	1.352502
H	0.518507	1.74028	0.843882
F	2.52345	0.0	0.0
