15

C	-0.119253	0.079054	-1.531771
C	0.0	0.0	0.0
Cl	-1.810117	0.518964	-2.043246
H	1.09808	0.0	0.0
N	0.810429	1.057451	-2.050581
H	0.52475	1.935389	-1.623441
H	1.700132	0.807652	-1.58091
C	0.170813	-1.229314	-2.13601
N	0.350256	-2.261889	-2.66563
C	-0.618969	-1.171343	0.594906
N	-1.125053	-2.092296	1.125347
N	-0.39309	1.269831	0.590095
H	0.249198	1.474392	1.344729
H	-1.338175	1.243874	0.951365
F	2.577241	0.0	0.0
