15

C	-0.560747	0.054909	-1.417681
C	0.0	0.0	0.0
Cl	0.166683	-1.345044	-2.369506
H	1.095005	0.0	0.0
N	-1.99018	0.019989	-1.433792
H	-2.339313	0.054657	-2.384594
H	-2.302318	-0.844039	-1.002722
C	-0.109863	1.280477	-2.085168
N	0.187228	2.269784	-2.642999
C	-0.51946	-1.185511	0.674597
N	-0.985957	-2.10865	1.237601
N	-0.353015	1.24343	0.676946
H	0.426451	1.488731	1.274692
H	-1.206633	1.178445	1.214278
F	2.521681	0.0	0.0
