15

C	-0.55686	-0.224173	-1.415279
C	0.0	0.0	0.0
Cl	-0.161686	-1.893242	-1.946328
H	1.106371	0.0	0.0
N	-1.991424	-0.035928	-1.565224
H	-2.445428	-0.727512	-0.975227
H	-2.175814	0.880702	-1.164163
C	0.113802	0.705931	-2.336654
N	0.574369	1.451162	-3.118231
C	-0.585351	-0.971271	0.902431
N	-1.126831	-1.724896	1.627102
N	-0.37573	1.382462	0.373283
H	0.504716	1.859473	0.538879
H	-0.905768	1.402245	1.235683
F	2.520372	0.0	0.0
