15

C	-0.416733	0.142051	-1.46877
C	0.0	0.0	0.0
Cl	0.196706	-1.317881	-2.403062
H	1.101444	0.0	0.0
N	-1.831038	0.310792	-1.612879
H	-2.091592	0.388258	-2.590426
H	-2.29939	-0.497489	-1.213839
C	0.254621	1.312851	-2.051831
N	0.710146	2.273816	-2.550466
C	-0.633297	-1.185661	0.557992
N	-1.178452	-2.127347	1.005637
N	-0.36662	1.180426	0.772754
H	-1.171153	1.655406	0.379792
H	0.440719	1.792249	0.772296
F	2.518512	0.0	0.0
