15

C	-0.130936	-0.29235	-1.524372
C	0.0	0.0	0.0
Cl	0.142503	1.280602	-2.381998
H	1.106297	0.0	0.0
N	0.905465	-1.203958	-1.935416
H	1.74779	-0.920093	-1.396396
H	0.642328	-2.143023	-1.655421
C	-1.460245	-0.761846	-1.928144
N	-2.527056	-1.166517	-2.212155
C	-0.45417	-1.178542	0.719833
N	-0.809775	-2.125918	1.320202
N	-0.68746	1.204414	0.460016
H	-0.885307	1.105508	1.449064
H	-0.023072	1.966207	0.369458
F	2.621383	0.0	0.0
