15

C	-0.547648	-0.020707	-1.424977
C	0.0	0.0	0.0
Cl	0.202505	-1.460977	-2.297345
H	1.102918	0.0	0.0
N	-1.976695	-0.069883	-1.453771
H	-2.31531	-0.085405	-2.408829
H	-2.286633	-0.91363	-0.982998
C	-0.104031	1.171919	-2.155645
N	0.178029	2.098606	-2.819068
C	-0.52068	-1.155358	0.722213
N	-0.987553	-2.050353	1.328851
N	-0.360801	1.273945	0.609023
H	0.409557	1.551658	1.2036
H	-1.222447	1.237469	1.136423
F	2.520297	0.0	0.0
