15

C	-0.091735	0.079435	-1.546005
C	0.0	0.0	0.0
Cl	-1.737007	0.679394	-2.111463
H	1.105577	0.0	0.0
N	0.925896	0.999185	-1.95095
H	1.096798	0.935838	-2.946797
H	1.779618	0.74619	-1.404597
C	0.035046	-1.255483	-2.157135
N	0.187282	-2.297856	-2.680135
C	-0.65038	-1.182199	0.534635
N	-1.191389	-2.126297	0.979429
N	-0.405371	1.202068	0.69903
H	-1.250907	1.586525	0.292033
H	0.341501	1.875998	0.58643
F	2.611854	0.0	0.0
