16

C	-0.342434	0.129032	-1.483116
C	0.0	0.0	0.0
F	-0.182133	-1.123348	-2.092248
H	1.096497	0.0	0.0
H	-1.396439	0.400696	-1.645514
C	0.621881	1.094296	-2.146695
H	1.617772	0.877531	-1.741497
H	0.593348	0.96132	-3.231339
H	0.354137	2.130385	-1.919606
C	-0.604858	-1.183673	0.578013
N	-1.129187	-2.113558	1.071797
C	-0.410172	1.256086	0.7736
H	-1.461825	1.528438	0.623691
H	-0.242186	1.106388	1.841958
H	0.227295	2.084344	0.461969
F	2.636032	0.0	0.0
