16

C	-0.216679	-0.005672	-1.499133
C	0.0	0.0	0.0
F	-1.584688	-0.06698	-1.852108
H	1.097091	0.0	0.0
H	0.147308	0.958208	-1.873168
C	0.552203	-1.129552	-2.1517
H	0.529876	-1.047872	-3.241368
H	0.130805	-2.095093	-1.859988
H	1.575578	-1.045605	-1.770437
C	-0.513222	-1.215183	0.6083
N	-0.936921	-2.186466	1.119379
C	-0.544205	1.247665	0.685845
H	-1.621641	1.367341	0.532524
H	-0.027991	2.123049	0.2807
H	-0.343276	1.213962	1.759328
F	2.624089	0.0	0.0
