12

C	-0.319758	0.120301	-1.450982
C	0.0	0.0	0.0
F	-1.667042	0.203116	-1.753482
H	1.091903	0.0	0.0
H	0.196138	0.953114	-1.923913
H	-0.382253	-0.941664	0.396633
N	0.162343	-1.113616	-2.174376
O	0.877634	-0.945766	-3.157654
O	-0.246681	-2.19378	-1.762252
C	-0.53309	1.126194	0.734304
N	-0.944041	2.053431	1.328421
F	2.51963	0.0	0.0
