12

C	-0.331864	0.049054	-1.460929
C	0.0	0.0	0.0
F	0.026646	1.255972	-1.979357
H	1.093012	0.0	0.0
H	0.144812	-0.750094	-2.02612
H	-0.385861	0.902275	0.480775
N	-1.819011	-0.090774	-1.720365
O	-2.528284	0.883093	-1.48755
O	-2.211274	-1.192633	-2.102927
C	-0.525868	-1.187334	0.637137
N	-0.932349	-2.152419	1.171489
F	2.522814	0.0	0.0
