12

C	-0.32764	0.121732	-1.448039
C	0.0	0.0	0.0
F	-1.678571	0.173089	-1.742301
H	1.091752	0.0	0.0
H	0.165186	0.971137	-1.917489
H	-0.376871	-0.944848	0.39488
N	0.181026	-1.093025	-2.184865
O	-0.195723	-2.189761	-1.777033
O	0.878679	-0.897069	-3.17684
C	-0.536978	1.122323	0.738239
N	-0.954145	2.042676	1.3391
F	2.519535	0.0	0.0
