12

C	-0.329655	0.052793	-1.461526
C	0.0	0.0	0.0
F	0.018268	1.266753	-1.973633
H	1.09297	0.0	0.0
H	0.156952	-0.739224	-2.029663
H	-0.387718	0.900306	0.483078
N	-1.814686	-0.101566	-1.723561
O	-2.194396	-1.203943	-2.117902
O	-2.53506	0.861999	-1.48113
C	-0.52518	-1.190733	0.63194
N	-0.932431	-2.160131	1.158144
F	2.5236	0.0	0.0
