12

C	-0.403084	0.094241	-1.436644
C	0.0	0.0	0.0
F	-1.726495	0.427671	-1.636624
H	1.091665	0.0	0.0
H	0.226452	0.814863	-1.956912
H	-0.282887	0.951053	0.464509
N	-0.190487	-1.213837	-2.158876
O	0.847748	-1.327154	-2.803532
O	-1.069762	-2.062749	-2.042793
C	-0.615582	-1.084297	0.735096
N	-1.084079	-1.948234	1.379646
F	2.522349	0.0	0.0
