12

C	-0.323452	0.086624	-1.451866
C	0.0	0.0	0.0
F	-1.674546	0.12439	-1.751482
H	1.09176	0.0	0.0
H	0.166461	0.925747	-1.941858
H	-0.377981	-0.935146	0.416256
N	0.190375	-1.145028	-2.156549
O	0.876724	-0.972157	-3.160699
O	-0.170788	-2.231009	-1.711688
C	-0.536745	1.139845	0.710789
N	-0.954899	2.072259	1.292124
F	2.519082	0.0	0.0
