12

C	-0.393332	0.088332	-1.440028
C	0.0	0.0	0.0
F	-1.71112	0.434453	-1.65032
H	1.091757	0.0	0.0
H	0.247854	0.798421	-1.959445
H	-0.284513	0.953402	0.458917
N	-0.187108	-1.227003	-2.150215
O	-1.085737	-2.058514	-2.056926
O	0.86773	-1.361411	-2.762901
C	-0.62078	-1.079933	0.736355
N	-1.093547	-1.933999	1.390618
F	2.522417	0.0	0.0
