12

C	-0.308791	0.024482	-1.456708
C	0.0	0.0	0.0
F	-1.656143	-0.017813	-1.774151
H	1.091724	0.0	0.0
H	0.143553	0.871291	-1.96878
H	-0.370735	-0.923291	0.448156
N	0.279693	-1.19999	-2.113762
O	0.955955	-1.022665	-3.123915
O	-0.013459	-2.287942	-1.627304
C	-0.551117	1.161625	0.661432
N	-0.982371	2.112901	1.201104
F	2.516536	0.0	0.0
