12

C	-0.488989	-0.044756	-1.424113
C	0.0	0.0	0.0
F	0.002304	-1.153463	-2.041922
H	1.092859	0.0	0.0
H	-1.573885	-0.03433	-1.553847
H	-0.300385	-0.948558	0.459748
N	-0.013293	1.16517	-2.196725
O	-0.726246	2.162936	-2.072909
O	1.004555	1.073061	-2.866173
C	-0.576856	1.088077	0.758743
N	-1.011793	1.955053	1.420929
F	2.518911	0.0	0.0
