16

C	0.0	0.0	0.0
C	-0.532376	0.031667	-1.435156
Cl	1.79605	0.0	0.0
H	-1.622875	-0.035562	-1.347898
H	-0.27101	0.968743	0.438732
N	-0.506131	-1.143339	0.698869
H	-0.33243	-1.020748	1.688123
H	-1.521054	-1.125256	0.560837
N	-0.110449	-1.208717	-2.165187
O	0.922784	-1.162459	-2.837957
O	-0.82005	-2.203933	-2.046673
C	-0.122443	1.262545	-2.214196
H	0.958671	1.32701	-2.323984
H	-0.57638	1.243848	-3.206639
H	-0.492407	2.147894	-1.689742
Cl	-3.602259	0.0	0.0
