16

C	0.0	0.0	0.0
C	-0.50927	-0.085845	-1.435855
Cl	1.844109	0.0	0.0
H	-1.569118	-0.367214	-1.332233
H	-0.266667	0.979566	0.393247
N	-0.510358	-1.005694	0.821874
H	-0.261318	-0.906302	1.792909
H	-0.349996	-1.934589	0.466513
N	0.186042	-1.212405	-2.140842
O	0.833821	-0.970271	-3.157573
O	0.07155	-2.335696	-1.646969
C	-0.356656	1.212102	-2.192
H	-1.004294	1.948003	-1.712103
H	0.677605	1.559899	-2.18527
H	-0.67772	1.096843	-3.226639
Cl	-3.69336	0.0	0.0
