16

C	0.0	0.0	0.0
C	-0.36478	-0.252346	-1.496028
Cl	1.840418	0.0	0.0
H	0.540873	-0.150247	-2.098462
H	-0.284187	1.01755	0.250656
N	-0.505039	-0.879389	0.99359
H	-0.38749	-1.844761	0.711134
H	-1.510448	-0.685808	1.045044
N	-1.189628	0.888411	-2.059349
O	-0.994667	2.006937	-1.596085
O	-1.873031	0.647321	-3.046932
C	-0.997345	-1.595972	-1.779652
H	-1.175329	-1.706733	-2.848206
H	-1.946329	-1.677596	-1.250289
H	-0.305999	-2.385628	-1.464341
Cl	-3.491316	0.0	0.0
