16

C	0.0	0.0	0.0
C	-0.550891	-0.160776	-1.411903
Cl	1.845282	0.0	0.0
H	-1.611448	-0.418571	-1.255596
H	-0.254617	1.004377	0.335198
N	-0.513162	-0.942675	0.894007
H	-0.385762	-1.894274	0.589025
H	-0.233493	-0.793606	1.849895
N	0.096816	-1.336497	-2.079296
O	0.01322	-2.421906	-1.501899
O	0.671771	-1.170432	-3.153507
C	-0.420087	1.091631	-2.245103
H	0.615494	1.430275	-2.30533
H	-1.040823	1.8587	-1.778155
H	-0.792462	0.92242	-3.254902
Cl	-3.744538	0.0	0.0
