16

C	0.0	0.0	0.0
C	-0.479412	-0.085376	-1.467133
Cl	1.797917	0.0	0.0
H	-1.545173	-0.332402	-1.394826
H	-0.313301	0.982245	0.356057
N	-0.487738	-0.981917	0.914211
H	-1.494628	-0.812619	0.982644
H	-0.365283	-1.89858	0.498757
N	0.1752	-1.242229	-2.150715
O	0.886991	-1.033159	-3.132846
O	-0.029598	-2.360039	-1.672942
C	-0.277914	1.196152	-2.240831
H	-0.881901	1.969717	-1.761465
H	0.769498	1.499121	-2.254048
H	-0.620345	1.085836	-3.27022
Cl	-3.519386	0.0	0.0
