15
Coordinates from ORCA-job run
  C   -0.99201521027010      0.13715439684068     -0.10101993338104
  C   0.39180180659343     -0.07215234124224      0.53445576260358
  Cl  -1.19514269021998      1.84455244859846     -0.60274051636054
  H   0.41933299418157     -1.12385159395543      0.84994018254776
  H   -1.74759533370363     -0.02788652499814      0.67047673938920
  C   -1.24889673208218     -0.77913989946477     -1.28326674727981
  H   -2.27803699855183     -0.66645040297721     -1.62642738784709
  H   -1.09521871649358     -1.82183188064993     -0.98999113600050
  H   -0.58930266104660     -0.54440552048683     -2.11900422328530
  C   0.51513647342500      0.73272413571548      1.75326114788311
  N   0.62700161908897      1.37326282093716      2.73061622194466
  C   1.57458827553383      0.19036691096860     -0.40128698777649
  H   1.54193845790791     -0.48043586216844     -1.26068641716946
  H   2.51263431850607      0.01709666293707      0.12836201282836
  H   1.56477439713113      1.22099664994555     -0.75568871809644
