15
Coordinates from ORCA-job run
  C   -0.83689005593403     -0.63038734054698     -0.07426934481333
  C   0.36941258102721     -0.03031267630031      0.66034151430550
  Cl  -2.25468436908576     -0.59120175115306      1.02182886950839
  H   0.43258351008512     -0.52053348722411      1.63773349632046
  H   -0.62516095841515     -1.68968527925423     -0.24117010672484
  C   -1.18378811755617      0.05853815032610     -1.37910194058246
  H   -0.34718091648130      0.00005681551046     -2.07902154529369
  H   -2.04625754317845     -0.42421487123126     -1.84015551158916
  H   -1.42923343185132      1.10784892379820     -1.20630624281438
  C   0.16772836371571      1.40062333907773      0.90197138006975
  N   0.03244522546495      2.55592714861433      1.06080459967396
  C   1.68205762680293     -0.26358098859044     -0.09747162508465
  H   1.70015181379766      0.27722149866207     -1.04436209264521
  H   2.52675162843771      0.07965943595850      0.50207137294199
  H   1.81406464317089     -1.32995891764701     -0.29689282327235
