15
Coordinates from ORCA-job run
  C   -0.98303291970492      0.20270215473395     -0.17734357491914
  C   0.34099843023966     -0.04580125978581      0.56280285750827
  Cl  -1.04074664345012      1.87928019192635     -0.80479116551962
  H   0.27795139765508     -1.07141755778358      0.95078784133845
  H   -1.79514514641944      0.13979975125900      0.55057566098485
  C   -1.22458390651927     -0.77784398128470     -1.31025414098443
  H   -0.49990145981510     -0.64370024545464     -2.11370579666420
  H   -2.22063807535804     -0.62727593589705     -1.72838052348709
  H   -1.15793953308809     -1.80447596113334     -0.93817268139080
  C   0.44142325145195      0.83624200147402      1.72914474122140
  N   0.53483751277404      1.53769943257712      2.66586922443880
  C   1.59494842154856      0.07323460122880     -0.30721609495155
  H   2.48460848463054     -0.11481362703428      0.29582773181084
  H   1.57315550022493     -0.65818764856481     -1.11605794183944
  H   1.67406468583020      1.07255808373898     -0.73508613754634
