15
Coordinates from ORCA-job run
  C   -0.84171472789102     -0.61899021433384     -0.05420083552556
  C   0.37572987892334     -0.01588648345867      0.65913359275226
  Cl  -2.25252396435636     -0.53890276771301      1.04859829277243
  H   0.44142592683149     -0.48540841461960      1.64656087647548
  H   -0.64263454272779     -1.68419042529219     -0.19783700586753
  C   -1.18863246846065      0.04310214250018     -1.37298766688593
  H   -0.35823904903021     -0.04439363872802     -2.07748894132272
  H   -2.06112570643915     -0.43879175606403     -1.81579763690692
  H   -1.41828484933080      1.09971459106308     -1.22402529194381
  C   0.18816067889317      1.42126294570947      0.87285891297189
  N   0.04731683071133      2.57939203340439      1.00408756735324
  C   1.68015031553595     -0.27776391707895     -0.10306277591716
  H   1.69821834081137      0.24704127992376     -1.05871463668777
  H   2.53345380785133      0.06447662974676      0.48471676936184
  H   1.79769952867800     -1.34866200505933     -0.28584122062974
