16
Coordinates from ORCA-job run
  C   -0.94580035607543     -0.12532081802473     -0.33973489794094
  C   0.58717557153627     -0.17459804924671     -0.36545464410714
  F   -1.37456856057389     -1.23233276574846     -1.12296764842432
  H   0.86815891857066     -0.16912713997041     -1.42833032249386
  C   -1.45972688193153      1.06855369742575     -1.03718383257473
  N   -1.84093117392445      2.02365487911917     -1.60282307264552
  N   -1.42778718733475     -0.17697288698783      0.97790012342318
  H   -2.43440043182003     -0.26228789174486      1.01672022408044
  H   -0.96480994800290     -0.93720954421797      1.46320061529636
  N   0.96234302137612     -1.41033377214347      0.31823666603075
  H   1.94848122763717     -1.39348123455963      0.54505821607130
  H   0.79065684742360     -2.20430753947592     -0.28638386829657
  C   1.20352381632026      1.02335067893164      0.33500435236430
  H   2.29297692146280      0.98424147773817      0.25050438177803
  H   0.86802423383074      1.95955264338356     -0.11448985081413
  H   0.92768398150535      1.02361826552170      1.38974355825286
