16
Coordinates from ORCA-job run
  C   -0.90778017018743     -0.20260567025775      0.01425699526835
  C   0.55309037983696      0.12602329141728     -0.29757426509107
  F   -0.93522098024048     -1.36615096917345      0.77605546707093
  H   0.54462948970803      1.00605901698273     -0.95323549802056
  C   -1.64326509512685     -0.51430340727660     -1.23863837512830
  N   -2.30223916471131     -0.65799739246137     -2.20004652110042
  N   -1.52778768749019      0.82316979699005      0.79776394153470
  H   -1.43279742949126      1.72266937479982      0.34203132290757
  H   -2.51440441266579      0.62547607866560      0.91870758587672
  N   1.07167502171669     -0.98695692746272     -1.08062305304119
  H   1.19885453051189     -1.79183999272915     -0.47809743871905
  H   1.97286610563652     -0.74705727711922     -1.47355393577208
  C   1.32934920984686      0.43970485979048      0.97947051378762
  H   0.92511941212156      1.30312096361652      1.50890842296028
  H   1.29279499791502     -0.41724560777504      1.65525704050201
  H   2.37411579261979      0.63793386199280      0.72731779696449
