17

C	0.0	0.0	0.0
C	-0.213262	0.217815	-1.521938
Cl	1.792522	0.0	0.0
H	0.429555	-0.503919	-2.018989
C	-0.469408	1.043698	0.904153
N	-0.686977	1.820007	1.759523
C	-0.485541	-1.376166	0.43068
H	-0.117676	-1.572057	1.439921
H	-0.095587	-2.134506	-0.25063
H	-1.578901	-1.364957	0.419154
N	0.275257	1.552388	-2.007549
O	0.765125	1.53853	-3.135146
O	0.134963	2.531811	-1.287868
N	-1.544435	-0.011308	-2.210089
O	-1.807212	-1.193404	-2.375209
O	-2.130331	0.958932	-2.657973
Cl	-3.504014	0.0	0.0
