17

C	0.0	0.0	0.0
C	-0.637038	0.049358	-1.387883
Cl	1.780449	0.0	0.0
H	-1.725878	0.209233	-1.234893
C	-0.382295	1.220073	0.729418
N	-0.589729	2.163358	1.39921
C	-0.498857	-1.212446	0.789846
H	-0.113522	-2.126911	0.343118
H	-0.132124	-1.131968	1.814221
H	-1.592001	-1.197395	0.786195
N	-0.486804	-1.19471	-2.201059
O	0.414385	-1.986151	-1.936127
O	-1.292155	-1.297928	-3.121971
N	-0.069566	1.159633	-2.220385
O	0.678443	0.86303	-3.147733
O	-0.393945	2.290785	-1.878284
Cl	-3.591348	0.0	0.0
