17

C	0.0	0.0	0.0
C	-0.6378	-0.068051	-1.385631
Cl	1.784797	0.0	0.0
H	-1.725675	0.104083	-1.241424
C	-0.38003	1.282108	0.609855
N	-0.612687	2.308728	1.131873
C	-0.503086	-1.134224	0.897204
H	-0.116299	-2.086053	0.54163
H	-0.144407	-0.954427	1.91194
H	-1.596025	-1.116608	0.883737
N	-0.486415	-1.373847	-2.096216
O	0.378268	-2.166284	-1.73465
O	-1.254915	-1.524102	-3.039752
N	-0.069508	0.968374	-2.309635
O	-0.441794	2.118747	-2.107297
O	0.730877	0.599727	-3.165368
Cl	-3.590457	0.0	0.0
