13

C	0.0	0.0	0.0
C	-0.297026	0.286411	-1.487245
Br	1.939385	0.0	0.0
H	0.03872	1.313765	-1.667127
H	0.355927	-0.361183	-2.07596
C	-0.481542	0.993703	0.942837
N	-0.584834	1.883261	1.706885
N	-0.407659	-1.399104	0.40739
O	-0.525486	-1.610016	1.604368
O	-0.465145	-2.226615	-0.490633
C	-1.654676	0.136799	-2.019686
N	-2.472876	0.080666	-2.866986
F	-2.265167	0.0	0.0
