13

C	0.0	0.0	0.0
C	-0.300853	0.022774	-1.514078
Br	1.940017	0.0	0.0
H	0.36954	-0.697255	-1.987802
H	0.008027	1.014008	-1.863066
C	-0.479601	1.143598	0.755336
N	-0.582406	2.156485	1.346345
N	-0.405396	-1.307199	0.646552
O	-0.523959	-1.305814	1.861683
O	-0.460647	-2.27855	-0.093604
C	-1.653215	-0.250334	-2.008934
N	-2.470032	-0.479527	-2.827937
F	-2.264454	0.0	0.0
