13

C	0.0	0.0	0.0
C	-0.482483	0.175011	-1.438741
Br	1.937784	0.0	0.0
H	-1.599969	0.139844	-1.248625
H	-0.133748	-0.672553	-2.029595
C	-0.455981	1.052477	0.898542
N	-0.599544	1.974059	1.614521
N	-0.438728	-1.358677	0.53525
O	-0.515706	-2.265984	-0.279717
O	-0.567299	-1.453509	1.744916
C	-0.037424	1.424561	-2.020711
N	0.289758	2.430189	-2.534166
F	-2.497271	0.0	0.0
