13

C	0.0	0.0	0.0
C	-0.311337	0.00762	-1.512491
Br	1.939045	0.0	0.0
H	0.374361	-0.692854	-1.991366
H	-0.038201	1.008175	-1.863493
C	-0.478894	1.154607	0.739515
N	-0.589507	2.173946	1.317182
N	-0.40879	-1.298174	0.660706
O	-0.462822	-2.277062	-0.070175
O	-0.530559	-1.283722	1.875279
C	-1.662151	-0.305293	-1.989379
N	-2.466488	-0.582595	-2.806635
F	-2.277906	0.0	0.0
