13

C	0.0	0.0	0.0
C	-0.317129	0.089622	-1.506227
Br	1.939782	0.0	0.0
H	0.360853	-0.593274	-2.024623
H	-0.038946	1.104495	-1.810335
C	-0.480966	1.103891	0.811659
N	-0.590099	2.075272	1.467125
N	-0.406991	-1.335678	0.588475
O	-0.532313	-1.388377	1.801787
O	-0.460402	-2.272736	-0.194851
C	-1.670624	-0.194323	-1.994215
N	-2.484482	-0.420669	-2.817842
F	-2.275022	0.0	0.0
