13

C	0.0	0.0	0.0
C	-0.424055	-0.061391	-1.449479
F	1.409782	0.0	0.0
H	-0.172319	0.91173	-1.911853
H	-0.308505	-0.921162	0.498046
H	-1.515622	-0.159297	-1.415031
N	-0.526196	1.107744	0.727835
H	-1.539835	0.887101	0.777048
H	-0.45878	1.932662	0.138333
N	0.185204	-1.208824	-2.127337
H	1.176662	-1.03438	-2.2287
H	-0.21311	-1.298616	-3.053134
H	-3.1736	0.0	0.0
