13

C	0.0	0.0	0.0
C	-0.417223	0.024656	-1.457301
F	1.415209	0.0	0.0
H	-1.513272	-0.003108	-1.431874
H	-0.318309	-0.938728	0.459016
H	-0.036691	-0.878524	-1.964301
N	-0.503833	1.083803	0.774548
H	-1.51354	0.873863	0.839252
H	-0.435634	1.905271	0.179618
N	0.047872	1.27323	-2.075152
H	1.042915	1.20652	-2.250896
H	-0.420226	1.408731	-2.960559
H	-3.210175	0.0	0.0
