13

C	0.0	0.0	0.0
C	-0.484271	-0.072564	-1.43323
F	1.38045	0.0	0.0
H	-1.566407	-0.240005	-1.357067
H	-0.293491	-0.926982	0.513053
H	-0.003559	-0.93858	-1.904644
N	-0.527956	1.181138	0.624286
H	-0.311513	1.148869	1.61499
H	-1.554041	1.044067	0.539523
N	-0.125702	1.154512	-2.168443
H	-0.86699	1.33428	-2.83763
H	-0.178593	1.904955	-1.485791
H	-3.203222	0.0	0.0
