13

C	0.0	0.0	0.0
C	-0.564649	-0.129157	-1.418183
F	1.427364	0.0	0.0
H	-0.853908	-1.181867	-1.566322
H	-0.238403	-0.876813	0.608308
H	0.261441	0.091638	-2.108278
N	-0.457991	1.173537	0.631353
H	0.15431	1.470907	1.374312
H	-0.690723	1.892385	-0.036195
N	-1.655741	0.819332	-1.623079
H	-1.993328	0.712163	-2.573636
H	-2.456998	0.543815	-1.002881
H	-3.811622	0.0	0.0
