13

C	0.0	0.0	0.0
C	-0.466077	0.029741	-1.451629
F	1.411873	0.0	0.0
H	0.224276	-0.614801	-2.009151
H	-0.294707	-0.937716	0.479625
H	-0.301498	1.049075	-1.830539
N	-0.51728	1.081517	0.740062
H	-0.274251	1.051424	1.717669
H	-0.265074	1.968629	0.333566
N	-1.830521	-0.376592	-1.714438
H	-1.918463	-1.372424	-1.543537
H	-2.531156	0.030882	-1.065004
H	-4.130831	0.0	0.0
