13

C	0.0	0.0	0.0
C	-0.43918	-0.068023	-1.453013
F	1.390947	0.0	0.0
H	-1.529725	-0.155692	-1.44975
H	-0.285911	-0.928513	0.514971
H	-0.005872	-0.970418	-1.898726
N	-0.529688	1.181027	0.6136
H	-0.350146	1.132846	1.612331
H	-1.55565	1.041693	0.50339
N	-0.025072	1.093763	-2.246991
H	-0.493845	1.896576	-1.839639
H	0.962304	1.242293	-2.05834
H	-3.157748	0.0	0.0
