18

C	0.0	0.0	0.0
C	-0.527137	0.011632	-1.446804
Br	1.95152	0.0	0.0
H	-1.632794	-0.058108	-1.261625
N	-0.482383	1.229988	0.576552
H	-0.285427	1.153894	1.57128
H	-1.512962	1.130556	0.485547
N	-0.443306	-1.112432	0.804187
H	-0.175505	-1.9799	0.354128
H	-1.471875	-1.029388	0.76618
N	-0.187539	-1.202725	-2.248051
O	-0.440986	-1.148419	-3.454511
O	0.268805	-2.209686	-1.701318
C	-0.186535	1.248664	-2.25818
H	0.858974	1.22701	-2.577115
H	-0.342993	2.121854	-1.628547
H	-0.82246	1.309241	-3.140202
H	-2.978072	0.0	0.0
