18

C	0.0	0.0	0.0
C	-0.41983	-0.015393	-1.484714
Br	1.978941	0.0	0.0
H	0.033998	-0.908212	-1.93504
N	-0.325696	1.182159	0.764934
H	-1.322359	1.144602	0.961832
H	-0.198667	1.941157	0.072562
N	-0.536056	-1.132151	0.693266
H	-0.263991	-1.991934	0.229393
H	-0.167037	-1.132553	1.639169
N	0.143824	1.114942	-2.245813
O	-0.284918	2.297156	-1.739726
O	-0.13911	0.8402	-3.554445
C	-1.920594	-0.048757	-1.854079
H	-1.758159	0.138614	-2.952769
H	-2.471517	-0.984659	-1.721918
H	-2.516133	0.807267	-1.539278
H	-2.26084	0.0	0.0
