14

C	0.0	0.0	0.0
C	-0.271565	-0.083395	-1.518608
Cl	1.745717	0.0	0.0
H	0.311337	0.736398	-1.940966
H	0.216123	-1.008145	-1.832081
N	-0.441057	1.33234	0.607612
O	-0.459903	1.438862	1.821189
O	-0.594603	2.225856	-0.212857
N	-0.445984	-1.245458	0.76618
O	-0.466269	-1.196149	1.983558
O	-0.599466	-2.235828	0.066405
C	-1.562459	-0.037548	-2.209744
N	-2.204431	-0.010116	-3.200099
Br	-3.240942	0.0	0.0
