14

C	-0.34279	-0.055255	-1.480962
C	0.0	0.0	0.0
Br	-2.317956	-0.223937	-1.799766
H	1.096705	0.0	0.0
C	0.084052	1.15375	-2.18371
N	0.414052	2.12706	-2.754318
C	0.267577	-1.23732	-2.088543
N	0.749087	-2.186816	-2.585494
N	-0.381687	-1.239233	0.648958
H	0.401725	-1.53376	1.218465
H	-1.209839	-1.14333	1.220744
C	-0.528936	1.202678	0.617081
N	-0.963663	2.147078	1.169395
F	2.472331	0.0	0.0
