14

C	-0.331843	-0.076293	-1.482608
C	0.0	0.0	0.0
Br	-2.304683	-0.260764	-1.813213
H	1.096646	0.0	0.0
C	0.0909	1.126197	-2.19832
N	0.414475	2.091395	-2.785758
C	0.289762	-1.262157	-2.070728
N	0.778226	-2.220149	-2.544214
N	-0.386677	-1.229197	0.663171
H	0.384475	-1.50855	1.257043
H	-1.229668	-1.129145	1.212763
C	-0.532705	1.211981	0.595899
N	-0.971089	2.162645	1.134563
F	2.473083	0.0	0.0
