14

C	-0.418835	-0.054117	-1.483187
C	0.0	0.0	0.0
Br	0.082409	1.611652	-2.396092
H	1.09452	0.0	0.0
C	0.273658	-1.160098	-2.145731
N	0.784706	-2.06947	-2.686535
C	-1.864939	-0.225914	-1.634169
N	-3.031035	-0.36339	-1.697256
N	-0.387649	-1.268827	0.597996
H	0.411206	-1.616854	1.11407
H	-1.191695	-1.194601	1.206624
C	-0.565627	1.1609	0.664483
N	-1.035591	2.057866	1.265035
F	2.496161	0.0	0.0
