14

C	-0.340493	-0.030805	-1.482226
C	0.0	0.0	0.0
Br	-2.312556	-0.210384	-1.80742
H	1.097963	0.0	0.0
C	0.07622	1.195166	-2.160638
N	0.392801	2.181115	-2.716582
C	0.282586	-1.194881	-2.112353
N	0.739036	-2.133254	-2.651922
N	-0.380446	-1.252302	0.624725
H	0.400195	-1.553337	1.195289
H	-1.213264	-1.169291	1.192656
C	-0.533729	1.18948	0.637878
N	-0.986589	2.119785	1.199453
F	2.474258	0.0	0.0
