16

C	-0.492874	0.035848	-1.396884
C	0.0	0.0	0.0
Br	0.340373	1.420837	-2.461723
H	1.103627	0.0	0.0
H	-0.327089	-0.947551	0.436724
N	-0.282239	-1.285526	-2.133884
O	-0.776583	-1.357945	-3.25546
O	0.363754	-2.15527	-1.564726
N	-2.015967	0.212402	-1.419525
O	-2.492893	1.326382	-1.593872
O	-2.642115	-0.801406	-1.109141
C	-0.469666	1.183907	0.834169
H	-0.208907	2.129458	0.354756
H	-1.547655	1.177418	1.027466
H	0.057075	1.148641	1.791077
H	2.719047	0.0	0.0
