16

C	-0.544913	-0.11292	-1.348159
C	0.0	0.0	0.0
Br	-2.540467	0.378436	-1.511296
H	1.095001	0.0	0.0
H	-0.257582	0.999507	0.359097
N	0.140157	0.856039	-2.29439
O	0.497078	0.419047	-3.38606
O	0.313117	1.989987	-1.871528
N	-0.356143	-1.492509	-1.959589
O	0.731565	-1.996693	-1.696612
O	-1.230571	-1.981603	-2.662516
C	-0.487517	-1.070548	0.960489
H	-0.178948	-2.064412	0.63076
H	-1.575069	-1.049278	1.08164
H	-0.016172	-0.899894	1.931971
H	2.626145	0.0	0.0
