17

C	-0.436455	-0.036904	-1.470784
C	0.0	0.0	0.0
Br	0.391493	-1.655107	-2.266813
H	1.093613	0.0	0.0
C	-1.872286	-0.226105	-1.672466
N	-3.020607	-0.39722	-1.863902
C	0.107504	1.179058	-2.209922
H	-0.400869	2.078742	-1.853277
H	-0.056296	1.085738	-3.284847
H	1.177741	1.248525	-1.990367
N	-0.467629	-1.035165	0.858071
H	-1.323668	-1.475249	0.541751
H	0.275791	-1.714492	0.963111
N	-0.498938	1.313428	0.55815
O	-1.720355	1.490464	0.54224
O	0.3151	2.110443	1.008351
H	2.754056	0.0	0.0
