17

C	-0.524906	-0.014727	-1.448694
C	0.0	0.0	0.0
Br	0.072943	1.555472	-2.477962
H	1.090333	0.0	0.0
C	0.047252	-1.183889	-2.121444
N	0.39678	-2.12343	-2.73697
C	-2.045481	-0.08979	-1.546322
H	-2.353403	-0.151522	-2.591952
H	-2.497378	0.792492	-1.090606
H	-2.382057	-0.985979	-1.019803
N	-0.429472	-1.201803	0.649205
H	0.334431	-1.512463	1.238169
H	-1.255586	-1.032156	1.205699
N	-0.498828	1.225421	0.698759
O	-1.519084	1.126586	1.400257
O	0.13584	2.266012	0.548164
H	2.648475	0.0	0.0
