17

C	-0.370583	-0.029941	-1.474271
C	0.0	0.0	0.0
Br	-2.376518	-0.252732	-1.698987
H	1.092993	0.0	0.0
C	-0.038866	1.17224	-2.233103
N	0.277138	2.050991	-2.948039
C	0.319324	-1.219015	-2.122305
H	1.388836	-1.114931	-1.890688
H	0.153072	-1.226361	-3.200531
H	-0.050808	-2.148866	-1.691963
N	-0.363809	-1.140963	0.752765
H	-1.215002	-1.596423	0.46089
H	0.422767	-1.7723	0.812098
N	-0.50481	1.252663	0.637631
O	-1.320442	1.179308	1.556315
O	-0.041812	2.305532	0.191093
H	2.589677	0.0	0.0
