17

C	-0.41218	-0.028325	-1.458524
C	0.0	0.0	0.0
Br	-2.421976	-0.106222	-1.599998
H	1.093777	0.0	0.0
C	-0.013154	1.13256	-2.252724
N	0.331818	1.95097	-3.023852
C	0.166408	-1.278757	-2.101676
H	1.24899	-1.235623	-1.929243
H	-0.053945	-1.304844	-3.170349
H	-0.23787	-2.154646	-1.599228
N	-0.401357	-1.176164	0.694081
H	-1.275848	-1.02406	1.176273
H	0.316525	-1.371669	1.381249
N	-0.427756	1.254684	0.665676
O	-1.033352	1.177216	1.744293
O	-0.085235	2.314946	0.137447
H	2.548489	0.0	0.0
