17

C	-0.539991	-0.007429	-1.442571
C	0.0	0.0	0.0
Br	0.062402	1.532933	-2.516442
H	1.090348	0.0	0.0
C	0.004017	-1.191108	-2.114071
N	0.342237	-2.139113	-2.721307
C	-2.064332	-0.057014	-1.499913
H	-2.486829	0.839961	-1.043564
H	-2.403714	-0.123778	-2.535198
H	-2.40206	-0.940561	-0.953612
N	-0.412932	-1.219963	0.632233
H	0.378971	-1.551201	1.176595
H	-1.198717	-1.048749	1.246686
N	-0.4897	1.203808	0.722533
O	-1.384243	1.062646	1.575836
O	0.042134	2.282101	0.455667
H	2.610485	0.0	0.0
