16

C	0.0	0.0	0.0
C	-0.369709	0.013195	-1.479204
Cl	1.857683	0.0	0.0
H	-0.076897	-0.921324	-1.956233
H	-1.468956	0.142608	-1.541395
N	-0.534624	1.118735	0.726856
H	-0.240879	1.097924	1.693866
H	-0.30001	1.992461	0.276887
C	-0.409558	-1.32965	0.653371
H	-0.08501	-1.330522	1.698542
H	-1.491924	-1.438893	0.62635
H	0.056415	-2.169037	0.129029
N	0.333732	1.093064	-2.182203
O	0.691417	0.833779	-3.38115
O	-0.01353	2.277499	-1.851176
H	-1.618559	0.0	0.0
