16

C	0.0	0.0	0.0
C	-0.464217	0.000745	-1.460393
Cl	1.804455	0.0	0.0
H	-1.568486	0.088262	-1.385234
H	-0.146668	-0.899086	-1.983943
N	-0.500583	1.070827	0.806618
H	-1.527772	0.921997	0.774159
H	-0.317842	1.946944	0.328671
C	-0.437164	-1.317427	0.617123
H	-0.107237	-1.327182	1.657377
H	-1.532858	-1.342285	0.570166
H	0.003237	-2.165338	0.08701
N	0.075111	1.12642	-2.250073
O	0.719439	0.859841	-3.268761
O	-0.147314	2.275569	-1.860158
H	-3.043084	0.0	0.0
