16

C	0.0	0.0	0.0
C	-0.497116	-0.035665	-1.44931
Cl	1.805205	0.0	0.0
H	-1.602425	0.05494	-1.342614
H	-0.203166	-0.950536	-1.959154
N	-0.505209	1.081444	0.79385
H	-0.344678	1.949765	0.294985
H	-1.530116	0.922032	0.776547
C	-0.450413	-1.305759	0.635893
H	-1.547668	-1.315728	0.586205
H	-0.027592	-2.167062	0.113953
H	-0.124995	-1.313415	1.676897
N	0.013797	1.064683	-2.285994
O	0.590196	0.769133	-3.339383
O	-0.172869	2.225463	-1.9069
H	-3.096186	0.0	0.0
