16

C	0.0	0.0	0.0
C	-0.45261	0.024796	-1.462203
Cl	1.857215	0.0	0.0
H	-0.11223	-0.902848	-1.934697
H	-1.568525	0.018403	-1.406111
N	-0.525691	1.090685	0.725213
H	-0.238512	1.115512	1.749938
H	-0.329763	2.008131	0.2171
C	-0.386228	-1.335801	0.682032
H	0.049516	-2.177837	0.111536
H	-0.086345	-1.340933	1.75103
H	-1.47934	-1.469673	0.640946
N	-0.038538	1.221107	-2.452772
O	0.977705	0.767351	-3.191112
O	0.257445	2.229697	-1.613477
H	-2.093717	0.0	0.0
