17

C	-0.458391	0.018252	-1.466389
C	0.0	0.0	0.0
Br	0.315396	1.533931	-2.407185
H	1.098263	0.0	0.0
N	0.031037	-1.265412	-2.145254
O	1.203093	-1.328423	-2.471362
O	-0.800654	-2.170517	-2.22574
C	-1.907062	0.094063	-1.61929
N	-3.078013	0.155488	-1.705034
C	-0.518167	-1.231606	0.718488
H	-1.614413	-1.276701	0.757157
H	-0.126236	-1.201359	1.739458
H	-0.142077	-2.149852	0.266137
N	-0.522431	1.232351	0.606639
H	0.252795	1.885373	0.632225
H	-0.766372	1.038574	1.571347
F	2.605828	0.0	0.0
