17

C	-0.53478	0.020208	-1.436944
C	0.0	0.0	0.0
Br	0.303974	1.425975	-2.477538
H	1.098283	0.0	0.0
N	-0.232695	-1.324181	-2.101278
O	-1.152712	-2.142933	-2.089519
O	0.899497	-1.517726	-2.510455
C	-1.97933	0.231522	-1.481344
N	-3.141764	0.407544	-1.441408
C	-0.478014	-1.230113	0.75806
H	-0.114126	-2.156948	0.310952
H	-1.57133	-1.286647	0.846581
H	-0.042779	-1.167789	1.758463
N	-0.422988	1.255023	0.614457
H	0.395416	1.654606	1.05929
H	-1.143395	1.105422	1.310858
F	2.58756	0.0	0.0
