17

C	-0.454945	0.115656	-1.454038
C	0.0	0.0	0.0
Br	0.288082	-1.298679	-2.563201
H	1.094393	0.0	0.0
N	-1.983945	0.025867	-1.521872
O	-2.491881	-1.088488	-1.455084
O	-2.595738	1.092089	-1.508844
C	-0.059019	1.391037	-2.040736
N	0.268674	2.387202	-2.570552
C	-0.481849	-1.253161	0.706908
H	0.085598	-1.325136	1.638366
H	-1.553745	-1.224233	0.944286
H	-0.287023	-2.156336	0.127299
N	-0.398256	1.236296	0.66522
H	-1.142301	1.090135	1.336001
H	0.419617	1.597594	1.140722
F	2.574137	0.0	0.0
