14

C	0.0	0.0	0.0
C	-0.603274	0.003323	-1.388742
Cl	1.78195	0.0	0.0
H	-1.793621	0.020618	-0.938516
H	-0.331362	0.913058	0.501696
N	-0.425897	-1.231231	0.627197
H	0.244334	-1.535621	1.328851
H	-1.351804	-1.0698	1.021775
C	-0.202233	-1.160527	-2.146159
N	0.120672	-2.116086	-2.753104
N	-0.236589	1.238962	-2.088711
O	-0.441499	2.293082	-1.486724
O	0.238689	1.178905	-3.227048
H	-2.764178	0.0	0.0
