15

C	0.0	0.0	0.0
C	-0.285937	-0.318187	-1.494836
Br	2.17115	0.0	0.0
H	0.615481	-0.201336	-2.090867
H	-0.562049	-1.387833	-1.508118
N	-0.332597	1.276855	0.310869
H	-0.354991	1.553265	1.272708
H	-0.468462	1.940966	-0.439523
N	-0.510734	-0.887288	0.975903
H	-0.294758	-1.842978	0.721298
H	-1.536438	-0.703303	0.826733
N	-1.330367	0.573741	-1.99291
H	-2.133323	0.429978	-1.331557
H	-1.595083	0.249992	-2.916368
F	-2.917777	0.0	0.0
