15

C	0.0	0.0	0.0
C	-0.438626	0.263994	-1.436385
Br	2.011871	0.0	0.0
H	0.06272	1.163686	-1.809625
H	-1.513316	0.436663	-1.295679
N	-0.329574	1.172013	0.7866
H	-0.192569	0.966431	1.7696
H	0.276152	1.945334	0.537469
N	-0.636793	-1.172336	0.452746
H	-0.430041	-1.31706	1.437641
H	-1.687344	-0.834975	0.336731
N	-0.131029	-0.882997	-2.306291
H	-0.893788	-0.95674	-2.97052
H	-0.224088	-1.695441	-1.701159
F	-2.895883	0.0	0.0
