15

C	0.0	0.0	0.0
C	-0.414729	0.214181	-1.458371
Br	1.957376	0.0	0.0
H	0.022016	1.15842	-1.791238
H	-1.505037	0.294573	-1.394039
N	-0.487197	1.132151	0.754122
H	-1.51357	0.991496	0.651793
H	-0.247478	0.985535	1.731377
N	-0.490572	-1.302663	0.407709
H	-1.517511	-1.12163	0.367932
H	-0.229881	-1.458469	1.376886
N	0.043436	-0.889429	-2.31848
H	-0.065225	-1.727906	-1.753156
H	-0.622667	-0.976906	-3.077915
F	-2.859626	0.0	0.0
