15

C	0.0	0.0	0.0
C	-0.182543	0.125885	-1.542978
Br	2.03586	0.0	0.0
H	0.483154	0.933693	-1.85685
H	0.244601	-0.807586	-1.944817
N	-0.623786	1.074749	0.672625
H	-0.482007	0.983301	1.670316
H	-1.64577	0.879623	0.471501
N	-0.407067	-1.287544	0.471057
H	-0.730981	-1.24262	1.423899
H	0.297188	-1.999271	0.344701
N	-1.53385	0.379164	-2.015702
H	-1.664606	-0.148998	-2.877096
H	-2.237219	0.088637	-1.295824
F	-3.059403	0.0	0.0
