15

C	0.0	0.0	0.0
C	-0.396013	0.13226	-1.4818
Br	1.96338	0.0	0.0
H	0.076703	-0.688815	-2.030609
H	-1.486423	0.015181	-1.504214
N	-0.489028	1.15429	0.7148
H	-1.517746	1.057974	0.597516
H	-0.27893	0.998251	1.697482
N	-0.463346	-1.234234	0.601198
H	-1.492273	-1.132762	0.511188
H	-0.167417	-2.018498	0.021702
N	0.057997	1.4165	-2.047043
H	-0.611073	1.680263	-2.761978
H	-0.048138	2.098328	-1.297166
F	-2.945022	0.0	0.0
