15

C	0.0	0.0	0.0
C	-0.221138	0.002103	-1.551276
Br	2.037578	0.0	0.0
H	0.597372	-0.542242	-2.029888
H	-0.122482	1.060326	-1.857384
N	-0.431581	1.218787	0.574382
H	-0.585918	1.100092	1.565522
H	0.200985	1.980919	0.386435
N	-0.623655	-1.057321	0.702405
H	-0.533381	-1.899058	0.143296
H	-1.641637	-0.77689	0.624615
N	-1.475516	-0.640767	-1.913711
H	-2.231251	-0.308391	-1.262194
H	-1.7068	-0.349657	-2.857277
F	-3.074046	0.0	0.0
