15

C	0.0	0.0	0.0
C	-0.436801	-0.06343	-1.452285
Br	2.066141	0.0	0.0
H	-0.140013	0.875394	-1.934036
H	-1.53194	-0.103795	-1.325363
N	-0.577542	1.13506	0.603683
H	-0.406827	1.087388	1.604904
H	-1.617503	0.859206	0.450298
N	-0.306922	-1.242041	0.627894
H	-0.000765	-1.996252	0.024037
H	0.129977	-1.312709	1.536994
N	0.051165	-1.271441	-2.119403
H	0.961877	-1.098541	-2.526266
H	-0.590211	-1.518477	-2.861013
F	-2.878	0.0	0.0
