16

C	0.0	0.0	0.0
C	-0.412986	-0.037214	-1.52788
Br	1.955687	0.0	0.0
H	0.275845	-0.767085	-1.971608
C	-0.397052	1.242432	0.657375
N	-0.637302	2.247255	1.219536
C	-0.552737	-1.207181	0.733419
H	-0.164058	-1.246997	1.753286
H	-0.271074	-2.122799	0.205339
H	-1.645944	-1.09304	0.746029
C	-0.07628	1.261673	-2.144617
N	0.197264	2.28143	-2.660101
N	-1.761534	-0.412737	-1.83851
H	-1.823473	-1.425109	-1.813812
H	-2.483959	-0.087182	-1.106568
H	-3.450617	0.0	0.0
