16

C	0.0	0.0	0.0
C	-0.404702	0.058519	-1.509756
Br	1.960025	0.0	0.0
H	0.362302	-0.523287	-2.039006
C	-0.398455	1.195443	0.740751
N	-0.628944	2.16787	1.361224
C	-0.522659	-1.258412	0.672776
H	-1.615079	-1.170271	0.715012
H	-0.106357	-1.339221	1.679746
H	-0.247874	-2.134471	0.083692
C	-0.249848	1.444015	-2.019611
N	-0.165582	2.496444	-2.538349
N	-1.693836	-0.547544	-1.728065
H	-2.026652	-0.301626	-2.65566
H	-2.447855	-0.233666	-1.009141
H	-3.426119	0.0	0.0
