10
Coordinates from ORCA-job run
  C   -0.08837171434638      0.05489430214384     -0.08932254402092
  C   -0.67420327939495      1.23583528667136      0.15560166346839
  H   -0.17330232230099      1.97398221188705      0.76208636376273
  H   -1.64102038939544      1.46653689981439     -0.27386027309347
  N   1.23168681453515     -0.22249869845635      0.53690854556010
  O   1.85041397800366      0.71047194736755      1.03244583254768
  O   1.60454167021694     -1.39715514308594      0.52622430614016
  N   -0.49331394354155     -0.97451873033531     -0.90927508231081
  H   -1.48033578253092     -0.97224165481441     -1.11098782639279
  H   -0.13609503124550     -1.87530642119216     -0.62982098566107
