10
Coordinates from ORCA-job run
  C   -0.13508626640268      0.01058709055162      0.02138988385277
  C   -0.69696337720924      1.19475201742381      0.30344573758567
  H   -0.12990280233000      1.95750574605662      0.81360006876003
  H   -1.73146176489796      1.38468287435110      0.04612429871953
  N   1.29310129471974     -0.19727538825216      0.37911393636327
  O   1.84986671217094     -1.16761494540310     -0.13792284866697
  O   1.82694743606760      0.60173654404384      1.13769699124184
  N   -0.69838297278476     -1.12306867902013     -0.52042441703981
  H   -0.03407801338129     -1.71042343384805     -1.00099955728577
  H   -1.54304024595234     -0.95188182590355     -1.04202409353056
