10
Coordinates from ORCA-job run
  C   -0.12728330103586      0.00430022144915      0.05207279677604
  C   -0.71787423810811      1.17430676910486      0.33593592953288
  H   -0.12189826670643      2.02876541658769      0.61563967711612
  H   -1.79718019251258      1.25928691490305      0.31821062691694
  N   1.35812797469890     -0.06096069881877      0.07475190171330
  O   1.86957933548418     -1.04466951760389     -0.46350975865834
  O   1.97485451670855      0.85715178090148      0.59984180772727
  N   -0.69013914374526     -1.22256355017734     -0.21853721310470
  H   -0.10283761590613     -1.81947240477563     -0.78056788589465
  H   -1.64534906887724     -1.17514493157059     -0.53483788212486
