10
Coordinates from ORCA-job run
  C   -0.13124116692864      0.03378085821372      0.02332399366334
  C   -0.54846708884722      1.30191910352549     -0.10154497662406
  H   -1.57929220515980      1.51682338648119     -0.35382803572905
  H   0.13414233658145      2.11784560746011      0.07714820165853
  N   1.29757320259232     -0.21067317507058      0.35543989706949
  O   1.97289967562598      0.72910586532141      0.75497332100001
  O   1.70889713279398     -1.35971720251067      0.18388516898199
  N   -0.84786530882016     -1.13938563817544     -0.05375292116660
  H   -1.71639844064363     -1.05642658001007     -0.55728719440198
  H   -0.29024813719428     -1.93327222523517     -0.32935745445166
