10
Coordinates from ORCA-job run
  C   -0.12412942571489      0.02513645045952     -0.05340627088099
  C   -0.66062760156387      1.25299811912798     -0.00486108064501
  H   -1.73585067497461      1.38089310816503     -0.00503088456386
  H   -0.02378632997171      2.12357807377376      0.00680639051513
  N   1.35754822327156     -0.09991266203551     -0.03424975745975
  O   1.80762571364972     -1.22184876036974      0.20569731873005
  O   2.03049254594645      0.90270631958926     -0.23624731192568
  N   -0.74041633830345     -1.19959306802517     -0.18026572137191
  H   -0.20319967072267     -1.96137784585815      0.20475399046792
  H   -1.70865644161652     -1.20157973482697      0.09780332713410
