10
Coordinates from ORCA-job run
  C   -0.10780966771106      0.01539952282377     -0.08363134304408
  C   -0.62872707732186      1.22786004625864     -0.32144308955650
  H   -1.67303149608315      1.33235204637648     -0.58781315029288
  H   -0.00320270443936      2.10551968410870     -0.27618667458908
  N   1.32741831136054     -0.07512147770521      0.29487103331844
  O   2.03891628159590      0.90660050948449      0.12500604758349
  O   1.69809174127855     -1.14695903717860      0.77726948716998
  N   -0.68983931204041     -1.22790386705234     -0.18872520120577
  H   -0.26463861072772     -1.92248236079614      0.40614857949512
  H   -1.69617746591143     -1.21426506631979     -0.14549568887872
