10
Coordinates from ORCA-job run
  C   -0.10690576510586      0.04163147521275     -0.07533564439361
  C   -0.56890379991419      1.29688842214629      0.01901556940459
  H   -1.60689609762905      1.51519906732501     -0.19868751721279
  H   0.09777438238540      2.10194982065132      0.28542536625137
  N   1.32180651348420     -0.21148642361069      0.24963501788314
  O   1.64061620441442     -1.38836576225224      0.42968738781645
  O   2.07960159705650      0.74627442560884      0.33519277112458
  N   -0.74755796762979     -1.10212159838988     -0.49614689147905
  H   -1.75215036716368     -1.05378422632035     -0.43893045817206
  H   -0.35638469989794     -1.94718520037104     -0.10885560122262
