10
Coordinates from ORCA-job run
  C   -0.10404451718572      0.05629112448679     -0.06980777190089
  C   -0.73831025370681      1.14426664566820      0.39080661066998
  H   -0.21617926482269      1.85386650057206      1.01321579189647
  H   -1.76967955274511      1.33176131166504      0.11956328220567
  N   1.30677132012870     -0.16720945009353      0.34346313693148
  O   1.76290288429497     -1.29420027724220      0.14151149036976
  O   1.91551874352073      0.75776922216202      0.86577815809291
  N   -0.53945729636337     -0.90895686150040     -0.94974288495610
  H   -1.54202146285038     -0.97540956690857     -1.02195024094888
  H   -0.07850060027033     -1.79817864880941     -0.83183757236040
