10
Coordinates from ORCA-job run
  C   -0.12316704935496      0.03736536142070     -0.04624670657107
  C   -0.73318350500653      1.14041420072679      0.41126446730249
  H   -0.14980728734220      1.97328017704596      0.77114007353841
  H   -1.81355406696336      1.21175383665729      0.39997746237285
  N   1.36173076337185     -0.02254653352104      0.00494755005161
  O   1.86911762103054     -1.13433885202271     -0.15447954911856
  O   1.98044124405887      1.01242004220295      0.21712096537453
  N   -0.66102787031254     -1.08247402368535     -0.63998713955908
  H   -1.63679807935961     -1.22615799186541     -0.43512404886278
  H   -0.09375177012205     -1.90871621695918     -0.52761307452841
