16

C	0.0	0.0	0.0
C	-0.389446	0.181256	-1.514902
Cl	1.791208	0.0	0.0
H	0.142934	1.091915	-1.819497
C	-0.585515	1.10897	0.850314
H	-0.289843	2.079963	0.443944
H	-1.676511	1.01041	0.839995
H	-0.228404	1.029191	1.878255
C	-0.418119	-1.317082	0.481793
N	-0.703844	-2.395483	0.851175
N	-1.773029	0.327332	-1.849115
H	-2.367531	-0.403076	-1.462239
H	-2.16006	1.181501	-1.468799
C	0.185523	-0.927528	-2.300145
N	0.624589	-1.804198	-2.945639
Cl	-4.262918	0.0	0.0
