16

C	0.0	0.0	0.0
C	-0.390148	0.332962	-1.489287
Cl	1.791401	0.0	0.0
H	0.22077	1.212831	-1.727349
C	-0.557114	1.044174	0.950357
H	-0.18764	0.867941	1.9619
H	-1.649776	0.975195	0.94782
H	-0.240958	2.03894	0.624179
C	-0.430337	-1.345969	0.372479
N	-0.714951	-2.452731	0.647371
N	-1.755001	0.640077	-1.785552
H	-2.017971	1.523837	-1.369442
H	-2.429943	-0.027537	-1.408034
C	0.084606	-0.753554	-2.366479
N	0.465544	-1.603086	-3.08146
Cl	-4.227458	0.0	0.0
