16

C	0.0	0.0	0.0
C	-0.400585	-0.343243	-1.4666
Cl	1.800038	0.0	0.0
H	0.333799	0.17824	-2.091333
C	-0.530198	1.361114	0.419032
H	-0.231737	2.111268	-0.314763
H	-0.127897	1.622997	1.399314
H	-1.621118	1.315579	0.462271
C	-0.415637	-1.035325	0.947497
N	-0.692225	-1.864284	1.732881
N	-1.70024	0.171587	-1.80441
H	-1.963875	-0.129046	-2.734581
H	-2.462283	-0.087123	-1.160071
C	-0.181253	-1.789237	-1.718655
N	-0.039781	-2.919686	-2.009299
Cl	-4.247535	0.0	0.0
