16

C	0.0	0.0	0.0
C	-0.385805	0.342611	-1.487799
Cl	1.79141	0.0	0.0
H	0.218129	1.228959	-1.719003
C	-0.562321	1.037227	0.955104
H	-0.204274	0.849633	1.968592
H	-0.240885	2.034355	0.641666
H	-1.655423	0.97001	0.941727
C	-0.431827	-1.348048	0.360258
N	-0.721984	-2.454848	0.629107
N	-1.751336	0.643809	-1.784441
H	-2.018066	1.533448	-1.383158
H	-2.426184	-0.020403	-1.400102
C	0.095527	-0.736495	-2.371246
N	0.482061	-1.583448	-3.086337
Cl	-4.227265	0.0	0.0
