16

C	0.0	0.0	0.0
C	-0.348543	-0.30705	-1.512202
Cl	1.789818	0.0	0.0
H	0.26646	0.413509	-2.066562
C	-0.587489	1.328168	0.428731
H	-0.270318	2.110902	-0.266278
H	-0.2538	1.58814	1.434494
H	-1.679393	1.233703	0.423663
C	-0.427892	-1.086198	0.879201
N	-0.728265	-1.969409	1.593992
N	-1.700958	-0.179012	-1.962083
H	-1.997552	0.787901	-1.922018
H	-2.37655	-0.67284	-1.378242
C	0.165436	-1.645676	-1.858453
N	0.564808	-2.709999	-2.151687
Cl	-4.138612	0.0	0.0
