14

C	0.0	0.0	0.0
C	-0.538178	0.117752	-1.43211
F	1.382991	0.0	0.0
H	-1.645513	0.135221	-1.31601
H	-0.339322	0.887104	0.541553
C	-0.465311	-1.265785	0.679072
H	-1.55524	-1.298344	0.687405
H	-0.092611	-1.273788	1.705842
H	-0.061869	-2.136313	0.155844
C	-0.148546	-1.029941	-2.253577
N	0.145	-1.956873	-2.911684
C	-0.089365	1.35896	-2.065888
N	0.251395	2.363395	-2.56921
Br	-3.741041	0.0	0.0
