14

C	0.0	0.0	0.0
C	-0.426733	0.211029	-1.488038
F	1.385865	0.0	0.0
H	0.528928	0.284564	-2.025748
H	-0.342871	0.849262	0.591416
C	-0.434592	-1.313847	0.601997
H	-1.521833	-1.379049	0.607466
H	-0.05383	-1.36861	1.624666
H	-0.007885	-2.138615	0.025024
C	-1.100983	1.490622	-1.728503
N	-1.44879	2.581477	-1.989212
C	-1.117818	-0.926933	-2.10385
N	-1.474356	-1.881998	-2.686017
Br	-3.572321	0.0	0.0
