14

C	0.0	0.0	0.0
C	-0.402795	0.347063	-1.468427
F	1.385871	0.0	0.0
H	0.53966	0.206107	-2.024742
H	-0.349949	0.779417	0.673957
C	-0.438566	-1.370775	0.45153
H	-0.0329	-1.549449	1.450353
H	-0.039538	-2.128801	-0.228556
H	-1.524363	-1.426589	0.476641
C	-0.756358	1.756485	-1.632159
N	-0.906089	2.910358	-1.799537
C	-1.333384	-0.574506	-2.141684
N	-1.769121	-1.425397	-2.830655
Br	-3.597074	0.0	0.0
