14

C	0.0	0.0	0.0
C	-0.5347	0.092925	-1.435692
F	1.38283	0.0	0.0
H	-1.642599	0.112469	-1.324396
H	-0.34125	0.8961	0.525424
C	-0.466902	-1.254284	0.698303
H	-0.05642	-2.13316	0.194577
H	-0.103108	-1.243192	1.728177
H	-1.557073	-1.289892	0.699
C	-0.140724	-1.068018	-2.236463
N	0.15674	-2.00439	-2.879299
C	-0.083268	1.323304	-2.089295
N	0.25909	2.319566	-2.607595
Br	-3.740486	0.0	0.0
