12

C	0.0	0.0	0.0
C	-0.467666	0.319638	-1.402026
F	1.386506	0.0	0.0
H	-0.000244	1.246603	-1.738334
H	-1.554547	0.412461	-1.408659
H	-0.156041	-0.504677	-2.046339
C	-0.323852	1.123892	0.935368
N	-0.495055	2.027078	1.66572
N	-0.498384	-1.2659	0.422596
H	-0.335613	-1.383203	1.416487
H	-1.514402	-1.234834	0.286093
Cl	-3.624191	0.0	0.0
