12

C	0.0	0.0	0.0
C	-0.442161	0.313271	-1.412571
F	1.386419	0.0	0.0
H	-0.043279	-0.480501	-2.048004
H	-1.529727	0.338812	-1.470418
H	-0.021481	1.272534	-1.720465
C	-0.329506	1.117118	0.941685
N	-0.491856	2.010207	1.686948
N	-0.4852	-1.275245	0.411515
H	-1.505889	-1.237484	0.33008
H	-0.258723	-1.428976	1.388539
Cl	-3.626767	0.0	0.0
