13
Coordinates from ORCA-job run
  C   0.67947117072954      0.55907996161717     -0.03925589404009
  C   -0.36534384721070     -0.54867211487854     -0.05538512036959
  Br  0.02028951808033      2.22983208065944     -0.72093294554375
  H   -0.60734215691822     -0.77993181215265     -1.09766310139085
  H   1.04342236919437      0.74218793111609      0.97227975349163
  H   0.12273599729509     -1.43049628890678      0.36669175803672
  N   1.89271501357155      0.08438497445107     -0.81881463513736
  O   2.42101273405785     -0.91385196700632     -0.33330960364684
  O   2.23548009776031      0.65015657519682     -1.84654882134770
  C   -1.62039505752107     -0.20788078273563      0.73865697753227
  H   -1.36707054478643      0.17753137798569      1.72972151793141
  H   -2.22884565567648     -1.10400054845647      0.87402697532381
  H   -2.22612963857615      0.54266061311011      0.23153313916036
