17

C	-0.575801	0.032237	-1.420319
C	0.0	0.0	0.0
Br	0.247225	1.425516	-2.495284
H	1.09346	0.0	0.0
N	-0.339494	-1.320599	-2.100541
O	0.76331	-1.540631	-2.572614
O	-1.275916	-2.115989	-2.0354
C	-2.014693	0.278208	-1.401417
N	-3.16869	0.494708	-1.325301
C	-0.44401	-1.239685	0.762581
H	-0.07546	-2.15875	0.302329
H	0.013068	-1.175364	1.753909
H	-1.533244	-1.307827	0.870274
N	-0.397079	1.250577	0.633605
H	0.43484	1.642817	1.064626
H	-1.099006	1.096251	1.346631
H	2.756411	0.0	0.0
