17

C	-0.564126	0.009916	-1.424914
C	0.0	0.0	0.0
Br	0.155834	1.479554	-2.470831
H	1.098263	0.0	0.0
N	-0.205774	-1.30834	-2.125235
O	0.902196	-1.409868	-2.622183
O	-1.058459	-2.193945	-2.054393
C	-2.018493	0.135616	-1.421116
N	-3.188632	0.240483	-1.354418
C	-0.438985	-1.234262	0.774012
H	-1.525428	-1.285991	0.909654
H	0.044884	-1.174118	1.752299
H	-0.098895	-2.159596	0.30683
N	-0.416584	1.247887	0.626404
H	0.420731	1.684851	0.99929
H	-1.065952	1.075923	1.386306
H	2.758132	0.0	0.0
