17

C	-0.545659	0.025882	-1.432446
C	0.0	0.0	0.0
Br	0.17592	1.53349	-2.432864
H	1.098283	0.0	0.0
N	-0.137605	-1.267184	-2.150973
O	-0.977628	-2.165571	-2.13168
O	0.98982	-1.34043	-2.606396
C	-2.000497	0.12598	-1.470974
N	-3.173744	0.208611	-1.480197
C	-0.473881	-1.231628	0.750672
H	-0.152874	-2.154686	0.2669
H	-1.562889	-1.254368	0.872346
H	0.000887	-1.20913	1.736522
N	-0.478921	1.232946	0.637172
H	0.317877	1.866576	0.669677
H	-0.721513	1.028784	1.600059
H	2.783259	0.0	0.0
