17

C	-0.484195	-0.072072	-1.439526
C	0.0	0.0	0.0
Br	0.288991	-1.593594	-2.393504
H	1.110701	0.0	0.0
N	-2.006032	-0.227152	-1.447118
O	-2.470571	-1.347762	-1.259799
O	-2.656868	0.816602	-1.506666
C	-0.156311	1.134586	-2.189989
N	0.126544	2.061718	-2.854118
C	-0.44821	-1.159477	0.869386
H	0.141511	-1.110936	1.789783
H	-0.258009	-2.12572	0.399912
H	-1.513484	-1.105653	1.125322
N	-0.362523	1.309634	0.520098
H	0.467214	1.700683	0.957281
H	-1.10652	1.254186	1.203973
H	2.651075	0.0	0.0
