17

C	-0.4959	0.029538	-1.461776
C	0.0	0.0	0.0
Br	0.343655	1.470652	-2.476251
H	1.094388	0.0	0.0
N	-0.184846	-1.301322	-2.152325
O	-1.096999	-2.127297	-2.126819
O	0.937305	-1.472084	-2.595414
C	-1.938179	0.238749	-1.532926
N	-3.092147	0.466702	-1.490981
C	-0.481423	-1.252141	0.715334
H	-1.573446	-1.34014	0.742814
H	-0.060215	-2.158278	0.275468
H	-0.108035	-1.171937	1.737327
N	-0.389126	1.1928	0.723983
H	-1.334627	1.499483	0.525825
H	0.268326	1.934056	0.513053
H	2.774994	0.0	0.0
