14

C	-0.560441	-0.076444	-1.41248
C	0.0	0.0	0.0
Br	0.211123	1.40842	-2.51642
H	1.100757	0.0	0.0
H	-0.179114	-0.98691	-1.872059
N	-1.986016	-0.071663	-1.401939
H	-2.35112	-0.232542	-2.331583
H	-2.326424	0.827826	-1.078339
N	-0.402755	-1.224271	0.687882
H	-1.36342	-1.163292	0.999003
H	0.209507	-1.364443	1.48292
C	-0.498101	1.220317	0.664181
N	-0.987507	2.132516	1.223345
Cl	3.341009	0.0	0.0
