14

C	-0.383513	0.080339	-1.486353
C	0.0	0.0	0.0
Br	-0.124913	-1.742148	-2.333504
H	1.095702	0.0	0.0
H	-1.450342	0.245414	-1.642753
N	0.392998	1.095971	-2.071627
H	0.238977	1.18436	-3.065086
H	1.38114	0.953962	-1.874033
N	-0.500738	-1.166298	0.708128
H	0.250229	-1.543274	1.270959
H	-1.275135	-0.92756	1.311553
C	-0.457232	1.250738	0.624941
N	-0.923734	2.185123	1.164293
Cl	3.321474	0.0	0.0
