14

C	-0.48209	-0.02648	-1.452536
C	0.0	0.0	0.0
Br	0.178732	1.594127	-2.421783
H	1.093068	0.0	0.0
H	0.018702	-0.851025	-1.960405
N	-1.89843	-0.179868	-1.528877
H	-2.356817	0.631227	-1.12684
H	-2.201783	-0.2719	-2.489475
N	-0.405744	-1.216259	0.704205
H	0.351467	-1.884166	0.634215
H	-1.244759	-1.593144	0.281057
C	-0.562652	1.171595	0.683258
N	-1.092646	2.087821	1.192328
Cl	3.321543	0.0	0.0
