14

C	-0.226874	-0.045533	-1.519421
C	0.0	0.0	0.0
Br	-2.142656	-0.299539	-1.976967
H	1.10015	0.0	0.0
H	-0.004085	0.93419	-1.956833
N	0.532691	-1.149255	-2.037941
H	1.490962	-1.044434	-1.695526
H	0.547222	-1.125064	-3.049848
N	-0.462937	-1.146634	0.757888
H	0.082977	-1.946172	0.457788
H	-1.43376	-1.330446	0.523448
C	-0.523876	1.243261	0.560856
N	-0.950639	2.253898	0.979175
Cl	3.307018	0.0	0.0
