14

C	-0.308236	0.147167	-1.512825
C	0.0	0.0	0.0
Br	-0.278855	-1.757653	-2.371055
H	1.094744	0.0	0.0
H	-1.340731	0.422493	-1.736011
N	0.607733	1.031604	-2.059533
H	0.511088	1.198743	-3.049038
H	1.569591	0.833148	-1.78439
N	-0.494546	-1.144671	0.731815
H	-1.422265	-1.398806	0.413857
H	0.123421	-1.922969	0.542871
C	-0.492981	1.235118	0.625168
N	-0.949664	2.203551	1.107908
Cl	3.334083	0.0	0.0
