14

C	-0.560167	-0.026694	-1.430252
C	0.0	0.0	0.0
Br	0.09902	1.504963	-2.431976
H	1.098496	0.0	0.0
H	-0.142014	-0.906083	-1.925458
N	-2.004473	-0.066344	-1.522171
H	-2.371673	0.81581	-1.177152
H	-2.294899	-0.792681	-0.870613
N	-0.493463	-1.242091	0.650422
H	0.246203	-1.929081	0.523162
H	-0.549848	-1.08617	1.651067
C	-0.524133	1.158523	0.718472
N	-0.993501	2.062608	1.303725
Cl	3.349929	0.0	0.0
