14

C	-0.191776	-0.171826	-1.513378
C	0.0	0.0	0.0
Cl	-0.194411	1.503151	-2.349989
H	1.102596	0.0	0.0
H	-1.174204	-0.568508	-1.778203
N	0.871806	-1.002631	-1.919017
H	1.749807	-0.687832	-1.463159
H	0.951343	-1.097162	-2.92085
N	-0.525296	-1.23427	0.640914
H	0.036036	-1.974385	0.225517
H	-0.230468	-1.193906	1.613212
C	-0.635504	1.162535	0.585176
N	-1.140506	2.067648	1.139201
F	2.667352	0.0	0.0
