17

C	-0.310642	0.108404	-1.487906
C	0.0	0.0	0.0
F	-1.626684	0.577754	-1.686713
H	1.091344	0.0	0.0
N	0.605228	1.077132	-2.001207
H	1.525803	0.920106	-1.562611
H	0.686597	1.001979	-3.007252
C	-0.268496	-1.147403	-2.282899
N	-0.217433	-1.990486	-3.101017
N	-0.442237	-1.241849	0.632586
O	-0.887846	-1.183519	1.786121
O	-0.245491	-2.301568	0.028284
C	-0.473625	1.222089	0.754955
H	0.030617	1.26117	1.720761
H	-0.200304	2.105556	0.178867
H	-1.552548	1.211714	0.913604
H	2.608759	0.0	0.0
