17

C	-0.303826	0.058946	-1.495023
C	0.0	0.0	0.0
F	-1.593606	0.593809	-1.713063
H	1.092306	0.0	0.0
N	0.661993	0.944849	-2.053242
H	0.742599	0.819872	-3.054039
H	1.572455	0.772148	-1.59757
C	-0.354964	-1.237253	-2.22024
N	-0.408377	-2.135916	-2.975877
N	-0.438337	-1.23264	0.656941
O	-0.079387	-2.300228	0.148016
O	-1.05044	-1.152282	1.730486
C	-0.488458	1.238273	0.714243
H	-1.57307	1.249512	0.822957
H	-0.170108	2.108688	0.139351
H	-0.028589	1.282744	1.70265
H	2.621275	0.0	0.0
