17

C	-0.296125	-0.069657	-1.507462
C	0.0	0.0	0.0
F	-0.335598	1.291309	-1.96184
H	1.09213	0.0	0.0
N	0.710885	-0.800094	-2.138755
H	1.621019	-0.593195	-1.711013
H	0.706714	-0.68614	-3.142886
C	-1.652962	-0.557554	-1.858728
N	-2.74653	-0.857375	-2.165456
N	-0.414274	-1.23611	0.687422
O	-0.47356	-1.199632	1.92121
O	-0.60294	-2.257659	0.021887
C	-0.529213	1.220604	0.714099
H	-0.139776	2.110183	0.224108
H	-0.173674	1.203665	1.742492
H	-1.623512	1.257407	0.715343
H	2.681464	0.0	0.0
