17

C	-0.484996	0.106763	-1.441389
C	0.0	0.0	0.0
F	-0.088697	-1.076468	-2.096601
H	1.089874	0.0	0.0
N	-1.880283	0.329121	-1.573862
H	-2.144133	0.285469	-2.549966
H	-2.374151	-0.375948	-1.036526
C	0.228752	1.209044	-2.127021
N	0.703979	2.1043	-2.717233
N	-0.484302	-1.305975	0.546863
O	0.33744	-2.116725	0.953157
O	-1.712651	-1.490236	0.589075
C	-0.48364	1.123532	0.890085
H	-0.049341	0.987818	1.883875
H	-0.097792	2.065978	0.495257
H	-1.57081	1.173033	0.954741
H	2.779656	0.0	0.0
