17

C	-0.301112	0.045207	-1.496362
C	0.0	0.0	0.0
F	-1.589843	0.578023	-1.723935
H	1.091856	0.0	0.0
N	0.666715	0.924569	-2.060795
H	1.576457	0.756766	-1.601291
H	0.750008	0.789029	-3.059526
C	-0.351489	-1.259305	-2.206948
N	-0.413632	-2.156523	-2.964126
N	-0.437627	-1.228415	0.665484
O	-1.064818	-1.140376	1.729854
O	-0.06413	-2.298666	0.17232
C	-0.49106	1.241904	0.704797
H	-0.035292	1.292216	1.694704
H	-0.170191	2.108511	0.126466
H	-1.576177	1.253813	0.808402
H	2.624601	0.0	0.0
