17

C	-0.28844	-0.072979	-1.509241
C	0.0	0.0	0.0
F	-0.247099	1.274406	-1.982566
H	1.092112	0.0	0.0
N	0.663464	-0.877492	-2.134931
H	1.581445	-0.727195	-1.697812
H	0.681946	-0.731845	-3.135623
C	-1.674788	-0.497371	-1.830368
N	-2.779636	-0.821883	-2.066625
N	-0.439786	-1.254454	0.653165
O	-1.288081	-1.183756	1.555993
O	0.093498	-2.303156	0.28989
C	-0.574961	1.213391	0.682884
H	-1.660241	1.281249	0.578053
H	-0.334337	1.169808	1.745455
H	-0.107858	2.101025	0.259073
H	2.714376	0.0	0.0
