17

C	-0.304381	0.04813	-1.510034
C	0.0	0.0	0.0
F	-0.211084	1.39462	-1.868173
H	1.092223	0.0	0.0
N	0.627701	-0.665824	-2.328326
H	1.546568	-0.506326	-1.899102
H	0.431334	-1.653555	-2.216237
C	-1.699292	-0.353949	-1.819378
N	-2.81848	-0.634134	-2.038599
N	-0.387472	-1.292565	0.555932
O	-0.432798	-2.274872	-0.204349
O	-0.553329	-1.377379	1.778636
C	-0.526322	1.14683	0.826612
H	-0.156955	1.048953	1.846771
H	-1.620667	1.17419	0.847128
H	-0.14848	2.078864	0.409046
H	2.61047	0.0	0.0
