16

C	0.0	0.0	0.0
C	-0.64187	0.140953	-1.372117
Br	1.958503	0.0	0.0
H	-1.649253	0.495202	-1.089803
H	-0.226045	0.929715	0.524436
C	-0.5441	-1.167263	0.791235
H	-0.176879	-1.147847	1.820442
H	-0.256553	-2.112918	0.327913
H	-1.637251	-1.01099	0.753839
N	-0.766757	-1.184763	-2.018578
H	-1.596588	-1.580113	-1.577646
H	-1.04402	-1.003079	-2.979483
N	0.049736	1.117623	-2.187387
H	-0.532361	1.34537	-2.985632
H	0.915018	0.710134	-2.530037
F	-3.036886	0.0	0.0
