16

C	0.0	0.0	0.0
C	-0.544733	0.11324	-1.46448
Br	1.956421	0.0	0.0
H	0.3111	0.157655	-2.149777
H	-0.247485	0.936229	0.498594
C	-0.527239	-1.157377	0.818245
H	-0.238713	-2.123029	0.393159
H	-0.149933	-1.106397	1.842414
H	-1.617477	-1.029922	0.803429
N	-1.273783	1.377927	-1.50525
H	-1.624753	1.465786	-2.454923
H	-2.102736	1.157206	-0.919919
N	-1.414829	-0.975708	-1.900753
H	-0.970948	-1.873399	-1.731808
H	-2.233842	-0.890781	-1.274937
F	-3.083591	0.0	0.0
