16

C	0.0	0.0	0.0
C	-0.570718	0.116498	-1.394676
Br	1.973593	0.0	0.0
H	-1.659345	0.110752	-1.144335
H	-0.266632	0.916891	0.523016
C	-0.525058	-1.206654	0.740462
H	-0.22572	-2.127185	0.237847
H	-1.619455	-1.061627	0.68615
H	-0.173906	-1.216854	1.77664
N	-0.244624	-1.066131	-2.191244
H	0.711557	-0.993844	-2.526951
H	-0.85811	-1.09274	-2.99705
N	-0.214712	1.413763	-1.974697
H	0.754982	1.389335	-2.279547
H	-0.792236	1.56584	-2.794046
F	-2.984895	0.0	0.0
