16

C	0.0	0.0	0.0
C	-0.55996	-0.098854	-1.413705
Br	1.970202	0.0	0.0
H	-1.643442	-0.186478	-1.185187
H	-0.275596	0.976063	0.400118
C	-0.52056	-1.094984	0.902718
H	-1.615004	-0.953879	0.839094
H	-0.225957	-2.072672	0.517716
H	-0.159975	-0.975177	1.929286
N	-0.0794	-1.297628	-2.08157
H	-0.588334	-1.358008	-2.956586
H	0.900169	-1.166433	-2.321383
N	-0.366375	1.112899	-2.219225
H	0.579787	1.460993	-2.078728
H	-1.007266	1.815207	-1.861792
F	-2.961034	0.0	0.0
