16

C	0.0	0.0	0.0
C	-0.563982	-0.011504	-1.424637
Br	1.95515	0.0	0.0
H	-1.646974	-0.10191	-1.214544
H	-0.291787	0.941429	0.46847
C	-0.542206	-1.147639	0.82371
H	-0.200191	-1.088736	1.8605
H	-1.637123	-1.008298	0.748539
H	-0.224365	-2.110866	0.412078
N	-0.127499	-1.104888	-2.276396
H	-0.559762	-1.960656	-1.952447
H	0.880375	-1.206717	-2.200082
N	-0.214281	1.237943	-2.111394
H	-0.581564	1.136536	-3.052133
H	-0.755819	1.975696	-1.669488
F	-2.981302	0.0	0.0
