15

C	-0.590719	-0.014433	-1.378926
C	0.0	0.0	0.0
F	-0.218352	1.098772	-2.082676
H	1.09288	0.0	0.0
H	-0.364482	0.937669	0.434106
N	-0.008165	-1.172867	-2.227931
O	-0.377357	-1.203912	-3.406427
O	0.713978	-2.006177	-1.690295
N	-1.99805	-0.120817	-1.377961
H	-2.227764	-0.805843	-0.667656
H	-2.339653	-0.396391	-2.289905
N	-0.548048	-1.147865	0.757711
H	-0.688435	-0.860162	1.716517
H	0.198924	-1.833058	0.775937
F	2.673908	0.0	0.0
