15

C	-0.104869	-0.098211	-1.511444
C	0.0	0.0	0.0
F	-0.074962	-1.419777	-1.872687
H	1.095178	0.0	0.0
H	-0.359569	0.989348	0.295527
N	-1.429999	0.44063	-2.052069
O	-1.587362	1.658636	-1.956352
O	-2.25584	-0.343029	-2.503045
N	0.959844	0.584123	-2.169164
H	0.758234	1.575983	-2.14671
H	1.796476	0.421477	-1.566398
N	-0.739241	-1.047416	0.707931
H	-0.539645	-0.929255	1.695652
H	-0.307626	-1.926918	0.4474
F	2.744278	0.0	0.0
