15

C	-0.104452	-0.15124	-1.517941
C	0.0	0.0	0.0
F	-1.284569	-0.781472	-1.951755
H	1.093362	0.0	0.0
H	-0.472792	0.916373	0.347284
N	-0.322518	1.257371	-2.187424
O	-1.225621	1.966027	-1.749236
O	0.398421	1.555126	-3.139593
N	1.020214	-0.79875	-1.992465
H	1.1667	-0.660949	-2.981296
H	1.85273	-0.551185	-1.404209
N	-0.481107	-1.170352	0.724055
H	-1.315573	-1.525676	0.274887
H	0.232497	-1.88678	0.645916
F	2.746091	0.0	0.0
