15

C	-0.626102	-0.550421	-1.271297
C	0.0	0.0	0.0
F	0.168654	-0.307282	-2.342845
H	1.09398	0.0	0.0
H	-0.401648	-0.575202	0.84103
N	-0.758683	-2.071638	-1.161811
O	-1.623053	-2.477996	-0.381928
O	-0.031438	-2.782954	-1.839448
N	-1.944762	-0.084007	-1.592656
H	-1.90949	0.904537	-1.345218
H	-2.590369	-0.530941	-0.951452
N	-0.379547	1.431821	0.095332
H	-0.835964	1.611746	0.980633
H	0.50467	1.928772	0.11604
F	2.648601	0.0	0.0
