15

C	-0.129231	-0.240228	-1.496104
C	0.0	0.0	0.0
F	-1.332581	-0.789045	-1.920662
H	1.093013	0.0	0.0
H	-0.441164	0.952857	0.286885
N	-0.223651	1.158616	-2.249819
O	-0.908437	2.051383	-1.755805
O	0.343507	1.246428	-3.338879
N	0.957068	-0.974936	-1.936025
H	1.100265	-0.901886	-2.932792
H	1.800722	-0.719366	-1.381479
N	-0.489176	-1.151061	0.756763
H	-1.263236	-0.883961	1.347591
H	0.266341	-1.465437	1.349362
F	2.740153	0.0	0.0
