12

C	-0.677182	-0.062677	-1.490523
C	0.101834	-0.125548	-0.164619
Br	0.070183	1.263591	-2.716668
H	1.165334	-0.277751	-0.371234
H	-1.692132	0.28374	-1.289348
H	-0.267307	-1.031841	0.342307
C	-0.7299	-1.347567	-2.182193
N	-0.771031	-2.408099	-2.687076
N	-0.07226	1.092809	0.583778
H	-0.607415	0.896536	1.421843
H	0.905809	1.353722	0.915585
H	2.420213	1.325203	1.32206
