12

C	-0.373392	0.031675	-1.321855
C	-0.218646	-0.345381	0.144252
Br	-0.13268	-1.550735	-2.466889
H	0.774929	-0.790269	0.230975
H	0.486243	0.721066	-1.515917
H	-0.975872	-1.077377	0.445365
C	-1.658117	0.632329	-1.63222
N	-2.694795	1.103639	-1.925568
N	-0.3668	0.906881	0.877393
H	-0.250875	0.71768	1.868471
H	0.454953	1.454315	0.570766
H	1.878745	1.568178	-0.665049
