12

C	-0.50457	0.018972	-1.449916
C	-0.111222	-0.235216	0.004486
Br	-0.312809	-1.607314	-2.558413
H	0.917659	-0.600905	-0.005833
H	0.194505	0.744639	-1.868045
H	-0.773593	-0.998407	0.426408
C	-1.875784	0.496225	-1.583827
N	-2.991011	0.839383	-1.721542
N	-0.211226	1.053893	0.651655
H	-0.578127	0.943712	1.589347
H	0.792852	1.386916	0.70001
H	2.371202	1.323266	0.446306
