12

C	-0.432253	-0.043356	-1.476671
C	-0.129486	0.224307	-0.00212
Br	-2.301639	-0.568327	-1.771421
H	0.905308	0.58125	0.001335
H	0.170497	-0.89777	-1.789217
H	-0.796706	1.013151	0.361251
C	-0.158199	1.108812	-2.328816
N	0.064971	2.057996	-2.984544
N	-0.248183	-1.012946	0.735581
H	-0.542176	-0.803584	1.68268
H	0.746267	-1.356248	0.775759
H	2.360286	-1.286009	0.431142
