12

C	-0.382906	-0.097874	-1.315038
C	-0.209073	-0.340848	0.177309
Br	-0.131367	-1.772141	-2.318139
H	0.79759	-0.765221	0.291027
H	0.465911	0.581927	-1.577913
H	-0.952219	-1.054067	0.549841
C	-1.678828	0.455867	-1.663317
N	-2.727606	0.883007	-1.980355
N	-0.366724	0.969059	0.798156
H	-0.231614	0.870217	1.799907
H	0.441748	1.499233	0.4309
H	1.855551	1.515785	-0.816848
