15
Coordinates from ORCA-job run
  C   -0.50760210891883      0.07737539375742     -0.10541609783545
  C   0.79557193053901     -0.64897574172249     -0.31248863039301
  H   -0.96836917234504      0.32885325228307     -1.05976700954373
  H   0.62218551775785     -1.60451916271748     -0.81311102257821
  H   1.33396855944354     -0.81743072061201      0.61711742336768
  N   -0.25117263332262      1.40743302795665      0.55093683830605
  O   -1.14687448069673      2.23839358738951      0.44902356479062
  O   0.79881667688655      1.54965962046551      1.17343740237632
  C   -1.46403155549900     -0.70454282048433      0.78247716958778
  H   -1.01516177302199     -0.89462969381347      1.76002397244376
  H   -1.71059349121330     -1.66120012952749      0.31794188793581
  H   -2.38655470401169     -0.14014545771680      0.92049932549186
  N   1.73324189706512      0.11307197632710     -1.19964319102779
  O   2.91172827121961     -0.21732189732182     -1.14757645517141
  O   1.25384706611752      0.97397876573663     -1.93245517775029
