15
Coordinates from ORCA-job run
  C   -0.70093806854202      0.14430340627035     -0.14047039640772
  C   0.38316131953144     -0.23036426915978     -1.13426474231951
  H   -1.64453256494260      0.16161314804334     -0.69541514511920
  H   0.14253713371073     -1.16225880915712     -1.64318792485743
  H   0.53942645201993      0.57245439035050     -1.85456875131733
  N   -0.51982344226513      1.58907181328868      0.28038594063845
  O   -0.39889114019324      2.40040777502080     -0.63207456385857
  O   -0.55176289799759      1.85158374041579      1.47629065990428
  C   -0.79354061185420     -0.78080669441873      1.05420812560069
  H   -1.64471412070772     -0.51793258246573      1.68020726489090
  H   -0.92079704109176     -1.80812793790985      0.70403426503454
  H   0.10518357669198     -0.72203115006641      1.66725373704253
  N   1.68030947312193     -0.44922410132272     -0.43212157374199
  O   2.26217775294363     -1.51352718909676     -0.62317816306884
  O   2.06220417957463      0.46583846020764      0.29390126757919
