15
Coordinates from ORCA-job run
  C   -0.52338608090693      0.03214507596964     -0.03098139356593
  C   0.79155854252903     -0.58914339795844     -0.42384749179555
  H   -1.14021280309271      0.22382712233453     -0.90789269077354
  H   0.62586719846154     -1.56351009571139     -0.88961152895203
  H   1.47127269111726     -0.69798992148808      0.41784895202456
  N   -0.28541754616513      1.39259565407549      0.56692482846089
  O   0.82251293406101      1.62368050503421      1.04594476441467
  O   -1.24649949126221      2.15364413863490      0.57178198798430
  C   -1.26665387204796     -0.80568974624700      0.99857494876843
  H   -2.20329720795382     -0.31678714664829      1.26790760989678
  H   -0.66231636949329     -0.93489829451845      1.89926198902110
  H   -1.49714845695893     -1.79006673761137      0.58666650816320
  N   1.52331019299345      0.23276905025422     -1.44100087257082
  O   2.72240174883797      0.00848299493504     -1.55327249644438
  O   0.87000851988072      1.03194079894499     -2.10630511463167
