15
Coordinates from ORCA-job run
  C   -0.46625557902603      0.28039594163920     -0.13848494612806
  C   1.03129805875371      0.27362550531275     -0.40429291069398
  H   -1.01217463379249      0.19366985338166     -1.07803455952174
  H   1.31286972960454      1.05938524162026     -1.10636551353549
  H   1.61121720285409      0.34550530534385      0.51137006359800
  N   -0.84053251734417      1.62336377244966      0.41543612109319
  O   -0.03025563881131      2.17445152842998      1.15886697734318
  O   -1.95411799800255      2.04802070226098      0.12232323188565
  C   -0.90488105025384     -0.78217076495907      0.85482962067385
  H   -0.70178282881767     -1.77750516646599      0.45604715200086
  H   -0.36762996150453     -0.66628726290100      1.79849246741839
  H   -1.97739502310315     -0.70167641926191      1.03893356880364
  N   1.36214129810346     -1.02852224915758     -1.04963654907311
  O   2.07124031797439     -1.81137616823779     -0.42180959770180
  O   0.86725862336555     -1.23087981945500     -2.15667512616258
