15

C	0.0	0.0	0.0
C	-0.521317	-0.146416	-1.426312
F	1.381369	0.0	0.0
H	-1.620974	-0.235457	-1.26731
H	-0.287002	-0.90195	0.558243
N	-0.522291	1.20768	0.560582
H	-0.32361	1.200783	1.556673
H	-1.550794	1.062946	0.476168
C	-0.013292	-1.376506	-2.02313
N	0.392528	-2.358229	-2.525058
C	-0.195959	1.059503	-2.305626
H	0.885627	1.191678	-2.398011
H	-0.618405	1.954631	-1.848392
H	-0.621243	0.929889	-3.30362
H	-3.047253	0.0	0.0
