15

C	0.0	0.0	0.0
C	-0.523992	-0.063783	-1.431216
F	1.381255	0.0	0.0
H	-1.625785	-0.145713	-1.275352
H	-0.287382	-0.932476	0.506501
N	-0.522242	1.174075	0.629098
H	-1.551211	1.036276	0.539652
H	-0.317263	1.112098	1.621985
C	-0.040445	-1.271003	-2.093325
N	0.343226	-2.232917	-2.649834
C	-0.176611	1.181485	-2.245843
H	-0.571742	2.059403	-1.735896
H	-0.613721	1.117871	-3.245463
H	0.906896	1.292433	-2.340956
H	-3.043082	0.0	0.0
