15

C	0.0	0.0	0.0
C	-0.623493	-0.048773	-1.380362
F	1.406544	0.0	0.0
H	-1.704448	-0.201661	-1.079179
H	-0.320433	-0.888068	0.546194
N	-0.405062	1.228208	0.599051
H	0.011931	1.243117	1.519949
H	-1.429402	1.068686	0.761198
C	-0.126354	-1.214347	-2.09765
N	0.321148	-2.088004	-2.770648
C	-0.410944	1.211645	-2.24594
H	-0.848836	1.064233	-3.231096
H	-0.942569	2.080275	-1.836601
H	0.637165	1.48995	-2.468216
H	-3.039097	0.0	0.0
