15

C	0.0	0.0	0.0
C	-0.522327	-0.074219	-1.431691
F	1.381332	0.0	0.0
H	-1.623112	-0.164088	-1.277816
H	-0.287346	-0.929448	0.512107
N	-0.522651	1.177977	0.621055
H	-1.551769	1.040599	0.526627
H	-0.325308	1.118846	1.615855
C	-0.024582	-1.278748	-2.087906
N	0.372738	-2.237968	-2.639107
C	-0.185876	1.170598	-2.250321
H	0.896638	1.295826	-2.33826
H	-0.596559	2.046099	-1.747664
H	-0.61512	1.095831	-3.252717
H	-3.041248	0.0	0.0
