16

C	-0.635539	-0.034652	-1.373733
C	0.0	0.0	0.0
F	-0.276985	1.053662	-2.113124
H	1.091747	0.0	0.0
N	-0.071399	-1.22542	-2.193701
O	-0.574531	-1.359256	-3.3125
O	0.781808	-1.950549	-1.702927
N	-2.04114	-0.121811	-1.318381
H	-2.409605	-0.333586	-2.238374
H	-2.271306	-0.85775	-0.658834
N	-0.44234	-1.199504	0.744812
H	0.401579	-1.758366	0.858948
H	-0.743266	-0.926934	1.671639
C	-0.439254	1.217861	0.668066
N	-0.768202	2.169187	1.275802
H	2.68186	0.0	0.0
