16

C	-0.235018	-0.213078	-1.485288
C	0.0	0.0	0.0
F	-1.539351	-0.585635	-1.778589
H	1.098992	0.0	0.0
N	-0.075655	1.086267	-2.310455
O	0.343071	2.098264	-1.760462
O	-0.317963	0.972748	-3.512132
N	0.662761	-1.185953	-1.943685
H	0.699969	-1.196839	-2.95521
H	1.588571	-0.996228	-1.525393
N	-0.356421	-1.191121	0.7702
H	-1.10261	-1.696307	0.307302
H	0.467179	-1.784597	0.77606
C	-0.641071	1.173249	0.570651
N	-1.169412	2.07898	1.102764
H	2.652374	0.0	0.0
