16

C	-0.545446	-0.205532	-1.416814
C	0.0	0.0	0.0
F	-0.457992	0.950111	-2.120739
H	1.101009	0.0	0.0
N	0.3472	-1.221818	-2.132585
O	0.87247	-0.90241	-3.187868
O	0.415967	-2.316116	-1.583817
N	-1.878683	-0.714321	-1.513846
H	-2.505413	0.078763	-1.478048
H	-2.014156	-1.276083	-0.678491
N	-0.455323	-1.114501	0.862342
H	-0.544541	-0.760447	1.805961
H	0.324674	-1.771299	0.876592
C	-0.51838	1.257652	0.503538
N	-0.932339	2.262206	0.954565
H	2.645756	0.0	0.0
