16

C	-0.373195	-0.06302	-1.477397
C	0.0	0.0	0.0
F	-1.657645	-0.503269	-1.637589
H	1.094963	0.0	0.0
N	-0.32484	1.340184	-2.070079
O	-1.390266	1.918276	-2.258385
O	0.794351	1.791455	-2.282882
N	0.50309	-0.88455	-2.237857
H	0.409972	-1.807357	-1.821027
H	1.452041	-0.578155	-1.997186
N	-0.308387	-1.30675	0.574281
H	-1.222138	-1.318749	1.006169
H	0.403408	-1.511953	1.267838
C	-0.574349	1.125465	0.720641
N	-1.035355	2.006248	1.351007
H	2.653406	0.0	0.0
