16

C	-0.292041	-0.111743	-1.499559
C	0.0	0.0	0.0
F	-1.467305	-0.787454	-1.742884
H	1.090352	0.0	0.0
N	-0.506029	1.282257	-2.123579
O	-1.400351	1.422368	-2.951752
O	0.315679	2.128208	-1.789862
N	0.767771	-0.715582	-2.199868
H	1.636002	-0.693768	-1.648083
H	0.521434	-1.617539	-2.571806
N	-0.297355	-1.248234	0.695229
H	0.548657	-1.808137	0.681736
H	-1.049745	-1.754853	0.246735
C	-0.635756	1.122038	0.670306
N	-1.154578	2.008064	1.242473
H	2.652786	0.0	0.0
