15

C	0.0	0.0	0.0
C	-0.649159	0.002315	-1.359768
Br	1.95702	0.0	0.0
H	-1.750439	0.025223	-1.039426
H	-0.275736	0.950954	0.458352
C	-0.490081	-1.162456	0.838832
H	-1.588208	-1.084428	0.841347
H	-0.177821	-2.116524	0.406745
H	-0.10709	-1.096067	1.859848
C	-0.401788	-1.234911	-2.105897
N	-0.242713	-2.208246	-2.748364
N	-0.348076	1.21029	-2.117218
H	0.547514	1.11713	-2.578126
H	-1.057558	1.331067	-2.825908
H	-3.14464	0.0	0.0
