15

C	0.0	0.0	0.0
C	-0.627534	-0.064116	-1.381831
Br	1.954417	0.0	0.0
H	-1.730469	-0.101467	-1.088108
H	-0.293651	0.958799	0.433872
C	-0.482212	-1.138426	0.877525
H	-1.580214	-1.068826	0.874418
H	-0.101371	-1.03805	1.896652
H	-0.15978	-2.101255	0.472883
C	-0.267801	-1.29217	-2.08632
N	0.022264	-2.285984	-2.643892
N	-0.425144	1.094939	-2.239434
H	-1.045096	1.824513	-1.902932
H	0.532419	1.420757	-2.15389
H	-3.107464	0.0	0.0
