15

C	0.0	0.0	0.0
C	-0.400424	0.007688	-1.511618
Br	1.954223	0.0	0.0
H	0.291103	-0.686118	-2.006779
H	-0.306443	0.927948	0.484284
C	-0.556819	-1.200761	0.728037
H	-1.649	-1.089111	0.736101
H	-0.18342	-1.24147	1.753958
H	-0.278204	-2.128093	0.218183
C	-0.092274	1.33902	-2.076082
N	0.150899	2.388892	-2.543837
N	-1.749509	-0.373916	-1.856605
H	-2.468479	-0.056285	-1.144845
H	-1.803851	-1.386595	-1.82702
H	-3.531602	0.0	0.0
