15

C	0.0	0.0	0.0
C	-0.40119	0.088245	-1.497023
Br	1.95278	0.0	0.0
H	0.344187	-0.487697	-2.061807
H	-0.302361	0.904092	0.528499
C	-0.546315	-1.230744	0.688242
H	-0.294751	-2.135515	0.131476
H	-0.143088	-1.304584	1.702105
H	-1.636935	-1.122204	0.729658
C	-0.226211	1.49222	-1.94827
N	-0.103992	2.583859	-2.367889
N	-1.708721	-0.481914	-1.741905
H	-2.046078	-0.170001	-2.647117
H	-2.445069	-0.196403	-1.021299
H	-3.531094	0.0	0.0
