15

C	0.0	0.0	0.0
C	-0.635044	-0.069472	-1.375391
Br	1.958809	0.0	0.0
H	-1.738001	-0.117605	-1.070303
H	-0.290949	0.959008	0.435033
C	-0.480462	-1.138703	0.878053
H	-0.16705	-2.101988	0.468595
H	-0.09422	-1.043599	1.895031
H	-1.577541	-1.064671	0.881057
C	-0.268103	-1.291247	-2.084615
N	0.020543	-2.281807	-2.648811
N	-0.450437	1.096113	-2.227936
H	0.508012	1.423933	-2.153225
H	-1.066249	1.822268	-1.8747
H	-3.103069	0.0	0.0
