17

C	0.0	0.0	0.0
C	-0.403857	-0.120896	-1.504653
Cl	1.804718	0.0	0.0
H	0.121535	-1.030063	-1.845939
C	-0.404788	1.292336	0.554318
N	-0.686987	2.314013	1.060329
C	-0.542588	-1.144754	0.832677
H	-0.146844	-1.103221	1.848883
H	-0.257657	-2.097184	0.377787
H	-1.63331	-1.059316	0.865685
N	0.021959	1.088409	-2.193008
H	-0.449451	1.088028	-3.088309
H	1.022459	1.099552	-2.336911
N	-1.795558	-0.297029	-1.775646
H	-2.12779	-1.214002	-1.511531
H	-2.408083	0.35278	-1.284398
Cl	-4.416153	0.0	0.0
