17

C	0.0	0.0	0.0
C	-0.567359	0.299866	-1.399457
Cl	1.795941	0.0	0.0
H	-1.618395	0.55172	-1.206336
C	-0.367755	1.105759	0.892984
N	-0.625932	1.981116	1.6316
C	-0.507986	-1.316527	0.561227
H	-0.134603	-2.133225	-0.057671
H	-1.602422	-1.282401	0.554635
H	-0.152022	-1.450843	1.584317
N	-0.439584	-0.900606	-2.237668
H	-0.61286	-0.609192	-3.194129
H	-1.206731	-1.523317	-1.996862
N	0.090645	1.453959	-1.963031
H	-0.481499	1.842814	-2.702589
H	0.98701	1.179103	-2.348002
Cl	-3.783357	0.0	0.0
