17

C	0.0	0.0	0.0
C	-0.527874	0.126792	-1.474675
Cl	1.790438	0.0	0.0
H	0.356256	0.194479	-2.113989
C	-0.353893	1.180353	0.803953
N	-0.559255	2.07041	1.542757
C	-0.477306	-1.244725	0.741093
H	-1.565696	-1.202275	0.82277
H	-0.184813	-2.131949	0.182609
H	-0.038079	-1.260625	1.740585
N	-1.241121	1.388145	-1.610601
H	-2.131556	1.30246	-1.115439
H	-1.461726	1.520622	-2.592022
N	-1.222608	-1.100186	-1.848815
H	-1.395823	-1.059037	-2.847774
H	-2.138644	-1.085213	-1.394475
Cl	-3.847902	0.0	0.0
