17

C	0.0	0.0	0.0
C	-0.426701	0.376444	-1.478057
Cl	1.799229	0.0	0.0
H	0.394516	-0.014916	-2.08892
C	-0.412234	1.003371	0.978895
N	-0.682703	1.812732	1.787495
C	-0.510965	-1.369794	0.410984
H	-0.123857	-1.639497	1.395219
H	-0.182182	-2.11887	-0.313645
H	-1.603812	-1.331367	0.443849
N	-0.403534	1.82536	-1.584521
H	-1.189589	2.188717	-1.048742
H	-0.613062	2.035986	-2.55575
N	-1.63721	-0.198556	-1.997425
H	-1.565796	-1.208085	-2.038298
H	-2.455734	0.018689	-1.418116
Cl	-4.088348	0.0	0.0
