17

C	-0.507864	0.021541	-1.446808
C	0.0	0.0	0.0
Br	0.316178	-1.473736	-2.460978
H	1.095753	0.0	0.0
C	-2.020704	-0.126022	-1.579699
H	-2.507605	0.688532	-1.035881
H	-2.321038	-0.0882	-2.628952
H	-2.338381	-1.079835	-1.15816
C	-0.079459	1.245303	-2.1255
N	0.189092	2.236911	-2.697897
C	-0.415846	-1.229167	0.806088
H	-0.159732	-2.135695	0.255475
H	-1.477267	-1.246246	1.068227
H	0.175915	-1.231379	1.725112
C	-0.465156	1.208537	0.659937
N	-0.851974	2.164521	1.227869
H	2.652786	0.0	0.0
