17

C	-0.319536	0.0905	-1.479424
C	0.0	0.0	0.0
Br	-2.310165	0.217573	-1.836419
H	1.10882	0.0	0.0
C	0.372808	1.291799	-2.10168
H	-0.021265	2.211679	-1.665608
H	1.436639	1.194715	-1.840533
H	0.23739	1.313665	-3.183776
C	0.091249	-1.134687	-2.162284
N	0.438243	-2.09934	-2.739879
C	-0.465642	-1.2649	0.704348
H	-0.113992	-1.244164	1.738669
H	-1.554276	-1.367695	0.697276
H	-0.014037	-2.134598	0.221141
C	-0.431223	1.200892	0.689406
N	-0.730453	2.175295	1.277405
H	2.621019	0.0	0.0
