17

C	-0.337622	0.076461	-1.477144
C	0.0	0.0	0.0
Br	-2.329853	0.279139	-1.800766
H	1.108724	0.0	0.0
C	0.388801	1.238848	-2.130206
H	0.23333	1.250726	-3.210358
H	1.452914	1.10647	-1.884596
H	0.039423	2.179372	-1.701153
C	-0.001294	-1.179822	-2.144572
N	0.252764	-2.181329	-2.706758
C	-0.471106	-1.251191	0.726821
H	-0.104503	-1.220234	1.755424
H	-0.03757	-2.132867	0.249558
H	-1.561015	-1.340348	0.736474
C	-0.428914	1.209619	0.67771
N	-0.751381	2.184809	1.251931
H	2.632599	0.0	0.0
