17

C	-0.34432	0.149023	-1.468187
C	0.0	0.0	0.0
Br	-2.344087	0.184123	-1.79161
H	1.107524	0.0	0.0
C	0.261878	1.419193	-2.038473
H	0.095636	1.489873	-3.114528
H	1.335182	1.373878	-1.810808
H	-0.176275	2.288673	-1.54587
C	0.118192	-1.020448	-2.214518
N	0.485168	-1.953564	-2.827996
C	-0.423377	-1.311884	0.648394
H	-1.509103	-1.439973	0.66649
H	0.035164	-2.144233	0.108722
H	-0.039907	-1.335638	1.67125
C	-0.470675	1.145039	0.753458
N	-0.846116	2.059998	1.392081
H	2.618916	0.0	0.0
