17

C	-0.391715	-0.058838	-1.485379
C	0.0	0.0	0.0
Br	0.07507	1.659708	-2.347569
H	1.096501	0.0	0.0
C	0.395989	-1.158803	-2.194797
H	0.055736	-2.138411	-1.850379
H	1.450884	-1.026058	-1.931729
H	0.250574	-1.098755	-3.274706
C	-1.832472	-0.224209	-1.673535
N	-2.984693	-0.42707	-1.800236
C	-0.401687	-1.271833	0.755194
H	-1.47147	-1.492781	0.684684
H	0.179941	-2.117731	0.38435
H	-0.138294	-1.141953	1.807424
C	-0.54608	1.167568	0.669473
N	-0.997226	2.080809	1.258428
H	2.720955	0.0	0.0
