17

C	-0.486333	0.050433	-1.455712
C	0.0	0.0	0.0
Br	0.270852	-1.482416	-2.462145
H	1.105345	0.0	0.0
C	-2.00364	-0.009142	-1.618352
H	-2.386847	-0.942009	-1.203542
H	-2.278746	0.045664	-2.673737
H	-2.451778	0.834776	-1.085834
C	0.01539	1.253349	-2.125348
N	0.311567	2.235937	-2.699609
C	-0.422351	-1.240292	0.783276
H	0.063053	-1.192297	1.761486
H	-1.503022	-1.325068	0.931628
H	-0.048423	-2.133457	0.280098
C	-0.465939	1.202943	0.667596
N	-0.846819	2.165962	1.228545
H	2.644611	0.0	0.0
