17

C	-0.4966	-0.102638	-1.449739
C	0.0	0.0	0.0
Br	0.357239	-1.659928	-2.335825
H	1.10965	0.0	0.0
C	-2.007215	-0.279308	-1.585708
H	-2.509933	0.566793	-1.107854
H	-2.297119	-0.323183	-2.637617
H	-2.317201	-1.204309	-1.098911
C	-0.077	1.073445	-2.215309
N	0.168919	2.039674	-2.837084
C	-0.402472	-1.169672	0.898233
H	-1.474331	-1.21546	1.111857
H	-0.076737	-2.107907	0.444179
H	0.14122	-1.061183	1.841242
C	-0.492226	1.247451	0.554962
N	-0.923945	2.238384	1.022916
H	2.637142	0.0	0.0
