15

C	-0.425704	0.15998	-1.44656
C	0.0	0.0	0.0
F	-0.088787	-0.948343	-2.19245
H	1.091092	0.0	0.0
H	0.147466	1.005857	-1.842926
C	-1.860314	0.450193	-1.632378
N	-2.977393	0.764045	-1.809288
N	-0.550383	-1.255107	0.585796
O	-1.525855	-1.775046	0.037445
O	-0.027784	-1.653902	1.621319
C	-0.456709	1.163486	0.866363
H	-0.039355	1.038876	1.86552
H	-1.546635	1.230224	0.924
H	-0.058737	2.094292	0.455188
Br	3.454261	0.0	0.0
