15

C	-0.452971	-0.030841	-1.444456
C	0.0	0.0	0.0
F	-1.841513	-0.16524	-1.513655
H	1.094213	0.0	0.0
H	-0.012018	-0.889311	-1.951255
C	-0.09354	1.207888	-2.148024
N	0.127606	2.194481	-2.743736
N	-0.398253	-1.317575	0.602544
O	-0.244836	-2.322543	-0.089144
O	-0.817479	-1.323479	1.758073
C	-0.542195	1.161819	0.80003
H	-1.633423	1.1612	0.82467
H	-0.187518	2.090876	0.349328
H	-0.162679	1.114818	1.818629
Br	3.39855	0.0	0.0
