15

C	-0.553409	-0.066497	-1.4202
C	0.0	0.0	0.0
F	-0.331071	1.162473	-2.028429
H	1.090948	0.0	0.0
H	-1.635281	-0.22732	-1.400868
C	0.049647	-1.109716	-2.263351
N	0.460504	-1.921515	-3.005254
N	-0.440185	-1.218183	0.739411
O	-1.041129	-2.096269	0.109101
O	-0.181138	-1.274323	1.93713
C	-0.48025	1.234667	0.739483
H	-0.070237	1.220564	1.748005
H	-1.573584	1.279935	0.788987
H	-0.10391	2.118063	0.226401
Br	3.408546	0.0	0.0
