15

C	-0.437122	0.058578	-1.451303
C	0.0	0.0	0.0
F	-0.143405	-1.122371	-2.100033
H	1.0911	0.0	0.0
H	0.159233	0.847649	-1.921983
C	-1.863507	0.375295	-1.654513
N	-2.97166	0.701231	-1.863107
N	-0.516559	-1.237817	0.649702
O	-1.591564	-1.688041	0.244114
O	0.131805	-1.689446	1.588183
C	-0.482943	1.194888	0.805087
H	-0.117531	2.114907	0.34283
H	-1.573999	1.229516	0.866552
H	-0.055793	1.137444	1.807052
Br	3.456017	0.0	0.0
