12
Coordinates from ORCA-job run
  C   -0.00230393807151      0.18079336371172     -0.42513189931141
  C   1.30169345136729     -0.33030877342830      0.19556746694712
  H   0.05039592319963      0.05293659494568     -1.51230286859936
  H   1.28261563102348     -0.20429838591652      1.28025299832068
  H   1.42469035442214     -1.39275962676540     -0.02668507664069
  H   2.16578228455935      0.20798678289984     -0.19762674997456
  C   -0.15170213278424      1.61806069431998     -0.17295413493506
  N   -0.27049898899386      2.76430233599960      0.05102522855477
  C   -1.22406838176234     -0.57815169280552      0.10213132368309
  H   -1.12313577285903     -1.64190128256262     -0.12564341906186
  H   -2.14569420259455     -0.21244744539576     -0.35379110970611
  H   -1.30677422750637     -0.46321256500269      1.18515824072339
