12
Coordinates from ORCA-job run
  C   -0.02946978189577      0.17777865288335     -0.42545355297262
  C   1.31914610427866     -0.29483467043481      0.12644163425365
  H   -0.03207388037525      0.04397390563631     -1.51318181591406
  H   2.14615606511768      0.26581787187083     -0.31255878788026
  H   1.35393108167927     -0.16699152059319      1.21061963996456
  H   1.45919709627161     -1.35418297175298     -0.10113891940249
  C   -0.20489557144513      1.61209658637900     -0.17322638672617
  N   -0.34552383708907      2.75585805727759      0.05079330801565
  C   -1.20052759666464     -0.60924345451222      0.17130101175599
  H   -2.15428115257889     -0.27350405898177     -0.23936332980176
  H   -1.23030762302253     -0.48456427185166      1.25589828730178
  H   -1.08235090427593     -1.67220412592044     -0.05113108859427
