15
Coordinates from ORCA-job run
  C   -0.63227702309184     -0.33474371882123      0.07765322892275
  C   0.75460180253403     -0.03503774627544     -0.54762604938002
  Cl  -0.78711574208101     -2.14354272534170      0.21601648498624
  H   0.82583717426784     -0.52047563583372     -1.52327504886840
  N   -0.69146393518981      0.18312557858342      1.40606518820779
  H   -0.75790830080448      1.19454910590776      1.38767330816396
  H   -1.46336603947482     -0.21243747991511      1.92545070818437
  N   -1.59819621895492      0.22670587558504     -0.81133993031337
  H   -1.60637839837704     -0.23617713006049     -1.71332438560122
  H   -2.52456049192312      0.16839436312474     -0.40556706372420
  N   1.88143104593968     -0.61091887605182      0.27695670294251
  O   2.30459308148878     -1.70137514254124     -0.09267280061869
  O   2.27027716462841      0.04924356536534      1.23093514901324
  C   0.93988627083000      1.40574189199158     -0.66455486321247
  N   1.08363961020832      2.56694807428286     -0.76439062870251
