15
Coordinates from ORCA-job run
  C   -0.73354339262571      0.14182106755268     -0.11641273807296
  C   0.72385367771522      0.16524689207077     -0.62746963724667
  Cl  -1.65481764772455      1.13116219560706     -1.35391746506333
  H   0.76110346365279     -0.18302131435804     -1.66075534614450
  N   -1.15295708939321     -1.21611482696132     -0.06289639718809
  H   -1.13293300338808     -1.67321077498820     -0.96754369606772
  H   -2.08231861935972     -1.29218084189494      0.33078182279521
  N   -0.84590950213211      0.84750056438476      1.11842552737183
  H   -1.81186218625600      1.04152171731835      1.34711589031907
  H   -0.39820441363774      0.32317280432499      1.86077235828848
  N   1.52106594114958     -0.84448902339233      0.16844167231613
  O   1.87153374969410     -1.85132790386601     -0.43421932305067
  O   1.71954955718387     -0.58622865568802      1.34952614516521
  C   1.33731634026581      1.47888445622658     -0.50646801557991
  N   1.87912312485576      2.51826364366368     -0.44538079784209
