15
Coordinates from ORCA-job run
  C   -0.63088165945236      0.12300369023883      0.24323869874222
  C   0.74946255613085      0.08184351095718     -0.45505855894205
  Cl  -0.71600220821000      1.54389239336178      1.32165423899814
  H   0.70864251669329     -0.70326537187491     -1.21484633176516
  N   -1.58451316734466      0.34101920090706     -0.83153233942959
  H   -2.36385250920886      0.90885465796959     -0.52771905013843
  H   -1.93211584835480     -0.54929022284695     -1.16775101301000
  N   -0.74831815453364     -1.04856630674148      1.05850126319317
  H   -1.65466092268099     -1.09142806191541      1.50614736922240
  H   -0.56582064662765     -1.89827925212220      0.53772490204409
  N   1.82780149597222     -0.35437905741173      0.50310261447613
  O   2.07572477636666     -1.55671965085917      0.49799586900380
  O   2.33737269886779      0.50178905508232      1.21260060614059
  C   1.09450088855979      1.35008109369644     -1.07648041002015
  N   1.40066018382238      2.35144432155867     -1.60657785851517
