15
Coordinates from ORCA-job run
  C   -0.74071511443904      0.06595651194031     -0.08399670124009
  C   0.69240458183169      0.20351436340737     -0.64323280310343
  Cl  -1.75448325224913      0.99897658205488     -1.32662830408827
  H   0.66294442051931      0.02940223102322     -1.71719351790920
  N   -1.13067044433045     -1.31335499121234     -0.19290432307601
  H   -0.95576792966355     -1.77513140577973      0.69197816968274
  H   -2.10045897281684     -1.40870405144078     -0.45764470622237
  N   -0.85653563738681      0.58362475764049      1.21789410412786
  H   -1.80239036761502      0.49455176991194      1.56582194693613
  H   -0.54023294897949      1.54106727575060      1.30737597874867
  N   1.59916648583594     -0.89092111728593     -0.10955763473541
  O   2.34836638427459     -1.39368288621182     -0.93887032076878
  O   1.52864339645464     -1.16614648268316      1.08013842301413
  C   1.29782720336555      1.49235835283137     -0.33689246874537
  N   1.75090219519858      2.53948909005358     -0.05728784262060
