15
Coordinates from ORCA-job run
  C   -0.73174132783032      0.14641030920050     -0.11537023071266
  C   0.72508758179804      0.15393471816474     -0.62906815728902
  Cl  -1.64661173226820      1.13513258973889     -1.35810588044650
  H   0.75819542709956     -0.20266960619405     -1.65969645297611
  N   -1.16272183820101     -1.20724050467211     -0.05084602428351
  H   -1.14633533478625     -1.67196478582371     -0.95166970699733
  H   -2.09288894427507     -1.27185398268533      0.34295187070762
  N   -0.83595914372630      0.86158704141639      1.11499428254936
  H   -0.40078299077145      0.33353197103864      1.86215845260753
  H   -1.79918669598554      1.07428201250021      1.33845214094919
  N   1.51486973847772     -0.85577726333252      0.17349859700728
  O   1.72073586161920     -0.58807114809495      1.35136104511094
  O   1.85315258190811     -1.87196864571006     -0.42054867377206
  C   1.34873396875250      1.46370591305051     -0.51912456719656
  N   1.89445284818900      2.50196138140285     -0.47698669525816
