15
Coordinates from ORCA-job run
  C   -0.71641386991567     -0.30892037780409      0.06782542696929
  C   0.69852992495548     -0.05241466737480     -0.54010836739269
  Cl  -0.79490723772607     -2.12364620868177      0.30579776932528
  H   0.77371834269328     -0.51600009792028     -1.52550016082752
  N   -1.00441223649850      0.29508819276757      1.32345091368874
  H   -0.34807019116063      0.00682548020327      2.03637535806669
  H   -0.98540484780376      1.30463600272548      1.22675148356831
  N   -1.64580517132402      0.18951651560438     -0.87611076695711
  H   -1.61702797435408     -0.31336636569029     -1.75352761237685
  H   -2.57855286372474      0.14094694249230     -0.48343465593247
  N   1.78360209967724     -0.69167554518875      0.28613473090064
  O   2.46728635784765     -1.54249013783350     -0.26897594113590
  O   1.88553709246054     -0.30947712659649      1.44777297368626
  C   0.94798621695180      1.38078720598805     -0.60779453451766
  N   1.13293435792148      2.54019018730891     -0.63665661706500
