15
Coordinates from ORCA-job run
  C   -0.71398110055758     -0.01287976312702     -0.00158437065163
  C   0.67789468011773      0.20285895030519     -0.62574478913464
  Cl  -1.81880673720461      1.00198137042706     -1.21631971655307
  H   0.65135469374838     -0.06573455099918     -1.68187439988237
  N   -1.04913178008642     -1.37600735975128     -0.03703137228476
  H   -1.94706509685085     -1.55907691127140      0.39208124886785
  H   -1.04464725175314     -1.74788076050752     -0.97742050916945
  N   -0.78311953810519      0.50319875944574      1.29679126679860
  H   -0.60413859454918      1.49783314990673      1.33258453495925
  H   -1.66245945918496      0.29632775420196      1.75160484329170
  N   1.65531650708651     -0.75814778067828      0.02139940618036
  O   1.84507301149958     -1.79928077721135     -0.59801263763141
  O   2.14466106070860     -0.43045653932777      1.09268756397775
  C   1.14432467072686      1.56969080120686     -0.45091388925018
  N   1.50472493440426      2.67657365738024     -0.29724717951801
