15
Coordinates from ORCA-job run
  C   -0.75457987994209     -0.42567544189465      0.09045799195624
  C   0.67149515766795     -0.10538701759987     -0.50590892559716
  Cl  -0.76856350673509     -2.21645919322113      0.25608104085103
  H   0.78311217224168     -0.59304847110361     -1.47561440096759
  N   -1.02814132177985      0.15516234789836      1.36075862020515
  H   -1.09130204262746      1.16492517622235      1.29364315303231
  H   -0.31053596099839     -0.08177567183477      2.03315763566118
  N   -1.77120284055513     -0.03618455513450     -0.83037931171771
  H   -1.58193065722699     -0.32470892553738     -1.78017032448071
  H   -1.97543852505364      0.95325331896006     -0.78516448151228
  N   1.79330281110531     -0.64509467553183      0.34064861511338
  O   2.49666654636543     -1.50993596527677     -0.16735470151470
  O   1.89572189916402     -0.18975394376215      1.47695388512318
  C   0.80764128650456      1.33970858519568     -0.61590771604905
  N   0.83375486186969      2.51197443262022     -0.68920108010327
