15
Coordinates from ORCA-job run
  C   -0.80643102449825      0.13563355325749     -0.11922965295963
  C   0.68266666399481      0.18788666229694     -0.59400438799561
  Cl  -1.66350787589596      1.31238994785917     -1.16373917087101
  H   0.76416252950436     -0.31437996818263     -1.56282971596872
  N   -1.48452184615808     -1.11917932212760     -0.30135901350754
  H   -1.59881676161145     -1.34521722756584     -1.28217472323046
  H   -0.96204507481397     -1.85824678994099      0.15315111813048
  N   -0.83106905319076      0.62120981780577      1.23218848955742
  H   -1.79671052683698      0.78310336781253      1.49615085165439
  H   -0.46331918167408     -0.09158594774606      1.85563808999009
  N   1.55680430315087     -0.61957959905932      0.35702192610695
  O   2.58674972482532     -0.11044238377893      0.77306718820602
  O   1.15428813130880     -1.75028847308594      0.62591418480612
  C   1.21347990326813      1.54091736271680     -0.67563128049854
  N   1.64727008862725      2.62577899973861     -0.79116390341996
