15
Coordinates from ORCA-job run
  C   -0.64266952026529      0.03019977213149      0.18331274164816
  C   0.79277740219539     -0.02800964650915     -0.39697833841840
  Cl  -0.87902676316130      1.62549641530275      1.01430553187883
  H   0.88433069020184     -0.98937619971982     -0.90664175162019
  N   -1.52994737098826     -0.15413834611883     -0.92338838836307
  H   -1.46469799477361      0.60611487060705     -1.59242731301710
  H   -2.48571045172676     -0.20320528916229     -0.58964053461625
  N   -0.76115285770873     -0.98025008883463      1.19155471789125
  H   -0.88871516910779     -1.88616086896542      0.75539010966222
  H   -1.52754542147120     -0.78556858652516      1.82129202505552
  N   1.82676532390679     -0.05571807397779      0.69747511415794
  O   2.16035120304779      1.01603225264052      1.18657486429407
  O   2.23649991910425     -1.16934852666950      1.00259218707790
  C   1.05560351868754      1.06050690234668     -1.32595967144874
  N   1.22313749205937      1.91342541345410     -2.11546129418213
