17

C	-0.476655	-0.025553	-1.458909
C	0.0	0.0	0.0
F	-1.900801	0.23621	-1.416482
H	1.090156	0.0	0.0
N	0.178966	0.913288	-2.287563
H	0.529529	1.690262	-1.743027
H	-0.458542	1.233492	-3.005336
N	-0.347196	-1.355495	-2.00041
H	0.180553	-1.298407	-2.858592
H	-1.257947	-1.762098	-2.156022
N	-0.45874	-1.093856	0.794515
H	0.139956	-1.878807	0.572804
H	-1.41904	-1.328301	0.573558
N	-0.453982	1.282927	0.614126
O	-1.269927	1.265683	1.532069
O	0.034708	2.32223	0.155104
H	2.755035	0.0	0.0
