17

C	-0.566162	-0.065235	-1.420054
C	0.0	0.0	0.0
F	0.067753	0.884224	-2.222446
H	1.092269	0.0	0.0
N	-0.279456	-1.335212	-2.041453
H	-0.411769	-2.028824	-1.310459
H	0.719072	-1.319236	-2.237305
N	-1.983419	0.13965	-1.403467
H	-2.330131	-0.092661	-2.327993
H	-2.149398	1.123095	-1.218728
N	-0.384672	-1.170923	0.736626
H	0.29778	-1.310933	1.47358
H	-1.298541	-1.047029	1.152927
N	-0.402341	1.246158	0.707906
O	-0.452445	1.205666	1.943922
O	-0.570018	2.282402	0.051228
H	2.663346	0.0	0.0
