17

C	-0.410097	-0.184916	-1.462223
C	0.0	0.0	0.0
F	-1.820768	-0.468088	-1.483101
H	1.096379	0.0	0.0
N	-0.169725	0.915413	-2.337106
H	-0.292485	1.793824	-1.852427
H	-0.81377	0.849031	-3.115908
N	0.238233	-1.396489	-1.896765
H	0.258396	-1.379118	-2.91165
H	1.211549	-1.304636	-1.591079
N	-0.395842	-1.101802	0.812917
H	0.419383	-1.682284	0.966249
H	-1.120912	-1.643966	0.367071
N	-0.496198	1.285012	0.584542
O	-1.139909	1.277556	1.630823
O	-0.158757	2.32987	0.005355
H	2.651526	0.0	0.0
