17

C	-0.46951	-0.047343	-1.457239
C	0.0	0.0	0.0
F	-0.03659	-1.332929	-1.878265
H	1.097202	0.0	0.0
N	-1.882084	0.054653	-1.520474
H	-2.257544	-0.627557	-0.87028
H	-2.177724	-0.159649	-2.465494
N	0.14422	0.861495	-2.372636
H	1.148425	0.752833	-2.254748
H	-0.090562	1.791729	-2.049971
N	-0.537055	-1.149242	0.720839
H	0.144469	-1.888535	0.578414
H	-0.512548	-0.909754	1.705775
N	-0.395687	1.235464	0.671248
O	-0.707089	1.181073	1.871254
O	-0.276136	2.303804	0.056488
H	2.64895	0.0	0.0
