14
Coordinates from ORCA-job run
  C   -0.28416586329194      0.41155731266223     -0.28291209900180
  C   0.63624992336434     -0.72488092206608      0.17582504256654
  H   -0.02061777380859      0.66640170829888     -1.31718988377304
  H   0.35859440060324     -1.62783627608551     -0.38905846939169
  H   0.43433009112928     -0.92765782784309      1.23150746595711
  C   -0.04763912858647      1.60499632798892      0.53355592595882
  N   0.08469304282124      2.55435338805310      1.21089134349670
  C   -1.76064093512710      0.00897090037761     -0.22796954090834
  H   -2.04655947112378     -0.25526785423516      0.79265480585868
  H   -2.40366879490347      0.82502643196666     -0.56109047537407
  H   -1.93812367704213     -0.85517429185812     -0.87261212951756
  N   2.03175498839052     -0.33218962527589      0.03710790002449
  H   2.62789282371867     -0.92969224004414      0.59448682960587
  H   2.32690037385618     -0.41960703193939     -0.92719671550171
