14
Coordinates from ORCA-job run
  C   -0.37649326584764      0.32120389384549     -0.61525698834058
  C   0.75579097945849     -0.69964748199320     -0.42167449358740
  H   -0.68435424748225      0.29362292553098     -1.66734275495426
  H   0.33814368948756     -1.69419342574484     -0.60591191366054
  H   1.52736119609543     -0.51929470523313     -1.18461482053140
  C   0.14993895630140      1.66469431359310     -0.35138562778866
  N   0.60433212118632      2.72051327022807     -0.11113881016820
  C   -1.58090493536798      0.02676610152980      0.28196955436871
  H   -2.36350242344373      0.77565932431641      0.14814257406509
  H   -1.99258161532914     -0.95308163213157      0.02750416266004
  H   -1.26934871287908      0.01148395963975      1.32514866551198
  N   1.24615114773509     -0.65057479186420      0.95060811381582
  H   1.83072839797605      0.16754635558601      1.07756886268590
  H   1.81573871210947     -1.46369810730266      1.14638347592350
