13

C	0.0	0.0	0.0
C	-0.478741	0.211847	-1.418087
F	1.381975	0.0	0.0
H	-1.570089	0.312896	-1.409739
H	-0.296521	0.853482	0.617021
H	-0.149243	-0.605807	-2.05589
N	-0.481487	-1.272233	0.453451
H	-0.287567	-1.342336	1.447085
H	-1.501352	-1.235219	0.365459
N	0.096162	1.45724	-1.988427
O	0.563655	1.401243	-3.126808
O	0.048908	2.477143	-1.303415
Cl	-3.567844	0.0	0.0
