13

C	0.0	0.0	0.0
C	-0.464869	0.23471	-1.426975
F	1.403646	0.0	0.0
H	-1.565501	0.30444	-1.413563
H	-0.324466	0.87822	0.562205
H	-0.044429	1.159069	-1.837646
N	-0.483157	-1.148915	0.685994
H	-0.360545	-1.962047	0.097933
H	-1.482873	-1.008023	0.826684
N	-0.101964	-0.840167	-2.402491
O	-0.349072	-0.592144	-3.574233
O	0.396692	-1.88355	-2.013653
Cl	-3.545919	0.0	0.0
