13

C	0.0	0.0	0.0
C	-0.456347	0.19651	-1.426246
F	1.406894	0.0	0.0
H	-0.178489	-0.652968	-2.048368
H	-0.345855	0.81594	0.630853
H	-1.542979	0.343674	-1.406785
N	-0.478549	-1.246829	0.459634
H	0.1093	-2.000186	0.134609
H	-0.616438	-1.283645	1.455919
N	0.201708	1.385682	-2.024987
O	0.155116	2.436605	-1.388389
O	0.74947	1.255284	-3.120745
Cl	-3.656039	0.0	0.0
