13

C	0.0	0.0	0.0
C	-0.476458	0.182343	-1.421965
F	1.381798	0.0	0.0
H	-0.095324	-0.619786	-2.049818
H	-0.296836	0.861523	0.605127
H	-1.571241	0.224316	-1.433398
N	-0.475113	-1.268483	0.472348
H	-1.497347	-1.217035	0.443849
H	-0.21259	-1.35734	1.447448
N	0.033447	1.452368	-2.002067
O	0.009914	2.460098	-1.299669
O	0.424245	1.424468	-3.170089
Cl	-3.558699	0.0	0.0
