13

C	0.0	0.0	0.0
C	-0.423691	-0.080833	-1.468263
F	1.405276	0.0	0.0
H	-0.143176	0.82068	-2.009138
H	-0.336636	0.969001	0.37608
H	-1.504057	-0.247121	-1.493825
N	-0.462606	-1.011203	0.883485
H	-0.359312	-1.912958	0.434403
H	-1.463034	-0.851402	1.004393
N	0.261129	-1.195605	-2.164623
O	0.984729	-0.92441	-3.123518
O	0.068852	-2.337377	-1.743575
Cl	-3.519785	0.0	0.0
