17

C	0.0	0.0	0.0
C	-0.609652	-0.113998	-1.394153
F	1.349767	0.0	0.0
H	-1.697082	0.081829	-1.297902
N	-0.300251	1.460258	0.500535
O	0.6776	2.159986	0.744796
O	-1.471153	1.765252	0.635356
C	-0.603066	-0.953261	0.983377
H	-1.687081	-0.799813	0.991731
H	-0.17796	-0.752003	1.969282
H	-0.37742	-1.981765	0.697385
C	-0.347761	-1.430911	-1.957603
N	-0.166056	-2.500991	-2.405715
N	0.00517	0.938092	-2.287457
O	-0.526002	2.042916	-2.265432
O	0.997107	0.619092	-2.935316
Br	-4.036545	0.0	0.0
