12

C	-0.569789	-0.023718	-1.405202
C	0.0	0.0	0.0
F	-0.149771	-1.147648	-2.09836
H	1.097956	0.0	0.0
H	-1.662038	-0.057076	-1.344642
H	-0.349167	-0.912045	0.492604
C	-0.212653	1.180687	-2.17662
N	0.009543	2.15065	-2.797914
N	-0.574556	1.176908	0.673581
H	0.06577	1.950272	0.524878
H	-0.5662	1.008025	1.67219
Br	3.652949	0.0	0.0
