12

C	-0.473069	0.007142	-1.434675
C	0.0	0.0	0.0
F	-0.1636	1.225996	-2.028766
H	1.100331	0.0	0.0
H	0.038172	-0.773276	-2.005455
H	-0.337642	-0.93665	0.456327
C	-1.932594	-0.186259	-1.54617
N	-3.083053	-0.388356	-1.656444
N	-0.609729	1.128282	0.708921
H	-0.157339	1.968691	0.366586
H	-0.34693	1.055411	1.685021
Br	3.660471	0.0	0.0
