12

C	-0.413294	0.02378	-1.474099
C	0.0	0.0	0.0
F	-0.159263	1.266677	-2.030712
H	1.093014	0.0	0.0
H	0.163086	-0.718637	-2.033994
H	-0.378941	0.91164	0.469611
C	-1.853011	-0.263507	-1.638508
N	-2.998765	-0.505597	-1.723359
N	-0.445496	-1.17834	0.724501
H	0.142906	-1.968613	0.49828
H	-1.413683	-1.410382	0.540697
Br	3.621615	0.0	0.0
