12

C	-0.465785	-0.005368	-1.438972
C	0.0	0.0	0.0
F	-1.799144	0.393794	-1.544052
H	1.100634	0.0	0.0
H	0.133384	0.697962	-2.023877
H	-0.336664	0.951658	0.42173
C	-0.35919	-1.341367	-2.050543
N	-0.291492	-2.402705	-2.54545
N	-0.599981	-1.111348	0.746748
H	0.035157	-1.899455	0.681797
H	-0.626289	-0.859516	1.726646
Br	3.630161	0.0	0.0
