12

C	-0.515179	0.035362	-1.43403
C	0.0	0.0	0.0
F	-0.102651	-1.076214	-2.146981
H	1.092522	0.0	0.0
H	-1.613499	0.020222	-1.435977
H	-0.349349	-0.93726	0.444154
C	-0.097152	1.257555	-2.14551
N	0.210355	2.23306	-2.72052
N	-0.4593	1.141824	0.781529
H	0.16449	1.923073	0.629161
H	-1.399129	1.425979	0.534948
Br	3.632447	0.0	0.0
