12

C	-0.442444	0.008431	-1.451258
C	0.0	0.0	0.0
F	-1.832291	0.209853	-1.527939
H	1.093675	0.0	0.0
H	0.035198	0.825199	-1.999502
H	-0.333899	0.949826	0.431444
C	-0.163174	-1.267181	-2.130995
N	0.039551	-2.28087	-2.686536
N	-0.513953	-1.108455	0.785554
H	-1.480947	-1.295942	0.547784
H	0.034618	-1.93928	0.600414
Br	3.60573	0.0	0.0
