18
Coordinates from ORCA-job run
  C   -0.76133046740424      0.11739225807132      0.14875010210432
  C   0.61986742187324      0.11995893847800      0.83025950875910
  F   -1.68795361235593      0.18148627033474      1.20230242511594
  H   0.63189408933989      1.00251087846914      1.48116386214732
  C   -0.97048143349173      1.36282981324446     -0.69120983273498
  H   -0.71529068695711      2.26030814006490     -0.12243048122396
  H   -2.02412902857424      1.42374382231064     -0.97019043704025
  H   -0.37532429597533      1.33853752855409     -1.60523183734916
  C   -1.05500417003784     -1.15394671599891     -0.62092544242774
  H   -0.97178476771377     -2.02488957048824      0.03119102218559
  H   -0.37473752030548     -1.27548140213179     -1.46605983423808
  H   -2.07570791360397     -1.10994169216763     -1.00601480734208
  C   1.80353393889337      0.19146257121852     -0.14015438626774
  H   2.74240665115784      0.18388599392580      0.41580944801207
  H   1.76615606774762      1.11000133845234     -0.72693136575094
  H   1.80991474038108     -0.66305643484961     -0.81866968073459
  C   0.75212439554949     -1.05444515381067      1.69733492744350
  N   0.88484659147714     -2.01235658367707      2.36300680934164
