18
Coordinates from ORCA-job run
  C   -0.75900641273120      0.11325220988310      0.15731272720833
  C   0.62816710241885      0.10855045849682      0.82694124716474
  F   -1.67673740318439      0.15939803801341      1.21946241611577
  H   0.64386893198452      0.98137935388371      1.49070962782566
  C   -0.97732479001672      1.37127179648594     -0.66150549700047
  H   -0.39184061417334      1.36101320192802     -1.58201720026483
  H   -2.03391747737168      1.43562664840751     -0.92833439175050
  H   -0.71665871005736      2.26032661493580     -0.08208803669422
  C   -1.05705469702949     -1.14646096220481     -0.62957901385544
  H   -0.96685235489413     -2.02736784753951      0.00802166242691
  H   -2.08112975163466     -1.09811214645148     -1.00507411084298
  H   -0.38398524583931     -1.25336627893915     -1.48240986369492
  C   1.80284218625813      0.19810556002912     -0.15293790903311
  H   2.74694779691144      0.18344348045139      0.39395004572719
  H   1.80449278235935     -0.64522451880465     -0.84532663237671
  H   1.75835464615996      1.12590039633090     -0.72443901837558
  C   0.76932822971412     -1.07901594442889      1.67434910021441
  N   0.89050578112592     -2.05072006047722      2.32196484720574
