19

C	-0.550463	0.012871	-1.430103
C	0.0	0.0	0.0
Br	0.365141	-1.324944	-2.523775
H	1.094842	0.0	0.0
C	-2.044477	-0.190459	-1.531734
H	-2.374932	-0.085158	-2.56239
H	-2.301299	-1.187801	-1.175663
H	-2.530121	0.562038	-0.907108
N	-0.199279	1.349895	-2.089474
O	0.768884	1.959939	-1.655456
O	-0.900432	1.712413	-3.032992
C	-0.453061	-1.240558	0.757997
H	0.105565	-1.2868	1.696151
H	-0.234479	-2.153978	0.203708
H	-1.523109	-1.203737	0.98721
N	-0.53774	1.20423	0.660552
H	-0.68249	0.995324	1.641563
H	0.182178	1.916925	0.614244
Cl	3.513916	0.0	0.0
