19

C	-0.549599	0.004316	-1.430497
C	0.0	0.0	0.0
Br	0.365291	-1.340254	-2.516251
H	1.094836	0.0	0.0
C	-2.043688	-0.198743	-1.532374
H	-2.529493	0.558954	-0.914259
H	-2.372853	-0.100593	-2.564095
H	-2.301955	-1.193196	-1.169271
N	-0.196554	1.337565	-2.096456
O	0.774956	1.945977	-1.668042
O	-0.899141	1.698426	-3.039792
C	-0.453645	-1.235632	0.765518
H	-1.524304	-1.198162	0.992194
H	0.102888	-1.274992	1.705237
H	-0.233543	-2.152683	0.217835
N	-0.53654	1.209004	0.65211
H	0.186562	1.918751	0.609069
H	-0.693245	1.005562	1.632411
Cl	3.509877	0.0	0.0
