19

C	-0.411142	-0.008389	-1.475218
C	0.0	0.0	0.0
Br	0.38712	1.53212	-2.37851
H	1.102067	0.0	0.0
C	0.038573	-1.2541	-2.212445
H	-0.479665	-2.128118	-1.820837
H	1.116275	-1.358078	-2.063198
H	-0.175646	-1.164036	-3.27914
N	-1.931774	0.131788	-1.562272
O	-2.445561	1.225699	-1.745025
O	-2.554482	-0.915989	-1.375344
C	-0.455853	-1.236528	0.765206
H	-0.055633	-1.160494	1.78066
H	-1.544	-1.302832	0.818827
H	-0.048132	-2.152123	0.336981
N	-0.569587	1.181774	0.6604
H	-0.139066	2.006269	0.251998
H	-0.244976	1.156245	1.622018
Cl	3.45521	0.0	0.0
