19

C	-0.365161	-0.012954	-1.487147
C	0.0	0.0	0.0
Br	-0.015693	1.726474	-2.303584
H	1.09653	0.0	0.0
C	0.407011	-1.063797	-2.257385
H	1.46488	-0.938071	-2.01298
H	0.247436	-0.960819	-3.32865
H	0.082349	-2.061989	-1.957316
N	-1.864931	-0.223022	-1.688479
O	-2.234166	-0.829985	-2.69154
O	-2.623827	0.236031	-0.836442
C	-0.435096	-1.301608	0.687389
H	-0.040804	-1.28108	1.705932
H	-0.026321	-2.19219	0.205914
H	-1.525039	-1.386322	0.741961
N	-0.438457	1.197557	0.694991
H	-1.368022	1.073564	1.073151
H	0.214068	1.383043	1.445379
Cl	3.436576	0.0	0.0
