19

C	-0.344901	0.08151	-1.507454
C	0.0	0.0	0.0
Br	-2.257288	0.493535	-1.796756
H	1.096084	0.0	0.0
C	0.494449	1.117223	-2.220727
H	0.230751	2.103002	-1.841842
H	1.545335	0.915412	-2.004496
H	0.319404	1.093872	-3.29666
N	-0.109772	-1.283383	-2.145002
O	-0.981232	-2.142608	-2.048637
O	0.993146	-1.443781	-2.661673
C	-0.548999	-1.221697	0.712632
H	-0.272348	-1.12609	1.76309
H	-0.124366	-2.149109	0.326885
H	-1.639216	-1.275873	0.637163
N	-0.363612	1.216211	0.719607
H	0.34545	1.921817	0.571368
H	-1.265309	1.572633	0.428323
Cl	3.407108	0.0	0.0
