19

C	-0.562622	0.011821	-1.424736
C	0.0	0.0	0.0
Br	0.352615	-1.312911	-2.535018
H	1.094852	0.0	0.0
C	-2.056039	-0.201059	-1.512177
H	-2.302223	-1.201545	-1.158063
H	-2.397835	-0.093483	-2.538484
H	-2.540639	0.545751	-0.87969
N	-0.227531	1.354755	-2.079386
O	0.755132	1.954855	-1.667406
O	-0.955016	1.73209	-2.996212
C	-0.446558	-1.240649	0.761994
H	-1.515262	-1.206355	0.998238
H	0.118307	-1.28476	1.696567
H	-0.229771	-2.154212	0.206995
N	-0.534648	1.204681	0.662605
H	-0.687216	0.994467	1.642351
H	0.18841	1.914402	0.621789
Cl	3.509202	0.0	0.0
