19

C	-0.404422	0.052447	-1.482166
C	0.0	0.0	0.0
Br	-2.327642	0.433939	-1.676625
H	1.095516	0.0	0.0
C	0.380504	1.102751	-2.229342
H	1.443988	0.907142	-2.081712
H	0.132225	2.067769	-1.791865
H	0.136208	1.096447	-3.293009
N	-0.172865	-1.320382	-2.107404
O	0.899662	-1.472004	-2.688803
O	-1.0176	-2.196185	-1.939665
C	-0.502724	-1.210897	0.771202
H	-0.172551	-1.104273	1.807588
H	-0.090133	-2.145368	0.389797
H	-1.595126	-1.276563	0.747964
N	-0.378186	1.281534	0.599421
H	-1.238423	1.182946	1.125582
H	0.361965	1.556372	1.233894
Cl	3.404613	0.0	0.0
