19

C	-0.567964	0.013702	-1.421927
C	0.0	0.0	0.0
Br	0.340937	-1.318607	-2.526385
H	1.094834	0.0	0.0
C	-2.063062	-0.196145	-1.501215
H	-2.309886	-1.195765	-1.144515
H	-2.411157	-0.088575	-2.525855
H	-2.541662	0.551206	-0.864984
N	-0.232982	1.352141	-2.086992
O	0.726726	1.977383	-1.654135
O	-0.937842	1.700412	-3.033988
C	-0.441207	-1.245707	0.758467
H	0.134994	-1.297431	1.68594
H	-1.506993	-1.210297	1.007171
H	-0.231816	-2.155932	0.195104
N	-0.536563	1.198167	0.673691
H	0.173757	1.91894	0.608268
H	-0.648723	0.986095	1.658522
Cl	3.501778	0.0	0.0
