19

C	-0.565909	-0.00642	-1.423849
C	0.0	0.0	0.0
Br	0.336522	-1.350882	-2.521279
H	1.094834	0.0	0.0
C	-2.06121	-0.21485	-1.501713
H	-2.406762	-0.119246	-2.528409
H	-2.539992	0.542213	-0.876894
H	-2.310321	-1.209596	-1.132853
N	-0.231	1.325893	-2.101287
O	0.745605	1.940997	-1.691868
O	-0.952787	1.679543	-3.033351
C	-0.444066	-1.231964	0.778014
H	0.125028	-1.265905	1.710623
H	-1.511825	-1.194727	1.018454
H	-0.229882	-2.151831	0.232633
N	-0.53301	1.212262	0.649713
H	-0.677672	1.01407	1.63327
H	0.188364	1.922449	0.594671
Cl	3.50736	0.0	0.0
