19

C	-0.344352	0.07837	-1.506352
C	0.0	0.0	0.0
Br	-2.26489	0.458848	-1.797322
H	1.096164	0.0	0.0
C	0.475926	1.133023	-2.215745
H	0.191837	2.11513	-1.83742
H	0.303742	1.106737	-3.292586
H	1.531456	0.951014	-1.995979
N	-0.085021	-1.279661	-2.153323
O	-0.931652	-2.160987	-2.037439
O	1.005752	-1.411366	-2.702632
C	-0.545264	-1.22006	0.719063
H	-1.636032	-1.27316	0.651947
H	-0.1247	-2.148815	0.333191
H	-0.260714	-1.12105	1.766929
N	-0.368257	1.217685	0.715065
H	0.338283	1.926047	0.565693
H	-1.270444	1.570237	0.420145
Cl	3.40886	0.0	0.0
