12

C	-0.553415	0.047888	-1.413598
C	0.0	0.0	0.0
Cl	0.096806	1.440338	-2.324598
H	1.094008	0.0	0.0
H	-1.64146	0.155778	-1.420639
H	-0.260738	-0.850469	-1.957187
C	-0.459174	-1.243312	0.611125
N	-0.85732	-2.22791	1.11891
N	-0.402635	1.173799	0.783538
H	0.42942	1.486442	1.270719
H	-1.111573	0.945117	1.469549
F	2.56753	0.0	0.0
