12

C	-0.534737	0.061958	-1.421196
C	0.0	0.0	0.0
Cl	-0.422544	-1.496853	-2.299275
H	1.099551	0.0	0.0
H	-1.580852	0.36536	-1.441451
H	0.076912	0.782655	-1.96202
C	-0.558388	-1.103487	0.768216
N	-1.012637	-1.9566	1.440992
N	-0.306563	1.3124	0.611935
H	0.55104	1.618816	1.060164
H	-1.040951	1.242827	1.303921
F	2.577607	0.0	0.0
