12

C	-0.538322	0.022442	-1.417355
C	0.0	0.0	0.0
Cl	0.02818	1.470039	-2.316484
H	1.100971	0.0	0.0
H	-0.171789	-0.845785	-1.963158
H	-1.630034	0.062878	-1.430449
C	-0.487737	-1.22977	0.61273
N	-0.865781	-2.23225	1.099063
N	-0.529454	1.158755	0.762117
H	-0.023899	1.954809	0.377946
H	-0.150431	1.059012	1.699085
F	2.590795	0.0	0.0
