12

C	-0.333769	-0.064537	-1.460308
C	0.0	0.0	0.0
Cl	-2.11255	0.022115	-1.819354
H	1.103862	0.0	0.0
H	0.030732	-0.990199	-1.904441
H	0.121648	0.797468	-1.943162
C	-0.497099	-1.162211	0.731087
N	-0.873991	-2.09731	1.338351
N	-0.3985	1.277691	0.586556
H	0.288548	1.508748	1.294744
H	-1.314509	1.227045	1.01548
F	2.557648	0.0	0.0
