15

C	-0.579865	0.010615	-1.397485
C	0.0	0.0	0.0
Br	0.106494	-1.435819	-2.484791
H	1.092027	0.0	0.0
H	-0.330561	0.932408	0.4753
N	-2.127624	-0.23743	-1.216741
O	-2.685472	-1.24749	-1.615419
O	-2.690157	0.693033	-0.631903
N	-0.357536	1.2376	-2.060153
H	-0.806256	1.275948	-2.965257
H	-0.650291	2.008603	-1.47555
N	-0.466906	-1.178764	0.728789
H	-1.022813	-0.908431	1.527784
H	0.357422	-1.660402	1.070407
H	2.905978	0.0	0.0
