15

C	-0.630869	-0.001194	-1.374286
C	0.0	0.0	0.0
Br	0.334965	1.349222	-2.533145
H	1.091443	0.0	0.0
H	-0.36348	-0.894797	0.511929
N	-0.432197	-1.314604	-2.109157
O	0.262524	-2.171645	-1.576848
O	-1.027408	-1.434012	-3.177569
N	-2.012608	0.230554	-1.319611
H	-2.14371	0.993749	-0.661268
H	-2.398607	0.436517	-2.23074
N	-0.487809	1.212318	0.697437
H	-0.566073	0.987738	1.681549
H	0.269271	1.888304	0.631401
H	2.908253	0.0	0.0
