15

C	-0.227291	0.043195	-1.499549
C	0.0	0.0	0.0
Br	-0.447098	-1.967928	-2.166146
H	1.092987	0.0	0.0
H	-0.420294	-0.895486	0.454862
N	-1.59697	0.565462	-1.914337
O	-2.532543	0.342442	-1.155525
O	-1.671613	1.171164	-2.979897
N	0.771009	0.724737	-2.114844
H	0.732174	0.788057	-3.119364
H	1.694713	0.546498	-1.687684
N	-0.438634	1.264443	0.578955
H	0.309827	1.61913	1.161418
H	-1.270073	1.136417	1.137658
H	2.880339	0.0	0.0
