16

C	0.0	0.0	0.0
C	-0.492976	0.023698	-1.467691
Br	1.932538	0.0	0.0
H	-1.574398	0.215499	-1.323473
N	-0.443628	1.289689	0.698502
O	-0.534243	2.296224	0.005876
O	-0.562054	1.243555	1.909994
C	-0.483077	-1.116939	0.80161
N	-0.653575	-2.067446	1.473451
N	-0.401516	-1.332321	-2.101117
O	-0.944235	-1.403985	-3.204581
O	0.193293	-2.254167	-1.550964
N	0.281388	0.88951	-2.345295
H	0.260708	1.810668	-1.923932
H	-0.253579	0.946641	-3.206168
F	-2.481938	0.0	0.0
