14

C	-0.323206	0.130937	-1.473254
C	0.0	0.0	0.0
F	-1.647384	0.43541	-1.719497
H	1.093994	0.0	0.0
H	-0.380965	-0.935206	0.404973
N	0.510746	1.050267	-2.093571
H	1.464322	0.973021	-1.74312
H	0.481808	0.962101	-3.100306
N	-0.24726	-1.293304	-2.140276
O	0.071752	-1.311194	-3.326249
O	-0.581304	-2.269924	-1.479068
C	-0.519603	1.136228	0.745006
N	-0.93497	2.045981	1.358918
Cl	3.284525	0.0	0.0
