14

C	-0.531767	0.016208	-1.414809
C	0.0	0.0	0.0
F	0.01522	-1.063618	-2.084999
H	1.089935	0.0	0.0
H	-0.307897	-0.95684	0.436747
N	-1.937674	0.053446	-1.506461
H	-2.344726	-0.70743	-0.980216
H	-2.215974	0.006585	-2.478881
N	-0.041361	1.22547	-2.20574
O	-0.477593	1.299186	-3.353771
O	0.733075	2.002275	-1.667567
C	-0.541369	1.088585	0.803132
N	-0.973055	1.949888	1.473206
Cl	3.31984	0.0	0.0
