14

C	-0.364408	0.154262	-1.471517
C	0.0	0.0	0.0
F	-1.708548	0.376813	-1.615295
H	1.092311	0.0	0.0
H	-0.397522	-0.927106	0.414281
N	0.34548	1.139154	-2.198862
H	0.161246	2.037942	-1.764926
H	1.342458	0.947041	-2.112143
N	-0.107895	-1.211082	-2.130741
O	0.822917	-1.31036	-2.918825
O	-0.875137	-2.106611	-1.790391
C	-0.49372	1.147848	0.745637
N	-0.893472	2.086963	1.325161
Cl	3.27647	0.0	0.0
