14

C	-0.332084	0.175558	-1.46552
C	0.0	0.0	0.0
F	-1.658233	0.487606	-1.692503
H	1.09774	0.0	0.0
H	-0.38112	-0.945633	0.37908
N	0.495786	1.11564	-2.062315
H	1.454281	1.02524	-1.728231
H	0.451734	1.065319	-3.070992
N	-0.26326	-1.227304	-2.177538
O	-0.60846	-2.221678	-1.548208
O	0.056744	-1.210157	-3.363425
C	-0.512334	1.114241	0.782561
N	-0.930902	1.993166	1.437621
Cl	3.28218	0.0	0.0
