14

C	-0.326271	0.072539	-1.476468
C	0.0	0.0	0.0
F	-1.651901	0.366268	-1.730221
H	1.090769	0.0	0.0
H	-0.382262	-0.917745	0.442201
N	0.505616	0.96806	-2.13382
H	1.460246	0.904622	-1.782593
H	0.476424	0.838989	-3.136065
N	-0.253157	-1.377438	-2.084712
O	0.105671	-1.452112	-3.25696
O	-0.632082	-2.318042	-1.395511
C	-0.521267	1.163256	0.701377
N	-0.958639	2.079125	1.290372
Cl	3.284037	0.0	0.0
