14

C	-0.344312	0.153594	-1.464328
C	0.0	0.0	0.0
F	-1.679626	0.429529	-1.683711
H	1.091831	0.0	0.0
H	-0.375562	-0.942504	0.393516
N	0.455087	1.110409	-2.075646
H	1.416559	1.044977	-1.745946
H	0.407215	1.045968	-3.083504
N	-0.241864	-1.250442	-2.166597
O	0.021468	-1.226164	-3.366216
O	-0.504669	-2.255866	-1.51633
C	-0.52044	1.119831	0.769758
N	-0.955973	1.998668	1.414051
Cl	3.281307	0.0	0.0
