14

C	-0.307147	0.216792	-1.468703
C	0.0	0.0	0.0
F	-1.624509	0.542922	-1.714847
H	1.092972	0.0	0.0
H	-0.387845	-0.956105	0.344046
N	0.544475	1.158408	-2.024821
H	0.543671	1.123439	-3.034121
H	1.488828	1.059575	-1.656967
N	-0.229287	-1.177503	-2.200717
O	0.256352	-1.177588	-3.328742
O	-0.721351	-2.148945	-1.637665
C	-0.52232	1.088454	0.809807
N	-0.954924	1.940843	1.490981
Cl	3.287252	0.0	0.0
