14

C	-0.305061	0.141089	-1.475646
C	0.0	0.0	0.0
F	-0.278398	1.482437	-1.838243
H	1.096825	0.0	0.0
H	-0.330668	-0.979712	0.347031
N	0.54811	-0.669755	-2.224012
H	1.509768	-0.575808	-1.896763
H	0.463166	-0.479495	-3.213808
N	-1.739114	-0.259571	-1.840303
O	-2.499221	-0.613302	-0.943901
O	-2.018085	-0.194976	-3.034882
C	-0.575904	1.050964	0.8214
N	-1.047765	1.883687	1.500479
Cl	3.302956	0.0	0.0
