18

C	0.0	0.0	0.0
C	-0.597082	0.218278	-1.448162
Cl	1.737481	0.0	0.0
H	-1.40744	0.906286	-1.230727
N	-0.365766	1.17263	0.922773
O	-0.136449	1.028641	2.116255
O	-0.715644	2.212583	0.384624
N	-0.421527	-1.320585	0.648795
O	-1.075944	-1.340169	1.671564
O	-0.002148	-2.306266	0.04272
N	-1.265024	-0.918131	-2.034646
H	-2.080701	-1.002016	-1.414213
H	-0.694605	-1.751599	-1.976722
C	0.39676	0.844245	-2.414411
H	-0.176274	1.109602	-3.305139
H	1.188998	0.15265	-2.713386
H	0.851256	1.750689	-2.008129
F	-2.617179	0.0	0.0
