18

C	0.0	0.0	0.0
C	-0.244998	-0.012186	-1.576191
Cl	1.744237	0.0	0.0
H	0.465997	-0.783164	-1.883783
N	-0.454383	1.234838	0.751599
O	-0.85975	2.188211	0.105659
O	-0.249601	1.23625	1.959472
N	-0.473829	-1.29284	0.637538
O	-0.430974	-2.257998	-0.120666
O	-0.714225	-1.340728	1.828987
N	0.291732	1.247451	-2.113697
H	0.495965	1.089151	-3.093783
H	-0.442002	1.943291	-2.056796
C	-1.562078	-0.397407	-2.232873
H	-1.336784	-0.470223	-3.310361
H	-2.32491	0.347745	-2.040982
H	-1.938007	-1.349275	-1.871857
F	-2.315867	0.0	0.0
