18

C	0.0	0.0	0.0
C	-0.327537	-0.012258	-1.595337
Cl	1.747698	0.0	0.0
H	0.561788	0.481943	-1.989312
N	-0.426431	1.34422	0.600992
O	-0.126652	2.294132	-0.119701
O	-0.948253	1.422587	1.694196
N	-0.423319	-1.141599	0.916214
O	-0.905713	-2.150614	0.431698
O	-0.125845	-0.993286	2.097661
N	-1.458942	0.701577	-2.105892
H	-1.281004	1.689417	-1.979305
H	-2.217778	0.446261	-1.431303
C	-0.352615	-1.43632	-2.141448
H	-1.315637	-1.883378	-1.913916
H	0.436725	-2.073951	-1.741076
H	-0.241419	-1.357734	-3.224994
F	-2.497439	0.0	0.0
