13
Coordinates from ORCA-job run
  C   0.80585708890305     -0.49539420318817     -0.07809147715578
  C   -0.70595380437172     -0.19158920677499     -0.13925143897761
  H   0.93688343605033     -1.41541570881771      0.50110716929584
  H   -1.22629059216007     -1.02952883504172     -0.61567463690280
  C   1.52111749653421      0.58887267167295      0.60197467284518
  N   2.07868437375343      1.45981488590076      1.15817773104945
  C   1.31279609473796     -0.70166288056677     -1.43776353369999
  N   1.69080118037065     -0.88748774422948     -2.53379853453049
  C   -0.99210245171337      1.04904145078061     -0.84437601642671
  N   -1.18534909491994      2.04068429227342     -1.44389392993207
  N   -1.26916350381291     -0.13354279853710      1.27994470751617
  O   -2.25322580522863      0.56909023775044      1.44953984590638
  O   -0.71605441814297     -0.85388216122224      2.10110544101243
