13
Coordinates from ORCA-job run
  C   0.75119579524538     -0.53917909059358     -0.20932514779124
  C   -0.72565060211485     -0.09708928122077     -0.13349139556905
  H   0.81122820621090     -1.55783266077239      0.18827877383568
  H   -1.34007850897671     -0.78667936488324     -0.72252512457205
  C   1.59098323563668      0.33340845389435      0.61663925191347
  N   2.24087418862377      1.03634802116749      1.29646996075122
  C   1.18519348177834     -0.53956327142185     -1.60892504486210
  N   1.49896973885398     -0.55959005886983     -2.74044315413270
  C   -0.91886965306204      1.27064322485223     -0.59104686374339
  N   -1.04280619433537      2.36499796618106     -0.99994909130874
  N   -1.22217567828727     -0.25437436099966      1.30278953292359
  O   -2.07187618256215      0.53521225006218      1.68379974256049
  O   -0.75798782701066     -1.20530182739599      1.91872855999481
