13
Coordinates from ORCA-job run
  C   0.85071935471682     -0.02669809095124      0.25381666344934
  C   -0.55683725976164      0.15861854551365     -0.35346936909646
  H   0.80473933835219      0.26893512658417      1.30789825316208
  H   -0.59163797452736     -0.18795107783584     -1.38846669949907
  C   1.80759312006901      0.82527123589303     -0.45679037396533
  N   2.55381974011912      1.52060077958031     -1.03873488501594
  C   1.24105380098741     -1.43800614658087      0.17487681791160
  N   1.52728841559619     -2.57462939616503      0.10315106229543
  C   -0.99774411435182      1.54401667702652     -0.24876514730709
  N   -1.34286588520879      2.66338799981941     -0.15588561396824
  N   -1.53206522932787     -0.71648872649431      0.41829707215047
  O   -1.39593601128784     -0.73156191317715      1.63502996458912
  O   -2.36912729537543     -1.30549501321265     -0.25095774470591
