13
Coordinates from ORCA-job run
  C   0.74180491028549     -0.56553142571358     -0.16220696163176
  C   -0.70945445813743     -0.04392200169020     -0.22552276898422
  H   0.70140075987376     -1.61298816348392      0.15494813380027
  H   -1.28148541915851     -0.65352804896360     -0.93342093007201
  C   1.51679548824192      0.19050227829422      0.82615738873025
  N   2.11784364626655      0.79823016598385      1.63129474567238
  C   1.34555409847638     -0.48609137517073     -1.49492794522030
  N   1.79858266422359     -0.43733734949899     -2.57727446792583
  C   -0.77863521839942      1.36148146786238     -0.59583497598155
  N   -0.79993745736564      2.48623113313278     -0.93474143185567
  N   -1.38115507185708     -0.27540065958336      1.12681264649953
  O   -2.21368263299930      0.54469137405096      1.48076358824234
  O   -1.05763130945033     -1.30633739521980      1.70295297872656
