13
Coordinates from ORCA-job run
  C   -0.31960976520675      0.34497024538645     -0.50012765897446
  C   0.50188221513159     -0.93738035554765     -0.62508717468437
  H   -0.91314475732815      0.48307200082417     -1.40625006921696
  H   -0.15921180118190     -1.78922572252128     -0.79253072160637
  H   1.16977111121124     -0.83320300399223     -1.48306797180984
  N   0.48811373839737      1.47389726698897     -0.24829472803442
  H   0.98242590844316      1.38920392506433      0.63174052345116
  H   -0.05578952356787      2.32581622575906     -0.23061211901091
  N   -1.38750681983980      0.07032175775079      0.58341823014890
  O   -2.20510140651730     -0.80556849590322      0.31776813576812
  O   -1.33776059613111      0.73149248377458      1.61495316860948
  C   1.29998276026081     -1.15875870462967      0.57972631663270
  N   1.93494893632871     -1.29463762295431      1.55736406872696
