16
Coordinates from ORCA-job run
  C   -0.51240657478975      0.10789524447977      0.42594983943718
  C   0.98844235822446     -0.11089607744865      0.20248289544618
  F   -0.81112150372586     -0.47646315533791      1.63878006529842
  H   1.51081260794283      0.38520213041657      1.02813708258951
  N   -0.77261102746154      1.59769657341861      0.65277544870747
  O   0.14321910901785      2.25618954386642      1.14075008814676
  O   -1.89843795513678      2.00965614108764      0.39547889873509
  C   -1.40618299789421     -0.43351728426948     -0.64672329459208
  H   -2.44467310188117     -0.34389656347939     -0.33429290014559
  H   -1.14542236412432     -1.47840085416703     -0.80802628013533
  H   -1.26711409506518      0.12090951987025     -1.57554120845576
  C   1.39232417042172      0.54073891885321     -1.04529694050867
  N   1.71726936888373      1.05219989954066     -2.05040545605422
  N   1.22340610758412     -1.55020382247456      0.11686647910278
  H   2.17555752205297     -1.72399700912495     -0.18096668700235
  H   1.10593837595113     -1.95111320523117      1.04003196943060
