16
Coordinates from ORCA-job run
  C   -0.48924502138379      0.10439013465697      0.45528962057941
  C   0.99186235532661     -0.14618184707194      0.14778329236739
  F   -0.74350965092371     -0.52092728567659      1.65739280323298
  H   1.56807422089567      0.30314175089481      0.96438770077835
  N   -0.69078488328649      1.59041163872935      0.75470383778315
  O   0.25514495683752      2.18740405270572      1.26321835824320
  O   -1.80072994739035      2.05998172155523      0.52806762730097
  C   -1.45037351601365     -0.36804239090542     -0.59102758588021
  H   -1.33747290267045      0.21564158306893     -1.50522341619070
  H   -1.23163261267534     -1.41400345833914     -0.80092968042150
  H   -2.46958485633468     -0.25806344723860     -0.22589829587845
  C   1.35386227335046      0.54243276209821     -1.09291472707840
  N   1.64735115773341      1.08271742908809     -2.09261746976870
  N   1.18024449621293     -1.58721510072501     -0.00307954452197
  H   1.10991757487008     -2.01885094805833      0.91104738787409
  H   2.10587635545179     -1.77483659478228     -0.36819990841959
