16
Coordinates from ORCA-job run
  C   -0.55315681598205      0.12507603219107      0.49075115454604
  C   0.94772061216928     -0.15307415771411      0.31171317059212
  F   -0.90864620080568     -0.32897855344066      1.72712819950207
  H   1.42268244098986      0.23815033471501      1.21563136564451
  N   -0.69885864825494      1.64358966023077      0.56224481043399
  O   -0.09416799906949      2.18227526228487      1.48477457288032
  O   -1.37599595793801      2.20445357480153     -0.29307031891363
  C   -1.44647706421834     -0.46925212210831     -0.55576920248070
  H   -2.48116065626126     -0.19355824057691     -0.35494723363713
  H   -1.17937451300207     -0.11700660836003     -1.55183095212380
  H   -1.34816512712977     -1.55351227084859     -0.49743783459418
  C   1.45928434083024      0.59974779864436     -0.84718780316448
  N   1.87181362618010      1.13620018193171     -1.80776041135665
  N   1.17118498074516     -1.58500921138341      0.23093917342175
  H   1.13692674953318     -1.90664258337716     -0.72814173135677
  H   2.07739023221379     -1.82245909699016      0.61096304060654
