16
Coordinates from ORCA-job run
  C   -0.54919137719335      0.13353504527034      0.47490816146287
  C   0.86407431677646     -0.44539420250529      0.31463146336994
  F   -0.76947932784978      0.29977974480273      1.80900204118387
  H   0.88024522190825     -1.29218171777416      1.00958557715136
  N   -0.60114906019843      1.52334464516359     -0.14603538042979
  O   -0.11793697970994      1.61036920808863     -1.27330973132863
  O   -1.14261216327885      2.41489268349776      0.48772406029144
  C   -1.64168946398079     -0.69806460570438     -0.13938214735600
  H   -1.50317499865866     -0.77757977789868     -1.21500219499817
  H   -2.60377015177389     -0.23605429605259      0.09083364524489
  H   -1.61197055181055     -1.69874063655550      0.29460874425397
  C   1.85468521738997      0.53493122856954      0.80786138791039
  N   2.66772966649295      1.28935501267415      1.19479416583901
  N   1.10644950103356     -0.95912757260425     -1.01827371110480
  H   1.21081683240078     -0.19050931954154     -1.66849304399550
  H   1.95597331845227     -1.50955543943036     -1.02345303749486
