16
Coordinates from ORCA-job run
  C   -0.54842639166950      0.15296294965302      0.46939465080299
  C   0.83277627478036     -0.50116595698512      0.31676434241433
  F   -0.78180075622923      0.29899142775816      1.80364585307469
  H   0.78929092634235     -1.36335556630785      0.99129316182313
  N   -0.51157046317020      1.55801313556101     -0.11717288902404
  O   -1.01420752897656      2.46291329288960      0.52943673961568
  O   -0.00253883883793      1.64483787615774     -1.23302427961007
  C   -1.67518874575300     -0.60059958468233     -0.18258713912444
  H   -2.61373121155902     -0.09167734272750      0.04596580847231
  H   -1.52439838824907     -0.65989214153890     -1.25787435260250
  H   -1.70774681460009     -1.61229514510659      0.22479629332748
  C   1.86818137074561      0.41011740105095      0.84835936562695
  N   2.71164247499750      1.11152339221392      1.26853231373668
  N   1.06765440166570     -0.99681680563000     -1.02440057632436
  H   1.88546728242962     -1.59340321310717     -1.03015256966182
  H   1.22559640808346     -0.22015371919894     -1.65397672254702
