16
Coordinates from ORCA-job run
  C   -0.48683400233982      0.09029186063382      0.43496156925032
  C   1.03745112915994     -0.10068869630322      0.27607288075171
  F   -0.82988470129003     -0.54124948953986      1.60442694648337
  H   1.48325528904128      0.35780571608309      1.16557599385112
  N   -0.71689149717434      1.57426420606174      0.68462821612564
  O   -1.29300060546908      2.21978849935891     -0.18592899343642
  O   -0.26239509584071      2.00817291264862      1.73865062774289
  C   -1.34380292180159     -0.41476713165732     -0.68760249519888
  H   -1.20650923648349     -1.49335499157298     -0.77495935512034
  H   -1.08724753640337      0.06884414423685     -1.62863717906352
  H   -2.39228596487526     -0.21619382936199     -0.46564685192757
  C   1.49467835999482      0.63558479801316     -0.90610871367491
  N   1.82724410575533      1.21137091974839     -1.87351474854622
  N   1.47653678863617     -1.47763551692585      0.21006200701945
  H   1.13682941299455     -1.94112375806263     -0.62276295618682
  H   1.16185647609560     -1.98110964336072      1.02978305193019
