16
Coordinates from ORCA-job run
  C   -0.57079272697925      0.15677586573078      0.44499335671334
  C   0.84673919859004     -0.43068373483675      0.37872561499295
  F   -0.85042277243550      0.39004764555341      1.75772636813930
  H   0.82793788456743     -1.24134926940383      1.11540882721815
  N   -0.59006967819351      1.51324015589980     -0.24696108995173
  O   -1.14464937387204      2.44015086035985      0.32114153068417
  O   -0.06725398486375      1.53845875068241     -1.35955079153812
  C   -1.63660953165364     -0.70449333983164     -0.17539046634191
  H   -1.63440109730441     -1.67885064583815      0.31574470998362
  H   -2.60638837745039     -0.22748253439567     -0.02014002976906
  H   -1.44523386427085     -0.84479760350543     -1.23654277633005
  C   1.81760852875377      0.57340956926540      0.86307919617218
  N   2.62162945594681      1.35815901065726      1.20621131274795
  N   1.14908408160811     -1.01005336259888     -0.91445394773484
  H   1.99787494674544     -1.55839685976689     -0.85371501530700
  H   1.28394731081175     -0.27413450797163     -1.59627679967896
