16
Coordinates from ORCA-job run
  C   -0.48752951912164      0.17614692676824      0.52383151492952
  C   0.87350865693332     -0.47364400578692      0.23667943349667
  F   -0.55431649117365      0.39744565961810      1.86690395203052
  H   0.92595361441756     -1.29811519485769      0.95626677985653
  N   -0.55098349436588      1.54505870943852     -0.14047636067257
  O   -0.16428125541724      1.58001299226259     -1.30704157168334
  O   -1.01386452674667      2.47210659103480      0.50455987158618
  C   -1.67414530551703     -0.62566513903917      0.06329267793201
  H   -2.58525910143431     -0.11277416099993      0.37774081358998
  H   -1.63846171130321     -1.61145359123830      0.52963981607198
  H   -1.65725856229760     -0.74746234539727     -1.01727218285427
  C   1.95340031882636      0.47293149279973      0.58676863440550
  N   2.83327490039567      1.20168127464711      0.86015156361024
  N   0.94941443796546     -1.04106606978918     -1.09472015768181
  H   1.76557740584934     -1.63560296035355     -1.16670526030984
  H   1.02397063298952     -0.29960017910707     -1.77961952430730
