16
Coordinates from ORCA-job run
  C   -0.56920416045783      0.17728352124116      0.43937476854690
  C   0.81115288031955     -0.49337632565471      0.37988481046367
  F   -0.86036598921859      0.38594070180194      1.75377218427668
  H   0.72823535753881     -1.32488803438272      1.08833597020974
  N   -0.49227256115216      1.55342474297694     -0.20836449140064
  O   0.05250580059287      1.58134367098072     -1.31025888029910
  O   -1.00006508708665      2.49443633940549      0.37999821301126
  C   -1.67234101964709     -0.59750861416890     -0.22792242444402
  H   -1.73452660454586     -1.58772752099540      0.22612515064609
  H   -2.61535028086743     -0.07061434560249     -0.06912494105013
  H   -1.47175338355869     -0.71007070590314     -1.29070438500383
  C   1.83061014725814      0.43377956653880      0.91550129087504
  N   2.67341480874445      1.15726654962986      1.29796276522167
  N   1.10433972219420     -1.04830887305202     -0.92593190605923
  H   1.91705218333312     -1.64902512350716     -0.86766671375127
  H   1.29656818655317     -0.30095554930832     -1.58098141124283
