16
Coordinates from ORCA-job run
  C   -0.50657662281836      0.12913078332381      0.46558942564988
  C   0.94694135359276     -0.39925647835314      0.36480940075505
  F   -0.78856363439937      0.28872084714224      1.78752582259750
  H   0.96663237597887     -1.24920462340851      1.05725695357493
  N   -0.57324543780673      1.50597296130672     -0.17196538226295
  O   -0.90679777785584      2.45475046881363      0.51956687440424
  O   -0.27198106874891      1.53230412073683     -1.36487969100355
  C   -1.54145947186364     -0.75403367577366     -0.17970323952603
  H   -1.48434618872240     -1.75298479922076      0.25798403268214
  H   -2.53305608234916     -0.34353919696088      0.02014416328379
  H   -1.38911063841044     -0.81160631269370     -1.25557275756932
  C   1.85180067165744      0.62397231528026      0.91100910111219
  N   2.55587991653883      1.46265736984122      1.33333441885427
  N   1.42768825512299     -0.85137034992410     -0.91923909780940
  H   0.95450402368065     -1.69856507521834     -1.20313088192026
  H   1.29069032640327     -0.13694835489163     -1.62272914282250
