16
Coordinates from ORCA-job run
  C   -0.38461360580817      0.34752996043984      0.28903224392900
  C   0.73886085040258     -0.43850018336971     -0.38768908874853
  F   0.16240629575234      1.10091935836858      1.28494592225433
  H   0.30027052681683     -0.95388100817960     -1.24561766895809
  N   -0.90990731617147      1.30694056945149     -0.76931657580750
  O   -0.87059984523163      2.50289747559445     -0.53230431944907
  O   -1.35680044348791      0.76304000999669     -1.77362086679831
  C   -1.53385761041105     -0.46258807703767      0.82600714503869
  H   -1.17363606615482     -1.12126807942192      1.61718283809067
  H   -1.98963499388162     -1.05341842451775      0.03218727755843
  H   -2.28010726210494      0.21440696399996      1.24595621988730
  C   1.25300566761674     -1.44936658598206      0.55676241620905
  N   1.70332440086191     -2.23989167718522      1.30014876777444
  N   1.72559169723766      0.50533043106098     -0.87343590734422
  H   2.39902891951223      0.04486639357105     -1.47144421692133
  H   2.21766878505132      0.93298287321088     -0.09879418671484
