16
Coordinates from ORCA-job run
  C   -0.56973118217150      0.14176753514047      0.46614871043527
  C   0.92917092145511     -0.17908657631492      0.35517775759907
  F   -0.99416986817425     -0.30041255224631      1.68476084837144
  H   1.37504986713696      0.20251382062610      1.27783193588315
  N   -0.67464948630368      1.66379805826764      0.53111859984315
  O   -0.10462395467260      2.18541741092315      1.48513217818366
  O   -1.29036038233837      2.24330031861775     -0.35767123194573
  C   -1.43117818987186     -0.42753350253613     -0.62038147180020
  H   -1.37025213798031     -1.51425574407367     -0.55595201192828
  H   -1.10665387056260     -0.08708320749083     -1.60338989483827
  H   -2.46506752394645     -0.11923164590545     -0.46901289820034
  C   1.51015162468582      0.55388261854918     -0.78385329874079
  N   1.97301937880265      1.07473745224919     -1.73001356117660
  N   1.11558967403591     -1.61723664630748      0.29043208717727
  H   1.10215863900522     -1.94408142989941     -0.66740893107661
  H   2.00354649089998     -1.87549590959928      0.69908118221381
