16
Coordinates from ORCA-job run
  C   -0.37880001151298      0.25351038296408      0.29539492258680
  C   0.83842272017352     -0.47881249883786     -0.30104629572396
  F   -0.00982296052480      0.78793619938930      1.49261822574434
  H   0.54334946385336     -0.86020659904304     -1.28232991768285
  N   -0.64998307664804      1.41825354243339     -0.64465617920129
  O   -0.59107061638962      2.55357603548883     -0.19589800254830
  O   -0.89776933159760      1.09649853032595     -1.80425425585543
  C   -1.63880685868985     -0.55445592728363      0.44989599256666
  H   -2.42795072546961      0.08242919420301      0.85431559075613
  H   -1.45591558898423     -1.37219407185748      1.14807970108638
  H   -1.95585625692579     -0.95592137795229     -0.51226267480788
  C   1.13954222094829     -1.62588946593078      0.56753245773608
  N   1.34986747430149     -2.53809241606471      1.27539856180626
  N   2.01712086573523      0.34387571800433     -0.46471824742727
  H   1.91589287241591      0.97009212964987     -1.25260511108904
  H   2.20277980931473      0.88040062451108      0.37353523205333
