16
Coordinates from ORCA-job run
  C   -0.52845861534371      0.15265900185219      0.43296853884847
  C   0.92694061470633     -0.38008546608326      0.43057827890389
  F   -0.87472368160905      0.37892453104958      1.72968053743188
  H   0.91113128546040     -1.19326130560116      1.16600490600535
  N   -0.55986626717226      1.49552067627049     -0.27564630191120
  O   -0.92541373975113      2.47806155743740      0.34920708674702
  O   -0.19768178044977      1.46168145753900     -1.45135637283603
  C   -1.53333415648150     -0.76097873603972     -0.21704951527834
  H   -1.32406426756911     -0.87964277833053     -1.27822611818146
  H   -2.53128112941736     -0.33597257098842     -0.09408481252058
  H   -1.50679733786269     -1.73392648151614      0.27828994073528
  C   1.80678918723157      0.66959250451459      0.96753835030841
  N   2.49203755267045      1.52808923700015      1.38098724805544
  N   1.46899296925762     -0.89769652929284     -0.80333895389080
  H   1.36597916064373     -0.22166113911286     -1.54921535069900
  H   1.01075020568648     -1.76030395869846     -1.06433746171836
