16
Coordinates from ORCA-job run
  C   -0.44484333995595      0.16797342246336      0.51370094885274
  C   0.96112605913981     -0.43729126606719      0.27124229074412
  F   -0.57067344300035      0.37561597794215      1.85305963991414
  H   1.01591970090609     -1.26898448784511      0.98363326251961
  N   -0.51573859635472      1.52907851343220     -0.15523090013170
  O   -0.72775172439956      2.51120897045991      0.53772011996825
  O   -0.34672023421298      1.50941532646062     -1.37428032196359
  C   -1.58630394283253     -0.67742230804516      0.01382203446826
  H   -1.53057173682045     -1.66465058042322      0.47766401626593
  H   -2.52878811712670     -0.20960347182589      0.30451447360811
  H   -1.55535443251549     -0.77454056956715     -1.06957298712585
  C   1.97029807376101      0.55070019590363      0.68282349086665
  N   2.75840702311902      1.36084759654727      0.99923466731013
  N   1.27377770925580     -0.94642376222703     -1.04320902171197
  H   1.09091845171263     -0.24510483808677     -1.74942882972017
  H   0.73529854932439     -1.77781871912160     -1.24569288386466
