16
Coordinates from ORCA-job run
  C   -0.49631368739793      0.19309092594252      0.51023584909071
  C   0.87552555621453     -0.45740136017545      0.27582991735129
  F   -0.58648129134522      0.47869660866588      1.83896832202546
  H   0.92599240817690     -1.24433586807756      1.03622807253718
  N   -0.55543528309111      1.52665271269007     -0.22266396810339
  O   -0.20037287470909      1.49041068765972     -1.39916891059284
  O   -0.97624629632281      2.49814684917845      0.38426714322478
  C   -1.66843681410936     -0.64090402856946      0.07033093133759
  H   -2.58949029456993     -0.11929654995950      0.33816138766971
  H   -1.63574114444007     -1.59903769875925      0.59136686994260
  H   -1.62894896075696     -0.82091056369248     -1.00121665647950
  C   1.93694539462228      0.52251326647993      0.59082343555828
  N   2.77498387641753      1.31410273837672      0.81693828284791
  N   0.97663033471075     -1.08888686807538     -1.02431305614893
  H   1.04240550648621     -0.38213870282483     -1.74590058617258
  H   1.80498357011426     -1.66970214885939     -1.05888703408823
