16
Coordinates from ORCA-job run
  C   -0.49785985868247      0.23319359383282      0.31129572372589
  C   0.84666840553571     -0.30283959759955     -0.20570038264815
  F   -0.31321549674450      0.78626035383487      1.53572534465137
  H   0.64807799992596     -0.82076939537404     -1.14894650139311
  N   -0.86838811464139      1.35789647898404     -0.64184117598154
  O   -0.89054519937138      1.03516430418195     -1.82785928488574
  O   -1.11969832100749      2.45537636641903     -0.17504238359885
  C   -1.62300936959650     -0.76669571082029      0.35162728731555
  H   -1.82830195831705     -1.15454015080855     -0.64585099563757
  H   -1.35226157352232     -1.58739482209367      1.01824066206541
  H   -2.51914142652994     -0.28197312707280      0.74317038342274
  C   1.34798280351213     -1.29264517202062      0.75328453134245
  N   1.76706114005343     -2.08646698218008      1.51000878819071
  N   1.76982846836691      0.80815665023054     -0.39009874682642
  H   2.03107648881598      0.89843725690923     -1.36120948166323
  H   2.60172601220292      0.71883995357714      0.17419623192053
