16
Coordinates from ORCA-job run
  C   -0.44061979128285      0.33736463981221      0.20850393039467
  C   0.81175010670032     -0.40884629869693     -0.25252799827177
  F   -0.08142802835687      1.19905813209252      1.20205717408527
  H   0.52551058494753     -1.01869522322483     -1.11302805158578
  N   -0.88101361020716      1.17679979463371     -0.98254373164425
  O   -1.15563449073793      0.53081977822850     -1.98833765900780
  O   -0.95048669580280      2.38613719897779     -0.83944289060995
  C   -1.59652706660958     -0.51586462562720      0.65707306751195
  H   -1.30294408259959     -1.09018341197151      1.53662233819434
  H   -2.43331021740915      0.13211171319596      0.92445020779015
  H   -1.90461098995224     -1.19183851700658     -0.13996092509337
  C   1.25992751698232     -1.30547597891738      0.83080353608062
  N   1.64704694525737     -2.00879378149929      1.68851549264266
  N   1.79014240146158      0.56882186580368     -0.68577884017276
  H   2.14401709959148      1.09001690223668      0.10691910046952
  H   2.56718031801756      0.11756781196263     -1.15032475078351
