16
Coordinates from ORCA-job run
  C   -0.48958313568164      0.17144912148652      0.52688031168049
  C   0.87063361823227     -0.47956986507199      0.23535713076936
  F   -0.55881529336767      0.37878801843862      1.87143634758186
  H   0.92198136559783     -1.30970378400089      0.94840854903388
  N   -0.54199228262349      1.54728220029937     -0.12405795319238
  O   -0.96470373617538      2.48058964013355      0.53909880320046
  O   -0.18267861187506      1.58226813828577     -1.29944506774283
  C   -1.67814953488500     -0.61981673910387      0.05394887809571
  H   -1.64856288434302     -1.61033001968974      0.51063990371292
  H   -2.58840220509295     -0.10650417927996      0.37026089076704
  H   -1.65791299296629     -0.73062966852690     -1.02759851215067
  C   1.95227071363584      0.46287039181044      0.59246492646610
  N   2.83838972228510      1.18519019147568      0.86263272465458
  N   0.94639950500065     -1.03578496576547     -1.10028890502550
  H   1.01634266421291     -0.28935253313363     -1.78024911806161
  H   1.76378308804589     -1.62774594735754     -1.17848890978939
