16
Coordinates from ORCA-job run
  C   -0.47522444336280      0.08354357238717      0.44914746288769
  C   1.04446833739099     -0.10250984756122      0.24678380630096
  F   -0.78590083157565     -0.56459658616197      1.61862287108717
  H   1.51339234467995      0.34428821700766      1.13033972675284
  N   -0.70049276262762      1.56342147768614      0.72547913525656
  O   -1.30278199340082      2.21948364643175     -0.11912836986260
  O   -0.21653058353866      1.98399647703385      1.77176671966938
  C   -1.36132227661473     -0.40744401970665     -0.65691728717102
  H   -1.22502049123795     -1.48450781655347     -0.76253750726633
  H   -2.40374677289104     -0.21354974545224     -0.40445068174732
  H   -1.13050668043007      0.08930991923132     -1.59778609352303
  C   1.46891940034888      0.65089732631120     -0.93679361802914
  N   1.77667754778098      1.23937952191148     -1.90473762067567
  N   1.48341388301167     -1.47765692175099      0.14958848654369
  H   1.19041994988611     -1.99354604125195      0.96963119682536
  H   1.12323537258079     -1.92950917956212     -0.68100822704854
