16
Coordinates from ORCA-job run
  C   -0.48693722908034      0.10298316025883      0.43190667556794
  C   1.02426125707813     -0.17983756482005      0.28534186658090
  F   -0.88923749150542     -0.55516713077642      1.56740956031527
  H   1.48439097583421      0.21052701372669      1.19968104006378
  N   -0.62535271566713      1.58639675782564      0.74460781236938
  O   -0.15782004194803      1.94384384975790      1.82142337367861
  O   -1.14901663147791      2.30489026665742     -0.10155977094432
  C   -1.35608527898641     -0.29587118536963     -0.72356955663154
  H   -1.05527464388908      0.21277418483380     -1.63791058125668
  H   -1.28476110255481     -1.37588388610676     -0.85889470754344
  H   -2.39346744857590     -0.04199287495928     -0.50592881827799
  C   1.54672624021897      0.57471953638031     -0.85763454344504
  N   1.93120246828882      1.16758290432303     -1.79499115216245
  N   1.37456568145617     -1.57831624787055      0.16513954834752
  H   1.02135361671258     -1.98217988574426     -0.69270724380593
  H   1.01345234409614     -2.09546889811666      0.95668649714402
