16
Coordinates from ORCA-job run
  C   -0.44905548883643      0.17586434139061      0.51911539170707
  C   0.98912359678653     -0.16335493975294      0.09856326835417
  F   -0.59983005327045     -0.28601785089912      1.80393290512212
  H   1.65257322935152      0.32836867122194      0.81598200989334
  N   -0.59674434905776      1.69193316815488      0.64645788982907
  O   0.43378631541464      2.34942873725542      0.78253848560268
  O   -1.74028209116369      2.13297582962013      0.67082612298345
  C   -1.51877186859953     -0.38459940876470     -0.36627885320287
  H   -1.35307660401682     -1.45797539781110     -0.44851529288336
  H   -1.47852153382151      0.07278782426247     -1.35633744196689
  H   -2.49368853389255     -0.18812934882590      0.07537958245438
  C   1.26147467387212      0.39765765820065     -1.22580953175491
  N   1.49804926995688      0.80697865011722     -2.30040229871478
  N   1.13184289564892     -1.61808002061355      0.10073250086004
  H   1.65352738322569     -1.91524212215520      0.91300811493829
  H   1.60959315840243     -1.94259579140081     -0.72819285322179
