16
Coordinates from ORCA-job run
  C   -0.49825611958875      0.21755240763016      0.50354389087504
  C   0.83481163822865     -0.51371678318033      0.28731779664222
  F   -0.60177177703249      0.48342654115861      1.83563671629060
  H   0.81732232105097     -1.31579799443072      1.03336302638684
  N   -0.45560806272809      1.56619682276812     -0.20260188477754
  O   -0.83954837690927      2.54870747241770      0.41115970557359
  O   -0.06489131529659      1.53226825594704     -1.36791478811793
  C   -1.71011228161067     -0.53089285799795      0.02014615260152
  H   -2.60221849675651      0.03875276507751      0.28809317089461
  H   -1.74528770776740     -1.50423829353257      0.51191797044845
  H   -1.66225049333820     -0.68229399974368     -1.05556587092330
  C   1.95271994031076      0.38537805367168      0.64486331301757
  N   2.87464931317940      1.07105983773699      0.88985715901928
  N   0.92685355844975     -1.12626512757251     -1.02237999067605
  H   1.71643399925458     -1.75920706742369     -1.04898629818651
  H   1.05715386055386     -0.41193003252642     -1.72745006906842
