16
Coordinates from ORCA-job run
  C   -0.46885542774114      0.18090822657917      0.48712828607455
  C   0.94315262783850     -0.43781545675556      0.32760420720874
  F   -0.65909882023727      0.41874249910892      1.81373006182474
  H   0.95700908314649     -1.25427087768312      1.05943660573294
  N   -0.49544512455859      1.52796379225112     -0.21361627352639
  O   -0.72950848490491      2.52646633168099      0.44805757579858
  O   -0.26801925374823      1.48053321153220     -1.42217057229050
  C   -1.59038412553371     -0.66763115820151     -0.05072952050973
  H   -2.54262208074143     -0.18954126312534      0.18679189716804
  H   -1.56322069842903     -1.64666574176770      0.43255389599772
  H   -1.50845867989730     -0.78457523242741     -1.12946088269624
  C   1.93720128879091      0.55300930168364      0.76835330746931
  N   2.71374113885157      1.36545308436040      1.10667917707986
  N   1.31716299338904     -0.97694780398692     -0.95833214327925
  H   1.17722057163345     -0.28920894434297     -1.68733482031581
  H   0.78112499214166     -1.80741996890590     -1.17069080173659
