16
Coordinates from ORCA-job run
  C   -0.56140515771454      0.18478489329524      0.10850647313580
  C   0.91527435587318     -0.05410714500862     -0.22869013581987
  Cl  -1.01166600163183      1.82943762302659     -0.30445646258145
  H   1.22708091942114     -0.98460917767673      0.25606496082767
  N   -0.74323198341717     -0.06737399104888      1.61957103876536
  O   -1.38755943295798      0.72863863176046      2.27628070887437
  O   -0.26569829484975     -1.12982444023428      2.00119626650622
  C   -1.47024552506705     -0.81251631260313     -0.58806795792087
  H   -1.15682562157482     -1.83176278297735     -0.35452540451267
  H   -2.49322331892675     -0.66116491475894     -0.23858015140169
  H   -1.44200711128369     -0.65527175838108     -1.66599434123648
  N   1.79457445238939      1.02543972114087      0.38077169858708
  O   2.64908258494532      1.53366541285057     -0.32999334551685
  O   1.57385524829476      1.25972670548016      1.56136300342067
  C   1.12461165658240     -0.12738167936470     -1.66579451831229
  N   1.24938322991737     -0.23668078550018     -2.82865183281500
