16
Coordinates from ORCA-job run
  C   -0.67687578364693      0.01138661676879     -0.16673897779968
  C   0.75467453375230      0.50695989195003     -0.40783963827933
  Cl  -1.48630088692975     -0.08114815914144     -1.74217857775883
  H   0.70728513702823      1.49827517451960     -0.85677836544407
  N   -1.38312813279827      1.16624509904253      0.59243546782462
  O   -0.97292814297321      2.30394201959320      0.38775829594767
  O   -2.32132893350202      0.85642908893599      1.30953428430763
  C   -0.84600618327084     -1.26002177683617      0.62242866244194
  H   -1.90710667033307     -1.47131602164920      0.74092937959063
  H   -0.39763373196595     -1.14412068039537      1.61180775969500
  H   -0.36088282438622     -2.07848457563069      0.10049249192991
  N   1.55242003860718     -0.32829502178846     -1.39933228678862
  O   1.49020715656412     -1.54870530862368     -1.34077295825683
  O   2.25317421786622      0.33763187511607     -2.14888488621703
  C   1.50584059972042      0.57134260841391      0.84006439255958
  N   2.08958960626776      0.65987916972489      1.85607495624740
