16
Coordinates from ORCA-job run
  C   -0.54108498822388      0.21917181703832      0.14233814504822
  C   0.89498922412339     -0.11089084635877     -0.28125091301012
  Cl  -0.90380862067797      1.89588143359214     -0.22520931693239
  H   1.17209397770149     -1.06686099636756      0.17411486264384
  N   -0.65363060624970     -0.04335026847885      1.65873009213186
  O   -1.20480101614242      0.78365753855569      2.36033030795051
  O   -0.22653592154343     -1.14028261603849      2.00025811021624
  C   -1.55230568771038     -0.70530237299780     -0.51236586462381
  H   -1.29686858840138     -1.74627341830461     -0.30620709911854
  H   -1.57243474466971     -0.53624950668503     -1.58857298339911
  H   -2.54172534252040     -0.48959089879802     -0.10511938788388
  N   1.87699497560758      0.89992731088505      0.28917072997305
  O   2.72057317896304      1.36311367414768     -0.46416468060282
  O   1.74046588696597      1.12897997961179      1.48349469503673
  C   1.01823161730025     -0.17568320858155     -1.72872447251317
  N   1.07084665547756     -0.27624762121999     -2.89782222491660
