16
Coordinates from ORCA-job run
  C   -0.67697446742813      0.07703112337594     -0.15179232366416
  C   0.75791087877243      0.58185062608515     -0.39255614851479
  Cl  -1.56627526743557      0.14675286150305     -1.68161998432894
  H   0.72583037189128      1.57925114334703     -0.82785761927700
  N   -1.34074471200371      1.12149813811980      0.77000690448848
  O   -0.87680862307700      2.25639994357029      0.74761604520552
  O   -2.30346710980173      0.74020646046261      1.41839052414569
  C   -0.78735505325398     -1.28699449513891      0.47950410716775
  H   -0.27608620323713     -1.29625695649196      1.44443901682263
  H   -0.33386526173443     -2.03375662068465     -0.16949075400223
  H   -1.83761919563249     -1.52619845535330      0.63145540436786
  N   1.45737547942682     -0.29509856719446     -1.41032154744191
  O   1.58438832324976      0.18741074825011     -2.52931693974039
  O   1.83145623620667     -1.40006911582502     -1.03296890672163
  C   1.52262193444129      0.57614703583096      0.84698121684142
  N   2.11961266961594      0.57082613014336      1.85853100465171
