13
Coordinates from ORCA-job run
  C   0.69228844753726     -0.14924918285431      0.57085575515939
  C   -0.27837078450372      0.14519679683115     -0.55570108374735
  F   0.36229072177644      0.70243599401965      1.64019485528639
  H   -0.05781004850045      1.15555607758379     -0.91907005328065
  H   0.53620418860891     -1.15786212590771      0.97029933484967
  H   -0.06935439482229     -0.55163123495510     -1.37419849982774
  N   2.04172344972494      0.06040229173531      0.18972497552596
  H   2.67549131094857     -0.67414641382989      0.45343494493219
  H   2.16862276783649      0.34120757494968     -0.76826124140572
  C   -1.73882996917468      0.05088624810079     -0.13322548114697
  H   -1.97446712240792     -0.94848597168316      0.24224624448309
  H   -2.40352298911553      0.25700251456923     -0.97480424734540
  H   -1.95426557790801      0.76768743144057      0.65850449651713
