13
Coordinates from ORCA-job run
  C   0.84749643334125     -0.48493419348670     -0.18390444869488
  C   -0.62228642076470     -0.56364983524648      0.16736497527178
  F   1.44785091901259     -1.69268368183536      0.24651754552335
  H   -0.70489984294450     -0.62389373098825      1.25882483284429
  H   0.99728551569258     -0.46052967720506     -1.26710533469443
  H   -1.00582671008902     -1.50796404375034     -0.22785958290704
  N   1.47215360209262      0.65026633890210      0.39158210886705
  H   1.39332142204358      0.62086244803984      1.40086947502493
  H   2.45171279708857      0.69169273843855      0.14279157754290
  C   -1.41778214260868      0.61780191116103     -0.37465629605337
  H   -1.04868428222125      1.55664203044490      0.03769127151786
  H   -1.33291592264958      0.67670120823848     -1.46310969044546
  H   -2.47742536799347      0.52068848728730     -0.12900643379698
