13
Coordinates from ORCA-job run
  C   0.78315655334839     -0.65292436377953      0.20668850059665
  C   -0.37360196682286     -0.33337431038558     -0.71989902207686
  F   0.30039696110974     -1.38068839825036      1.29400573419024
  H   -0.80024345504758     -1.28617498549284     -1.04597674863637
  H   1.49043667092603     -1.33522019289729     -0.28575410770237
  H   0.02367785759273      0.15649034675722     -1.61686447140895
  N   1.38518533123837      0.54104702054561      0.72671152628906
  H   1.53623619564733      1.21917776549448     -0.00740931669922
  H   2.26894661631503      0.33744776509669      1.17425643525641
  C   -1.44774154272596      0.52478103525405     -0.05927714527007
  H   -1.06100915484525      1.50262141290484      0.22726101899859
  H   -1.81373359692804      0.03613127815947      0.84403962723692
  H   -2.29170646980792      0.67168562659324     -0.73678203077404
