13
Coordinates from ORCA-job run
  C   0.86364435669723     -0.61714273913446     -0.01508217634036
  C   -0.42888381258418     -0.33483511299170     -0.75390436185089
  F   0.54333996392593     -1.43282377979973      1.10118626621132
  H   -0.17516681267486      0.14802760449576     -1.70162139458930
  H   1.53644460499480     -1.22451073878239     -0.62560332898909
  H   -0.88705282261120     -1.29974322147340     -0.98727779640252
  N   1.54386035125495      0.56385967865987      0.37559992986977
  H   2.42130796898955      0.33851953086050      0.82553216240872
  H   0.98319851256480      1.10349114080687      1.02177671152516
  C   -1.40723292579426      0.52519086531034      0.04080518467833
  H   -1.04278239899340      1.54831893777068      0.15710551105102
  H   -1.57901424104364      0.09809423407759      1.03037637141954
  H   -2.36966274472573      0.58355360020007     -0.47089307899169
