14

C	0.0	0.0	0.0
C	-0.35565	-0.073074	-1.527135
Br	1.954235	0.0	0.0
H	0.436268	0.465903	-2.058089
C	-0.420079	1.286036	0.564497
N	-0.531143	2.361633	1.036228
C	-0.602774	-1.09358	0.753321
N	-0.631845	-2.08196	1.412251
C	-1.636838	0.587397	-1.858052
N	-2.454191	1.109721	-2.537113
N	-0.310331	-1.466534	-1.937032
H	-0.465002	-1.509702	-2.937829
H	-1.085012	-1.941977	-1.483322
H	-2.032906	0.0	0.0
