14

C	0.0	0.0	0.0
C	-0.295733	-0.062375	-1.571011
Br	1.957491	0.0	0.0
H	-1.378816	-0.194118	-1.629611
C	-0.72127	1.170096	0.521916
N	-0.728792	2.290787	0.928468
C	-0.44064	-1.222988	0.670625
N	-0.5184	-2.263749	1.223071
C	0.32477	-1.236431	-2.189241
N	0.756027	-2.176942	-2.746271
N	0.054922	1.140699	-2.295853
H	1.029539	1.364108	-2.127679
H	-0.503253	1.899397	-1.914159
H	-2.082049	0.0	0.0
