14

C	0.0	0.0	0.0
C	-0.281535	0.121433	-1.5676
Br	1.96187	0.0	0.0
H	0.52255	0.753539	-1.95801
C	-0.4462	1.180496	0.729742
N	-0.521582	2.196307	1.328721
C	-0.571462	-1.219554	0.546036
N	-0.611137	-2.32427	0.979746
C	-1.539689	0.803274	-1.898578
N	-2.379135	1.465966	-2.394745
N	-0.228596	-1.154015	-2.249674
H	0.659697	-1.592808	-2.029879
H	-0.961574	-1.743784	-1.866681
H	-1.95405	0.0	0.0
