14

C	0.0	0.0	0.0
C	-0.399018	-0.004697	-1.508472
Br	1.954233	0.0	0.0
H	0.22123	0.744836	-2.01281
C	-0.400085	1.270355	0.614401
N	-0.522637	2.338097	1.098909
C	-0.651673	-1.11124	0.694376
N	-0.665977	-2.155261	1.270402
C	-1.839189	0.382687	-1.62168
N	-2.696856	0.747997	-2.370442
N	-0.110435	-1.316261	-2.070811
H	-0.751822	-1.98082	-1.643089
H	-0.344879	-1.277884	-3.057451
H	-2.062834	0.0	0.0
