14

C	0.0	0.0	0.0
C	-0.296323	0.045923	-1.545398
Br	1.950787	0.0	0.0
H	-1.389369	0.035901	-1.583798
C	-0.536107	1.18916	0.662835
N	-0.570052	2.200011	1.27745
C	-0.539799	-1.216906	0.60525
N	-0.586324	-2.275682	1.134658
C	0.194495	-1.173904	-2.211754
N	0.535629	-2.097861	-2.854582
N	0.182447	1.280352	-2.133408
H	1.179877	1.243933	-2.300423
H	-0.305782	1.448936	-3.004986
H	-2.137413	0.0	0.0
