14

C	0.0	0.0	0.0
C	-0.285312	0.00588	-1.551468
Br	1.961497	0.0	0.0
H	-1.378097	0.010796	-1.598589
C	-0.542442	1.229621	0.578572
N	-0.584146	2.310215	1.060486
C	-0.536666	-1.190334	0.652197
N	-0.582931	-2.218571	1.237269
C	0.18318	-1.243093	-2.179766
N	0.447148	-2.213941	-2.789837
N	0.211551	1.224331	-2.159586
H	1.204349	1.174565	-2.343281
H	-0.285183	1.398703	-3.021629
H	-2.119546	0.0	0.0
