16

C	0.0	0.0	0.0
C	-0.532281	0.076237	-1.427612
Br	1.950092	0.0	0.0
H	-1.615062	0.239521	-1.302806
H	-0.250501	0.935042	0.505031
N	-0.505506	-1.191279	0.626521
H	-1.527931	-1.127037	0.549956
H	-0.281975	-1.156119	1.615249
C	-0.263286	-1.140425	-2.278836
H	-0.756716	-1.039905	-3.245517
H	-0.665946	-2.009448	-1.759068
H	0.805607	-1.283883	-2.441846
N	-0.021373	1.331468	-2.069216
O	0.456888	1.263883	-3.201623
O	-0.136156	2.3729	-1.425237
Br	-3.727561	0.0	0.0
