16

C	0.0	0.0	0.0
C	-0.491168	0.054034	-1.442859
Br	1.949854	0.0	0.0
H	-1.585504	0.148149	-1.361536
H	-0.270449	0.931426	0.501393
N	-0.481171	-1.207049	0.618102
H	-0.173101	-1.22423	1.582648
H	-1.505169	-1.134391	0.616698
C	-0.08847	-1.131126	-2.28928
H	0.989242	-1.151957	-2.450179
H	-0.387717	-2.037633	-1.763605
H	-0.582716	-1.092289	-3.259864
N	-0.033035	1.345981	-2.054181
O	0.506539	1.318967	-3.158779
O	-0.245289	2.373627	-1.413699
Br	-3.674953	0.0	0.0
