16

C	0.0	0.0	0.0
C	-0.528484	-0.005056	-1.427956
Br	2.014282	0.0	0.0
H	-1.601616	0.217946	-1.285648
H	-0.26466	0.943893	0.468965
N	-0.520171	-1.079241	0.718748
H	-0.084423	-1.967684	0.535338
H	-0.659251	-0.905291	1.698905
C	-0.354634	-1.30241	-2.1758
H	-0.943407	-2.06187	-1.660005
H	-0.743783	-1.205766	-3.188639
H	0.693824	-1.601733	-2.233955
N	0.052684	1.159413	-2.166407
O	-0.00947	2.25135	-1.604687
O	0.538553	0.976198	-3.282742
Br	-3.80971	0.0	0.0
