16

C	0.0	0.0	0.0
C	-0.31934	-0.211628	-1.495978
Br	2.017117	0.0	0.0
H	0.221749	0.538621	-2.074337
H	-0.254761	1.036091	0.228285
N	-0.567081	-0.849412	0.970154
H	-1.508974	-0.542658	1.194294
H	-0.589012	-1.805316	0.64487
C	-1.800477	-0.183808	-1.802404
H	-1.961105	-0.275989	-2.879465
H	-2.248833	0.747887	-1.460518
H	-2.344083	-0.970048	-1.284991
N	0.232367	-1.511426	-1.996569
O	-0.009516	-2.527938	-1.344272
O	0.85103	-1.493492	-3.058682
Br	-4.645871	0.0	0.0
