16

C	0.0	0.0	0.0
C	-0.525913	-0.188016	-1.410704
Cl	1.826745	0.0	0.0
H	-0.387935	-1.257037	-1.597482
H	-1.606203	-0.01299	-1.341479
N	-0.292967	1.437313	0.54768
O	-0.482738	2.347748	-0.248305
O	-0.277871	1.552122	1.769074
N	-0.506739	-0.975502	0.86521
H	-0.318704	-0.713412	1.826259
H	-1.524147	-0.991696	0.725199
C	0.086061	0.613846	-2.553962
H	1.163793	0.46245	-2.62801
H	-0.111908	1.677025	-2.449319
H	-0.363864	0.270013	-3.489189
Br	-3.792998	0.0	0.0
