16

C	0.0	0.0	0.0
C	-0.49548	0.015783	-1.427355
Cl	1.840639	0.0	0.0
H	-1.558456	0.27108	-1.373243
H	0.024801	0.80967	-1.961896
N	-0.263318	1.405208	0.651532
O	-0.285889	2.384534	-0.081475
O	-0.380972	1.418464	1.871804
N	-0.519191	-1.038752	0.765189
H	-1.540629	-1.019095	0.639469
H	-0.306128	-0.891794	1.744923
C	-0.317561	-1.333628	-2.110816
H	-0.933126	-2.091682	-1.626684
H	0.72384	-1.664101	-2.085084
H	-0.630501	-1.256866	-3.155107
Br	-3.758154	0.0	0.0
