13

C	0.0	0.0	0.0
C	-0.582641	-0.046247	-1.365701
Br	1.950907	0.0	0.0
H	-1.853503	-0.062687	-0.828649
H	-0.293137	-0.87131	0.592831
C	-0.417709	1.198375	0.751707
N	-0.567739	2.147818	1.441524
C	-0.260693	-1.257072	-2.04195
N	-0.003382	-2.235605	-2.631381
N	-0.337157	1.183605	-2.105943
H	-1.092198	1.357707	-2.791806
H	0.509462	1.091649	-2.661314
H	-2.754148	0.0	0.0
