13

C	0.0	0.0	0.0
C	-0.402633	0.163883	-1.506974
Br	1.943435	0.0	0.0
H	0.483678	-0.09261	-2.09273
H	-0.331393	-0.984311	0.32483
C	-0.464043	1.030293	0.917539
N	-0.577217	1.896514	1.707845
C	-0.650489	1.590376	-1.817636
N	-0.768416	2.709132	-2.161822
N	-1.43657	-0.786	-1.874957
H	-1.755998	-0.564002	-2.815361
H	-2.213547	-0.562005	-1.184292
H	-2.75215	0.0	0.0
