13

C	0.0	0.0	0.0
C	-0.450428	-0.07665	-1.486948
Br	1.942984	0.0	0.0
H	0.447403	-0.053619	-2.114891
H	-0.298141	-0.912523	0.503865
C	-0.467976	1.160922	0.749145
N	-0.57639	2.121381	1.424447
C	-1.238908	1.104284	-1.893643
N	-1.689512	2.046992	-2.436457
N	-1.090378	-1.364996	-1.721292
H	-1.949252	-1.279117	-1.157632
H	-1.348215	-1.420751	-2.702949
H	-2.323215	0.0	0.0
