13

C	0.0	0.0	0.0
C	-0.561849	-0.00443	-1.408625
Br	1.950785	0.0	0.0
H	-1.688233	-0.017296	-1.080369
H	-0.337504	-0.89372	0.528904
C	-0.423092	1.187567	0.748814
N	-0.553556	2.152493	1.409717
C	-0.214559	-1.234525	-2.113061
N	0.044738	-2.199152	-2.738559
N	-0.22272	1.211287	-2.122862
H	0.687328	1.133275	-2.566357
H	-0.919182	1.39333	-2.835875
H	-2.75226	0.0	0.0
