15

C	0.0	0.0	0.0
C	-0.617505	0.142442	-1.376122
Br	1.94576	0.0	0.0
H	-1.734365	0.104954	-1.078469
H	-0.35138	-0.700575	-2.013306
C	-0.482755	1.067266	0.955555
H	-0.167283	2.041981	0.578897
H	-1.576664	0.96473	0.935396
H	-0.07127	0.910412	1.950712
N	-0.386413	-1.382586	0.527176
O	-0.483369	-2.289608	-0.292103
O	-0.503379	-1.511434	1.738813
C	-0.25732	1.394073	-2.007965
N	0.013095	2.408035	-2.539431
F	-2.845824	0.0	0.0
