15

C	0.0	0.0	0.0
C	-0.55758	0.02827	-1.412389
Br	1.945341	0.0	0.0
H	-0.231526	-0.850859	-1.97033
H	-1.673125	-0.000423	-1.168605
C	-0.452545	1.175451	0.838518
H	-0.094314	2.092732	0.365776
H	-1.547362	1.109112	0.826002
H	-0.041022	1.106997	1.844323
N	-0.423795	-1.312002	0.643848
O	-0.548459	-1.325634	1.860842
O	-0.537532	-2.285756	-0.091642
C	-0.168146	1.236022	-2.115602
N	0.134339	2.20973	-2.701064
F	-2.773086	0.0	0.0
