15

C	0.0	0.0	0.0
C	-0.378319	-0.47819	-1.405467
Br	1.947102	0.0	0.0
H	0.212333	-1.368524	-1.630267
H	-0.03186	0.303421	-2.091292
C	-0.422733	1.401524	0.385269
H	0.005472	1.671591	1.349149
H	-1.514522	1.366361	0.409733
H	-0.052109	2.090342	-0.37662
N	-0.420627	-1.020089	1.03605
O	-0.525485	-2.181188	0.658006
O	-0.534845	-0.632436	2.192153
C	-1.776604	-0.800834	-1.74619
N	-2.545001	-1.258915	-2.517641
F	-2.568784	0.0	0.0
