15

C	0.0	0.0	0.0
C	-0.629048	0.031771	-1.37745
Br	1.931331	0.0	0.0
H	-0.516275	1.047811	-1.766551
H	-1.735834	-0.102143	-1.083005
C	-0.495417	1.167239	0.830627
H	-0.149296	2.096269	0.370912
H	-0.112881	1.101875	1.847531
H	-1.590931	1.07617	0.791367
N	-0.388933	-1.305607	0.69931
O	-0.634294	-2.270891	-0.011468
O	-0.366227	-1.31225	1.924948
C	-0.119942	-0.905644	-2.360028
N	0.262065	-1.612234	-3.218766
F	-2.859563	0.0	0.0
