15

C	0.0	0.0	0.0
C	-0.379341	-0.34809	-1.441695
Br	1.94738	0.0	0.0
H	0.240428	-1.187303	-1.760736
H	-0.070824	0.51231	-2.046939
C	-0.416108	1.361045	0.517799
H	-0.048693	2.116824	-0.180383
H	-1.50712	1.33257	0.550459
H	0.02206	1.539635	1.498695
N	-0.418107	-1.111963	0.9359
O	-0.535939	-0.836182	2.122866
O	-0.515833	-2.232678	0.450445
C	-1.768929	-0.690105	-1.79833
N	-2.527879	-1.153132	-2.576396
F	-2.558197	0.0	0.0
