19

C	-0.476554	-0.003346	-1.436635
C	0.0	0.0	0.0
Cl	-2.27019	-0.002105	-1.569901
H	1.092414	0.0	0.0
N	0.058609	1.214676	-2.223749
O	1.230322	1.481853	-2.007113
O	-0.652468	1.719142	-3.084661
C	0.082969	-1.202988	-2.181525
H	1.162595	-1.23843	-1.998146
H	-0.130837	-1.1003	-3.248042
H	-0.38628	-2.118549	-1.823603
C	-0.458216	-1.192818	0.809161
H	-1.549609	-1.242561	0.870677
H	-0.044852	-1.099995	1.811679
H	-0.07227	-2.115747	0.374028
N	-0.371087	1.246127	0.681695
O	-0.238841	1.276636	1.912006
O	-0.684986	2.233802	0.001744
H	2.557415	0.0	0.0
