19

C	-0.408243	0.06804	-1.462442
C	0.0	0.0	0.0
Cl	0.306451	-1.332171	-2.307699
H	1.103704	0.0	0.0
N	-1.940479	-0.085988	-1.518263
O	-2.449512	-1.175454	-1.756517
O	-2.561665	0.935006	-1.223795
C	-0.009331	1.310368	-2.228158
H	-0.515082	2.18681	-1.83774
H	-0.253256	1.171602	-3.284471
H	1.067893	1.432112	-2.103316
C	-0.50551	-1.218271	0.738285
H	-1.58569	-1.200819	0.896651
H	-0.231272	-2.117601	0.187871
H	-0.016564	-1.253166	1.712825
N	-0.344651	1.224849	0.728003
O	0.159164	2.285317	0.332216
O	-1.007094	1.133628	1.775561
H	2.522473	0.0	0.0
