19

C	-0.527232	0.007595	-1.435517
C	0.0	0.0	0.0
Cl	0.497955	0.950345	-2.553031
H	1.093585	0.0	0.0
N	-0.426046	-1.451312	-1.913017
O	-1.464089	-2.112415	-1.870898
O	0.671476	-1.884756	-2.23408
C	-1.964802	0.460022	-1.599846
H	-2.612526	-0.09256	-0.919131
H	-2.009308	1.522323	-1.375477
H	-2.296702	0.287647	-2.625291
C	-0.333894	-1.243425	0.801048
H	0.113898	-1.11962	1.785391
H	0.137411	-2.111284	0.336851
H	-1.407549	-1.419171	0.913537
N	-0.36608	1.19984	0.696769
O	-0.397174	2.272844	0.054955
O	-0.44189	1.157813	1.943738
H	2.407959	0.0	0.0
