19

C	-0.554387	0.094853	-1.421674
C	0.0	0.0	0.0
Cl	0.466633	1.078686	-2.50633
H	1.093959	0.0	0.0
N	-0.49656	-1.338141	-1.975197
O	-1.53934	-1.989285	-1.905208
O	0.576839	-1.76908	-2.371791
C	-1.986473	0.582543	-1.530491
H	-2.628273	0.015495	-0.856043
H	-2.004526	1.634848	-1.26158
H	-2.347437	0.459689	-2.55329
C	-0.321624	-1.286298	0.736458
H	0.152102	-1.219726	1.714382
H	-1.392838	-1.465916	0.865384
H	0.135565	-2.127207	0.212217
N	-0.351758	1.159423	0.77245
O	-0.376428	2.269065	0.196869
O	-0.41753	1.043001	2.014309
H	2.411332	0.0	0.0
