19

C	-0.352066	0.284585	-1.458702
C	0.0	0.0	0.0
Cl	0.117046	-1.129457	-2.447676
H	1.104726	0.0	0.0
N	-1.879938	0.4205	-1.582459
O	-2.322399	1.569723	-1.541843
O	-2.565019	-0.596769	-1.628152
C	0.334993	1.496817	-2.038712
H	-0.008954	2.404911	-1.55568
H	1.403799	1.367354	-1.841238
H	0.142823	1.550367	-3.112481
C	-0.521044	-1.292284	0.583895
H	-0.190651	-1.35006	1.6226
H	-1.607933	-1.372697	0.557777
H	-0.076577	-2.127939	0.044402
N	-0.414637	1.145139	0.832178
O	-1.32069	0.979968	1.664245
O	0.210839	2.202887	0.704322
H	2.584459	0.0	0.0
