15
Coordinates from ORCA-job run
  C   -0.55258161947822      0.28344928220950     -0.58948334930697
  C   0.45264180644095      0.25142139156266      0.55762555473235
  Cl  -1.39349350234847      1.86265995286124     -0.58053359872063
  H   -0.04499331924033      0.44850197427368      1.50803712047376
  H   0.00163691822554      0.23730495182405     -1.52985695259516
  C   -1.56717472628345     -0.83851713283196     -0.48437521748426
  H   -1.07326016076544     -1.80927914366230     -0.55955110781199
  H   -2.10546079105529     -0.78290366781089      0.46478776420608
  H   -2.29541454931686     -0.76453397814160     -1.29245035838634
  N   1.42194829417743      1.39188160302330      0.37151479908350
  O   2.07179329271745      1.36431978050888     -0.67078717954990
  O   1.50925517948558      2.22785061071089      1.26257347680681
  N   1.24942712339122     -0.93730231268944      0.65041136361281
  H   1.55276472281029     -1.26265887430542     -0.25794409025480
  H   0.77291133123960     -1.67219443753258      1.15103177519475
