15
Coordinates from ORCA-job run
  C   -0.59821740598651      0.27365299889060     -0.60820210722359
  C   0.40662847793174      0.15740345602574      0.52863404013297
  Cl  -1.25764365438394      1.93606054778558     -0.62422345089690
  H   -0.06038451462765      0.39470716882067      1.48547495397459
  H   -0.06441052735476      0.15253232955533     -1.55386086340054
  C   -1.72341225445956     -0.73181553280239     -0.46980842040879
  H   -2.25398547652805     -0.58052719754374      0.47265105121259
  H   -1.32025157374998     -1.74406262039760     -0.48608938284373
  H   -2.43517210021339     -0.61138986477846     -1.28742340815727
  N   1.46621459091586      1.23838909070021      0.34429715479527
  O   1.60875823923916      2.06308727802645      1.24160041600507
  O   2.12941925211655      1.16638140437964     -0.68879450815428
  N   0.98738728045471     -1.14508953199789      0.55014926845908
  H   1.56091976295649     -1.28051085150346      1.37283208321945
  H   1.55414990368931     -1.29081867516066     -0.27723682671393
