15
Coordinates from ORCA-job run
  C   -0.72624832260458     -0.57122292047157      0.34414410381914
  C   0.74404827407810     -0.17022248716675      0.57263735353495
  Cl  -0.75945522421014     -2.35578398093023      0.18230063187480
  H   1.09502712002386     -0.65948342937159      1.48214416990756
  H   -1.28172141254597     -0.34417173091839      1.25603241953153
  C   -1.37336188790590      0.07381746802390     -0.86301701842233
  H   -2.40187480763273     -0.27395324171042     -0.96422470447063
  H   -1.38681611639330      1.16078255642126     -0.75709634815008
  H   -0.84148520245851     -0.18523331304725     -1.77989050224954
  N   0.69730962873777      1.30129573658419      0.90573226092832
  O   0.32268512571119      1.58796050539198      2.04018738544762
  O   0.96349989535239      2.09611314214926      0.00948737232598
  N   1.69332871514142     -0.37204562912326     -0.47231751282556
  H   1.40899589257100      0.07115880437358     -1.33489756464782
  H   1.84606832213539     -1.36001148020471     -0.62122204660393
