15
Coordinates from ORCA-job run
  C   -0.44469847956454     -0.58512049778423     -0.49014234997614
  C   0.61071781205887     -0.13934949171142      0.53649355504502
  Cl  0.14792108522603     -0.33745852251620     -2.16063392363999
  H   0.22215347660705     -0.39481187375239      1.52484189179615
  H   -0.52319351797035     -1.66941524023182     -0.37003540781692
  C   -1.80535135762002      0.06293683235910     -0.32120771113614
  H   -1.76676797291025      1.12663866141150     -0.55546478138874
  H   -2.15017343373961     -0.04751136542546      0.70977762348517
  H   -2.52684763461073     -0.41080015477385     -0.98790761221318
  N   0.67723114514816      1.36575788764827      0.53326072365475
  O   1.48004672564613      1.88742374082000     -0.23210931009567
  O   -0.11206661083742      1.95479440332512      1.27061019298547
  N   1.93933570324658     -0.64520395298244      0.40201846712872
  H   2.26874423207387     -0.55497046818304     -0.55021330412703
  H   1.98294882724625     -1.61290995820313      0.69071194629854
