12
Coordinates from ORCA-job run
  C   0.49242607882138      0.19689722713787      0.60937211894588
  C   -0.52413401170657     -0.14861271931965     -0.47281448030867
  Cl  0.20304212902323      1.79513896143105      1.27953688565905
  H   -0.18442385411742     -1.07060727647038     -0.95653724538677
  H   0.48714295988216     -0.53283442214761      1.41452216148102
  H   -0.49213072398527      0.65027906014072     -1.21997434150368
  N   1.86287322033139      0.12125457418676     -0.00993796097312
  O   2.21092422569565      1.03046951658767     -0.75283559337902
  O   2.48144161014598     -0.91797362530484      0.21189764829640
  N   -1.83189769721033     -0.31621688130545      0.13474309064675
  H   -2.23108514261772     -1.21498531700073     -0.08775878147978
  H   -2.47317879426249      0.40719090206459     -0.15121350199806
