12
Coordinates from ORCA-job run
  C   0.64907160839148     -0.43958154921192      0.50577931867368
  C   -0.83928903344699     -0.26534679549630      0.30842948796126
  Cl  1.08653507910839     -0.53248704473641      2.21675263517217
  H   -1.31944651718832     -1.16487286613684      0.70065921769633
  H   1.03109511481766     -1.31943730760352     -0.00599303910767
  H   -1.18026179888219      0.58747456904417      0.90295970208216
  N   1.39080338727861      0.72492604409834     -0.10157590467215
  O   2.50329988652879      0.48669485564469     -0.55607533136515
  O   0.83374714106255      1.81925619659830     -0.07693498096329
  N   -1.08412210262367     -0.15084306056782     -1.12243912412312
  H   -1.10154922043741      0.82205453011198     -1.39638943828613
  H   -1.96888354460889     -0.56783757174468     -1.37317254306809
