12
Coordinates from ORCA-job run
  C   0.52056390185815      0.13207786240171      0.56054463815587
  C   -0.55395297912923     -0.18430011572620     -0.46225957218587
  Cl  0.26370152402476      1.71433841055478      1.30112500683842
  H   -0.26460889339753     -1.12194796370152     -0.94757051246548
  H   0.56078020158237     -0.61722253174006      1.34634485255259
  H   -0.55165228090615      0.60835135840210     -1.22001412738981
  N   1.85956034626609      0.10826758209392     -0.12200490256839
  O   2.04964721725126      0.92646293168623     -1.01457232522854
  O   2.63332345035663     -0.77713137332606      0.23515404930508
  N   -1.81560344723880     -0.38769848165729      0.23260411047833
  H   -2.45483967337508     -0.90594427278052     -0.35457013091531
  H   -2.24491936729247      0.50374659379290      0.44421891342312
