18

C	0.0	0.0	0.0
C	-0.210928	-0.266003	-1.516089
F	1.37569	0.0	0.0
H	0.353436	0.547298	-1.979721
N	-0.473632	1.304115	0.332628
H	-0.829721	1.261565	1.283356
H	0.307873	1.943946	0.293608
N	-0.67049	-0.959919	0.884306
O	-1.821358	-1.290973	0.372558
O	-0.476865	-0.760607	2.117232
C	-1.572663	-0.33603	-2.166677
H	-1.454934	-0.17812	-3.24332
H	-2.050624	-1.288832	-1.961774
H	-2.206655	0.436092	-1.727436
N	0.568831	-1.488009	-1.915857
O	0.582346	-2.456842	-1.16383
O	1.10565	-1.45477	-3.026912
H	-2.951252	0.0	0.0
