16

C	0.0	0.0	0.0
C	-0.281374	-0.374005	-1.521023
Cl	1.79964	0.0	0.0
H	0.217134	-1.327805	-1.700318
N	-0.435808	1.201407	0.546941
H	0.054232	1.993095	0.153958
H	-1.472556	1.152769	0.403301
N	-0.430545	-1.200537	0.860913
O	-0.613086	-0.997789	2.044705
O	-0.448246	-2.288006	0.296442
C	0.306903	0.642894	-2.3965
N	0.794171	1.383779	-3.167103
N	-1.686203	-0.596226	-2.087004
O	-2.240131	0.355294	-2.610698
O	-2.043509	-1.761979	-2.141053
F	-2.463617	0.0	0.0
