16

C	0.0	0.0	0.0
C	-0.609262	-0.490096	-1.322767
Cl	1.793463	0.0	0.0
H	-1.724218	-0.504769	-0.991105
N	-0.495563	1.224883	0.475532
H	-1.526383	1.093272	0.43005
H	-0.182915	1.964234	-0.138052
N	-0.387502	-1.077634	1.057777
O	-0.418541	-2.236392	0.660557
O	-0.556523	-0.706007	2.203963
C	-0.092292	-1.711471	-1.905969
N	0.322072	-2.668461	-2.451083
N	-0.532295	0.549913	-2.407445
O	0.190058	1.536669	-2.268934
O	-1.217244	0.318856	-3.399012
F	-2.742155	0.0	0.0
