15
Coordinates from ORCA-job run
  C   -0.37105301775182     -0.03839025470805     -0.12057082464756
  C   0.85240364531891     -0.95173240064042      0.01546744716453
  F   -1.07482475581351     -0.49099248714723     -1.24446781641830
  H   1.40507204258745     -0.70088591498405      0.92577877926152
  H   0.50935367747945     -1.98617903506328      0.10775541030321
  C   -1.28524242612695     -0.20220047345570      1.07775241939302
  H   -2.19139972900220      0.38784333333723      0.92943415144144
  H   -1.57376353240839     -1.24889695660235      1.19554334478187
  H   -0.79605978837712      0.13567004652286      1.99410836200935
  C   0.00800178655076      1.40559925568564     -0.37485464660379
  H   0.58965184971285      1.80842475824166      0.45792792617291
  H   0.59713003453938      1.48955566766038     -1.28945742727822
  H   -0.89680907063767      2.00515201532145     -0.49082603626679
  C   1.75237887841737     -0.85468874744928     -1.13176830599366
  N   2.47516040551150     -0.75827880671888     -2.05082278331952
