18

C	-0.421373	-0.075067	-1.464728
C	0.0	0.0	0.0
F	-1.816892	-0.27768	-1.538673
H	1.096545	0.0	0.0
C	-0.170951	1.214384	-2.139591
N	-0.003535	2.186202	-2.775537
C	0.265201	-1.191434	-2.22734
H	0.007401	-1.140345	-3.287131
H	1.346451	-1.100772	-2.098556
H	-0.063924	-2.153932	-1.834605
C	-0.459426	-1.22705	0.782847
H	-0.044415	-2.154367	0.382575
H	-1.551589	-1.302239	0.788132
H	-0.104741	-1.130678	1.811581
N	-0.475965	1.25527	0.577343
H	0.248454	1.636736	1.168997
H	-1.301931	1.099194	1.140371
Br	3.571055	0.0	0.0
