18

C	-0.410782	-0.019688	-1.475382
C	0.0	0.0	0.0
F	-1.825009	-0.033102	-1.553507
H	1.096576	0.0	0.0
C	-0.002829	1.242394	-2.12476
N	0.282392	2.255388	-2.645334
C	0.117636	-1.20867	-2.250075
H	-0.123193	-1.110105	-3.310684
H	-0.348521	-2.117949	-1.868943
H	1.200606	-1.267971	-2.115586
C	-0.487035	-1.243996	0.732602
H	-0.00981	-2.150881	0.356728
H	-0.216845	-1.129869	1.78235
H	-1.57388	-1.351	0.65947
N	-0.469394	1.19587	0.693234
H	0.13608	1.976145	0.465005
H	-1.411862	1.422864	0.393016
Br	3.579104	0.0	0.0
