18

C	-0.425293	0.019441	-1.470382
C	0.0	0.0	0.0
F	-0.0375	-1.180021	-2.074659
H	1.100949	0.0	0.0
C	-1.897754	0.077517	-1.578993
N	-3.066219	0.085318	-1.682837
C	0.233036	1.154444	-2.223324
H	1.310868	1.074755	-2.072548
H	-0.002182	1.079999	-3.28745
H	-0.123377	2.108348	-1.838035
C	-0.523626	-1.223263	0.726061
H	-0.242115	-2.134668	0.198825
H	-0.08548	-1.262886	1.726992
H	-1.615931	-1.188722	0.816025
N	-0.48989	1.24952	0.604796
H	-0.888648	1.056592	1.51413
H	0.300275	1.863475	0.755565
Br	3.65492	0.0	0.0
