18

C	-0.421099	0.015481	-1.469796
C	0.0	0.0	0.0
F	0.031105	-1.159711	-2.080328
H	1.100977	0.0	0.0
C	-1.896549	-0.00168	-1.591126
N	-3.064489	-0.054512	-1.701701
C	0.180972	1.189997	-2.214556
H	1.262051	1.171461	-2.053089
H	-0.036711	1.102897	-3.281305
H	-0.236817	2.122719	-1.834194
C	-0.513782	-1.228827	0.72541
H	-0.062295	-1.273509	1.719889
H	-1.60453	-1.19854	0.828729
H	-0.233364	-2.135791	0.189404
N	-0.506825	1.241442	0.60894
H	0.272951	1.882071	0.709253
H	-0.841423	1.042168	1.544266
Br	3.60484	0.0	0.0
