18

C	-0.410552	-0.041362	-1.475344
C	0.0	0.0	0.0
F	-1.73832	-0.482979	-1.604683
H	1.103005	0.0	0.0
C	-0.382814	1.31696	-2.055518
N	-0.360607	2.384445	-2.543603
C	0.484682	-0.958452	-2.287557
H	0.181049	-0.945711	-3.336549
H	0.397377	-1.977101	-1.907003
H	1.525335	-0.643111	-2.183331
C	-0.493492	-1.236785	0.734321
H	-0.214584	-2.157123	0.219997
H	-1.579832	-1.201389	0.842779
H	-0.031011	-1.267111	1.724736
N	-0.567024	1.193754	0.643887
H	0.029539	1.98436	0.417239
H	-0.479665	1.06873	1.647208
Br	3.630116	0.0	0.0
