10
Coordinates from ORCA-job run
  C   0.34683165405201     -0.65348180016588      0.16353893411003
  C   -0.33894074118391      0.66792573762125     -0.17982418991765
  F   -0.07167384776819     -1.06914050891093      1.40788956368280
  H   -0.10617705434036      1.39726696575557      0.60047586767415
  H   0.07987805420267     -1.43125666268897     -0.55683018180593
  H   0.04779157213660      1.05135669022074     -1.12826419996373
  C   1.80689146313426     -0.47733379812207      0.17098203216374
  N   2.96880773340981     -0.31484212953723      0.15468514059168
  C   -1.78662207761644      0.49231869155803     -0.27317194257655
  N   -2.94578675602644      0.33718681426949     -0.36048102395854
