10
Coordinates from ORCA-job run
  C   0.64573939590077     -0.43823527492551     -0.42708537435487
  C   -0.40664560479365      0.66716241231854     -0.45865671065167
  F   0.06975690850761     -1.62217566678764     -0.83233059463048
  H   0.05414240217468      1.61981291797090     -0.18191081561143
  H   1.44963631384876     -0.19949775280674     -1.12941205760298
  H   -0.78035227864103      0.75470943964828     -1.48229879739241
  C   1.21694913607928     -0.60460012573977      0.91724053022404
  N   1.68746739855789     -0.70729565381059      1.98728173695102
  C   -1.52137925178211      0.37995070830864      0.44127868629122
  N   -2.41531441985221      0.15016899582389      1.16489339677759
