12
Coordinates from ORCA-job run
  C   1.02131033269924     -0.44966909723543      0.10627327583753
  C   -0.32401648834425     -0.07917647168171      0.72399066275434
  Cl  2.24372041801816     -0.74537918712535      1.38041671131688
  H   -0.19005814438159      0.82092914879234      1.32978194553661
  H   0.93565971083761     -1.38324760291243     -0.45518208661099
  H   -0.60584982594929     -0.88879496395996      1.40266832362402
  C   1.50387434160491      0.59121271028833     -0.79860889922901
  N   1.84812163644648      1.44050550605768     -1.53277641806611
  C   -1.39767126247895      0.13317863787871     -0.33847124459963
  H   -1.52564011944010     -0.75919906293998     -0.95683953456858
  H   -2.35728369532147      0.34885359982215      0.13512286815920
  H   -1.15216690369077      0.97078678301565     -0.99437560415426
