12
Coordinates from ORCA-job run
  C   1.08297466752041     -0.35700005736438      0.21454808852344
  C   -0.39041438897985     -0.72562702311624      0.04784235065995
  Cl  1.40342461850210      0.32523224502210      1.84073734282151
  H   -0.64209519921490     -1.43145747800919      0.84443913195880
  H   1.70491691520819     -1.25155489843094      0.14056984956759
  H   -0.47760169322041     -1.26379794139704     -0.90262779166116
  C   1.52180149318179      0.59329857243176     -0.80558554568764
  N   1.86862493379048      1.32990064866362     -1.65156781835672
  C   -1.33328669296884      0.46987997168623      0.06568736689563
  H   -1.10550692584235      1.16462915588333     -0.74560115440871
  H   -2.36459696012248      0.13485353626444     -0.05948749368089
  H   -1.26824076785414      1.01164326836631      1.01004567336821
