16

C	-0.571383	-0.000187	-1.406234
C	0.0	0.0	0.0
Br	0.168575	-1.557309	-2.445522
H	1.087234	0.0	0.0
H	-0.359832	0.914449	0.480802
N	-1.996038	-0.116769	-1.396549
H	-2.442725	0.436752	-2.111636
H	-2.396976	0.035869	-0.481598
C	-0.037353	1.242028	-2.105265
H	-0.343518	1.250928	-3.1545
H	-0.450522	2.126095	-1.605286
H	1.053263	1.2636	-2.035268
N	-0.54561	-1.096139	0.817723
O	0.019795	-2.186152	0.79936
O	-1.558365	-0.846521	1.497411
H	2.783488	0.0	0.0
