16

C	-0.495076	0.060058	-1.435098
C	0.0	0.0	0.0
Br	-0.10826	-1.782766	-2.259197
H	1.087193	0.0	0.0
H	-0.352832	0.907711	0.503161
N	-1.866336	0.39438	-1.562349
H	-2.148258	0.373037	-2.534941
H	-2.429182	-0.253042	-1.024404
C	0.398292	1.022848	-2.192988
H	1.447118	0.766295	-2.020025
H	0.213399	2.029825	-1.806087
H	0.164915	1.005552	-3.261092
N	-0.564236	-1.122603	0.79238
O	0.172027	-1.701554	1.582937
O	-1.766869	-1.38459	0.649896
H	2.890962	0.0	0.0
