16

C	-0.390245	-0.006698	-1.483881
C	0.0	0.0	0.0
Br	-0.165065	1.898978	-2.039965
H	1.089973	0.0	0.0
H	-0.397268	0.831964	0.576028
N	0.501033	-0.789139	-2.308245
H	1.45248	-0.580539	-1.989274
H	0.332536	-1.754399	-2.035484
C	-1.839008	-0.372623	-1.763915
H	-2.517496	0.263161	-1.189347
H	-2.004097	-1.416461	-1.48255
H	-2.043421	-0.257274	-2.82975
N	-0.408314	-1.220542	0.678333
O	-0.349835	-2.297534	0.059369
O	-0.694937	-1.145744	1.879814
H	2.649308	0.0	0.0
