16

C	-0.396726	0.004508	-1.481452
C	0.0	0.0	0.0
Br	-0.150661	1.903315	-2.042549
H	1.089984	0.0	0.0
H	-0.389824	0.840176	0.569257
N	0.478726	-0.783919	-2.315384
H	1.433612	-0.579857	-2.007516
H	0.308878	-1.746791	-2.036739
C	-1.851085	-0.338733	-1.746485
H	-2.513877	0.305599	-1.164476
H	-2.03104	-1.380073	-1.467117
H	-2.064224	-0.213768	-2.80882
N	-0.431244	-1.207193	0.687251
O	-0.766661	-1.108846	1.874718
O	-0.369107	-2.292803	0.085816
H	2.665413	0.0	0.0
