16

C	-0.419813	-0.036153	-1.474508
C	0.0	0.0	0.0
Br	-0.194144	1.757649	-2.281371
H	1.088956	0.0	0.0
H	-0.352642	-0.939285	0.436826
N	0.472395	-0.927343	-2.182897
H	1.42854	-0.726786	-1.865931
H	0.260773	-1.874366	-1.87949
C	-1.866062	-0.43737	-1.690692
H	-2.021147	-1.438234	-1.270647
H	-2.54298	0.249937	-1.182822
H	-2.089612	-0.458806	-2.758518
N	-0.61104	1.060639	0.814745
O	-0.034603	2.142961	0.904706
O	-1.684861	0.794906	1.378079
H	2.81484	0.0	0.0
