16

C	-0.293239	0.011496	-1.48538
C	0.0	0.0	0.0
Br	-2.277237	0.205201	-1.789003
H	1.09305	0.0	0.0
H	-0.368302	0.908494	0.474398
N	0.340046	1.18616	-2.056621
H	0.022104	2.006653	-1.547825
H	1.33554	1.07727	-1.824051
C	0.191957	-1.20416	-2.241098
H	1.254148	-1.327509	-1.993812
H	0.073955	-1.015732	-3.310376
H	-0.339534	-2.106106	-1.949144
N	-0.50522	-1.114115	0.796908
O	-0.297413	-2.266318	0.405555
O	-1.05128	-0.842678	1.874507
H	2.684891	0.0	0.0
