16

C	-0.280899	0.015634	-1.482631
C	0.0	0.0	0.0
Br	-2.276564	0.316302	-1.820285
H	1.092496	0.0	0.0
H	-0.369057	0.910033	0.464825
N	0.419817	1.184893	-1.939352
H	0.48663	1.168032	-2.950827
H	1.369441	1.124854	-1.546817
C	0.084854	-1.24956	-2.23578
H	-0.526269	-2.103015	-1.955132
H	-0.020545	-1.066503	-3.309389
H	1.132765	-1.462863	-1.99789
N	-0.506807	-1.122276	0.776819
O	-1.086444	-0.862733	1.838877
O	-0.267154	-2.270718	0.390406
H	2.670872	0.0	0.0
