16

C	-0.290478	-0.121884	-1.491762
C	0.0	0.0	0.0
Br	-0.543126	2.085889	-2.039611
H	1.088537	0.0	0.0
H	-0.432148	0.870717	0.476909
N	0.782205	-0.644865	-2.113385
H	1.69595	-0.455457	-1.662654
H	0.757756	-0.726335	-3.117788
C	-1.639859	-0.619475	-1.950074
H	-1.712245	-1.679656	-1.692848
H	-2.436004	-0.059912	-1.459133
H	-1.752432	-0.499382	-3.02951
N	-0.447774	-1.182557	0.745169
O	-0.89127	-1.001252	1.884293
O	-0.305137	-2.295983	0.232926
H	2.711585	0.0	0.0
