16

C	-0.545367	0.060429	-1.411141
C	0.0	0.0	0.0
Br	0.047388	-1.469042	-2.518964
H	1.087465	0.0	0.0
H	-0.331825	0.912208	0.505214
N	-1.992948	-0.003131	-1.388563
H	-2.365667	0.237467	-2.301042
H	-2.338113	0.660225	-0.702275
C	0.059801	1.301376	-2.059776
H	1.150212	1.262834	-1.980554
H	-0.240072	1.369802	-3.108793
H	-0.303479	2.189088	-1.52853
N	-0.556735	-1.096703	0.802273
O	-1.337208	-0.794265	1.718552
O	-0.199561	-2.245714	0.549804
H	2.764307	0.0	0.0
