14
Coordinates from ORCA-job run
  C   0.74803502032266      0.14681779019328      0.37348043829338
  C   -0.78442678195908     -0.03179200613793      0.28473943471203
  Br  1.34193399403983      0.00091070940662      2.20358476506863
  H   -1.22170975887359      0.68817360484165      0.98021013670098
  N   1.10893341434904      1.56081637976325     -0.10315798551107
  O   2.11527394255196      1.67838399682950     -0.78605532712472
  O   0.35580228483510      2.44492244580458      0.27968696297823
  C   1.42681251378835     -0.83644872980765     -0.45268294624339
  N   1.89406304738292     -1.68957372677660     -1.11406528455715
  N   -1.13037491293607     -1.37354669011318      0.69074072947801
  H   -0.98130810782523     -2.03542754798850     -0.06195695415166
  H   -2.09979473599722     -1.41962405566560      0.97533721033985
  C   -1.20851799730127      0.32401098777590     -1.08448760029357
  N   -1.56372192237742      0.54337684187468     -2.18337357968954
