14
Coordinates from ORCA-job run
  C   0.64811759283638      0.36861087631139      0.49288592258724
  C   -0.67369975825838     -0.41377097331123      0.34478615216955
  Br  0.55883480231590      1.65763563029885      1.93395374306372
  H   -0.72994935815477     -1.03948221745852      1.24255437915981
  N   0.95204369793637      1.14704902289498     -0.79527148405225
  O   -0.01151091356905      1.42208072455796     -1.49816365911475
  O   2.11905875098319      1.45101747916131     -0.98130473635956
  C   1.74299369766029     -0.55861080949470      0.73109601532786
  N   2.59347420853942     -1.33391505508559      0.97084290205243
  N   -0.54699538808889     -1.27097084807556     -0.81368265882397
  H   -1.03750411692013     -2.14422092774119     -0.67934936666377
  H   -0.89301432921620     -0.81378246216856     -1.64701922110468
  C   -1.85853578397386      0.45989900653541      0.35463564944410
  N   -2.86331310209027      1.06846055357546      0.34503636231428
