14
Coordinates from ORCA-job run
  C   0.61191326824569      0.37053983446794      0.40029561338894
  C   -0.57181006403077     -0.47596562330815     -0.12057868791378
  Br  0.00592644257003      1.99269427480098      1.23363857632782
  H   -0.11599309730755     -1.37328646224285     -0.55093694568842
  N   1.46449926759921      0.67265141131385     -0.86264206706147
  O   1.61119878878220      1.82304289489741     -1.21964335930349
  O   1.89668652081463     -0.34356094116279     -1.38933292784490
  C   1.44194653450910     -0.38383827214381      1.32468873699262
  N   2.09444608231052     -1.01366895353312      2.07376418500041
  N   -1.23191189451015      0.24811904801702     -1.18200280574794
  H   -1.86265656970442      0.94934293048669     -0.81334159394649
  H   -1.75740120812125     -0.38559689057996     -1.76999492983973
  C   -1.42622441294028     -0.88204789918968      1.00784549148605
  N   -2.16161965821697     -1.19842535182355      1.86824071415037
