14
Coordinates from ORCA-job run
  C   0.74067475262452      0.16697146041431      0.38190382489642
  C   -0.78362777984968     -0.06477873096674      0.27801108300813
  Br  1.32533423762142      0.01591449326444      2.21473968118721
  H   -1.25087341514907      0.62953049799001      0.98019101073273
  N   1.05061685954931      1.60082496904526     -0.07186920654083
  O   2.03944083458701      1.76344349744454     -0.77084662246532
  O   0.27558793325119      2.45263594249300      0.33939789098948
  C   1.46158467465697     -0.77815369686023     -0.45262604989457
  N   1.96427112588927     -1.60185551398951     -1.12527903482193
  N   -1.08536505811244     -1.42352226639491      0.66150559123079
  H   -2.05377358268992     -1.50761020215458      0.94043883438813
  H   -0.90905748838009     -2.06847915866072     -0.09996238166106
  C   -1.20977185154081      0.29637569233319     -1.08924489657991
  N   -1.56504124245768      0.51970301604195     -2.18735972446926
