14
Coordinates from ORCA-job run
  C   0.68539845808392      0.13823614762060      0.33310025607995
  C   -0.86520923855842     -0.03757696614416      0.23265205660216
  Br  1.25559406849048     -0.13258873542121      2.16266844314204
  H   -1.29334082336472      0.68038647747556      0.93827889435080
  N   1.03539972624636      1.58050361460548     -0.05348276087238
  O   1.90807982883929      1.73868669707171     -0.89466668321067
  O   0.38178301210944      2.43929884128511      0.52091761767219
  C   1.36954591210231     -0.79707989573341     -0.53990707509851
  N   1.83903475645293     -1.62296501022569     -1.23386296984795
  N   -1.36519512221031     -1.35208438120268      0.51886108245220
  H   -0.98478229804617     -2.05037758715373     -0.10847973051441
  H   -1.19052690319878     -1.61432597949376      1.47974186113743
  C   -1.25100877350924      0.35972121472855     -1.12856430633301
  N   -1.52477260343709      0.66816556258762     -2.22825668555982
