14
Coordinates from ORCA-job run
  C   0.74812626055685      0.13282846553267      0.36014083325855
  C   -0.78628323408556     -0.06046718427729      0.22221553414490
  Br  1.26406126077063     -0.10832865267488      2.20635652262138
  H   -1.25073318700551      0.66937930343928      0.89144514979329
  N   1.10439032006663      1.57469377803118     -0.02435332205125
  O   0.33851966643370      2.42800737969902      0.40402978651633
  O   2.11004780346221      1.74559832883888     -0.69695393238955
  C   1.46915315222843     -0.79811648119798     -0.48780556891627
  N   2.00686746796063     -1.57559825917971     -1.18717522297688
  N   -1.12244228068515     -1.42687985219802      0.55861074090873
  H   -1.55926753446499     -1.92080024141333     -0.20575862610973
  H   -1.70765471690028     -1.47426456469181      1.37909076589164
  C   -1.15922185891381      0.28383107651386     -1.15555999589624
  N   -1.45656311942378      0.53011690357813     -2.26528266479490
