16

C	-0.442769	-0.030012	-1.46789
C	0.0	0.0	0.0
Cl	-2.211431	-0.227983	-1.641092
H	1.09603	0.0	0.0
C	-0.061445	1.187052	-2.176411
N	0.1995	2.188819	-2.732461
N	0.219922	-1.225912	-2.185714
O	-0.178727	-2.334807	-1.861611
O	1.08622	-0.960606	-3.004433
C	-0.430308	-1.198904	0.849331
H	-1.511443	-1.346943	0.844642
H	0.066156	-2.101795	0.500622
H	-0.098554	-1.007074	1.871177
C	-0.501055	1.238725	0.585127
N	-0.927827	2.210379	1.089681
Cl	3.190791	0.0	0.0
