16

C	-0.525476	-0.022816	-1.437474
C	0.0	0.0	0.0
Cl	0.324465	-1.248062	-2.392882
H	1.094532	0.0	0.0
C	-1.962306	-0.283431	-1.492157
N	-3.105893	-0.554534	-1.459838
N	-0.265742	1.332578	-2.123481
O	0.826104	1.830789	-1.91023
O	-1.162685	1.766477	-2.840566
C	-0.424036	-1.249462	0.780279
H	-0.037051	-2.139324	0.28207
H	0.034107	-1.199969	1.769181
H	-1.508513	-1.326473	0.888506
C	-0.513436	1.201843	0.652337
N	-0.970263	2.140065	1.193049
Cl	3.239803	0.0	0.0
