16

C	0.0	0.0	0.0
C	-0.645257	0.050889	-1.358017
Cl	1.773864	0.0	0.0
H	-1.770806	0.005983	-1.074793
H	-0.383347	0.957217	-1.892262
N	-0.366013	1.334488	0.687308
O	-0.411863	2.333108	-0.021498
O	-0.498187	1.322783	1.903538
C	-0.479963	-1.132623	0.871142
H	-0.180594	-2.075364	0.422008
H	-0.057562	-1.039714	1.869645
H	-1.575681	-1.055466	0.891058
N	-0.260826	-1.069039	-2.219861
O	-0.491918	-2.224021	-1.846692
O	0.231534	-0.791123	-3.322674
H	-3.049655	0.0	0.0
