18

C	-0.448868	0.125597	-1.458966
C	0.0	0.0	0.0
F	-1.736403	0.597061	-1.526755
H	1.093826	0.0	0.0
C	0.467691	0.988471	-2.287652
H	1.491387	0.622299	-2.200027
H	0.134489	0.98192	-3.328422
H	0.430267	2.011888	-1.912486
N	-0.482785	-1.263295	-2.089553
O	0.605777	-1.815333	-2.197784
O	-1.570442	-1.715515	-2.432325
C	-0.520389	-1.211551	0.62536
N	-0.956435	-2.161533	1.161802
C	-0.427414	1.22855	0.814415
H	0.005021	1.149077	1.812537
H	-1.512029	1.305701	0.893253
H	-0.031093	2.135394	0.356044
Br	3.47434	0.0	0.0
