18

C	-0.502473	-0.049741	-1.445921
C	0.0	0.0	0.0
F	0.150434	-1.050296	-2.099905
H	1.095897	0.0	0.0
C	-1.989209	-0.255351	-1.62984
H	-2.56288	0.513213	-1.116595
H	-2.227196	-0.226874	-2.69527
H	-2.251286	-1.237994	-1.235843
N	-0.119809	1.249009	-2.151204
O	-0.842709	2.216757	-1.90802
O	0.83966	1.235639	-2.906017
C	-0.455468	-1.226323	0.653287
N	-0.865981	-2.183678	1.197071
C	-0.439927	1.219807	0.816809
H	0.013804	2.122914	0.411785
H	-1.524772	1.343518	0.84424
H	-0.071681	1.091709	1.835948
Br	3.44419	0.0	0.0
