18

C	-0.354343	-0.010267	-1.484232
C	0.0	0.0	0.0
F	0.194139	1.098607	-2.056168
H	1.097095	0.0	0.0
C	0.09932	-1.240149	-2.226767
H	1.178839	-1.328534	-2.07443
H	-0.114926	-1.120894	-3.291544
H	-0.404746	-2.127358	-1.84607
N	-1.866819	0.159754	-1.639345
O	-2.551829	-0.80496	-1.301845
O	-2.294609	1.233914	-2.049888
C	-0.4508	-1.210701	0.675503
N	-0.788976	-2.177156	1.251641
C	-0.489807	1.258291	0.717219
H	-0.046252	1.294015	1.713305
H	-1.579029	1.277168	0.813338
H	-0.159354	2.138541	0.165478
Br	3.450524	0.0	0.0
