18

C	-0.452955	0.16571	-1.451966
C	0.0	0.0	0.0
F	-1.761108	0.580732	-1.500823
H	1.093786	0.0	0.0
C	0.421648	1.104656	-2.243268
H	1.466567	0.809958	-2.138762
H	0.118051	1.093171	-3.29241
H	0.295879	2.116292	-1.853375
N	-0.427115	-1.19965	-2.132359
O	-1.499789	-1.73989	-2.379478
O	0.688602	-1.651324	-2.362164
C	-0.520054	-1.228245	0.59263
N	-0.954906	-2.192246	1.10436
C	-0.424669	1.204586	0.851226
H	-1.50979	1.296307	0.911612
H	-0.013736	1.082037	1.854392
H	-0.003293	2.121019	0.434956
Br	3.467921	0.0	0.0
