18

C	-0.34191	-0.03306	-1.490191
C	0.0	0.0	0.0
F	0.063106	1.146955	-2.043514
H	1.097039	0.0	0.0
C	0.290151	-1.178926	-2.232291
H	1.36938	-1.100147	-2.078462
H	0.055437	-1.100843	-3.296209
H	-0.066556	-2.132875	-1.849359
N	-1.860754	-0.056949	-1.659558
O	-2.437805	1.014882	-1.816143
O	-2.40171	-1.157721	-1.582159
C	-0.455012	-1.21457	0.667517
N	-0.819099	-2.17417	1.239617
C	-0.502829	1.252626	0.71642
H	-1.593209	1.283492	0.778212
H	-0.088162	1.268827	1.725486
H	-0.147981	2.135816	0.186468
Br	3.448622	0.0	0.0
