14

C	-0.549987	-0.023285	-1.42672
C	0.0	0.0	0.0
Cl	-2.315645	-0.275399	-1.390364
H	1.091256	0.0	0.0
H	-0.328585	-0.936405	0.467405
N	-0.247446	1.336391	-2.090672
O	-1.160034	2.122318	-2.275985
O	0.936777	1.493453	-2.345218
C	0.044	-1.05859	-2.264669
N	0.488103	-1.908919	-2.9433
N	-0.461713	1.204157	0.664258
H	-1.278258	1.037834	1.234861
H	0.286993	1.560488	1.24271
Br	3.523985	0.0	0.0
