14

C	-0.499803	-0.005236	-1.44171
C	0.0	0.0	0.0
Cl	0.165225	-1.358584	-2.345856
H	1.097132	0.0	0.0
H	-0.364703	0.923257	0.454712
N	-2.042896	-0.121127	-1.37875
O	-2.593387	-1.113108	-1.818228
O	-2.581114	0.839631	-0.840173
C	-0.213109	1.246615	-2.137018
N	0.006113	2.251113	-2.705778
N	-0.571803	-1.15834	0.683114
H	-0.700532	-0.92462	1.658158
H	0.111227	-1.907615	0.651273
Br	3.542902	0.0	0.0
