14

C	-0.508871	-0.010759	-1.426978
C	0.0	0.0	0.0
Cl	-0.05906	-1.511538	-2.262616
H	1.093064	0.0	0.0
H	-0.345466	-0.917816	0.479639
N	-2.05121	0.019074	-1.408979
O	-2.618396	0.624266	-2.309449
O	-2.59321	-0.60854	-0.508833
C	-0.060964	1.143914	-2.195742
N	0.309864	2.070569	-2.814667
N	-0.516522	1.213078	0.622384
H	0.256893	1.747094	0.995929
H	-1.15809	0.995117	1.371023
Br	3.521	0.0	0.0
