16

C	0.0	0.0	0.0
C	-0.675101	-0.174407	-1.354845
Br	1.969398	0.0	0.0
H	-1.77435	-0.292586	-1.084695
N	-0.496967	1.170348	0.584847
H	-0.273308	1.206121	1.569747
H	-0.219599	2.01315	0.101399
N	-0.404435	-1.14115	0.948113
O	-0.968183	-2.111779	0.469843
O	-0.126397	-0.959702	2.128322
N	-0.250954	-1.3385	-2.203733
O	0.548265	-2.152162	-1.754467
O	-0.789816	-1.388645	-3.310171
C	-0.509049	1.037732	-2.141142
N	-0.324427	2.044656	-2.71658
Cl	-3.569642	0.0	0.0
