11
Coordinates from ORCA-job run
  C   0.07335195807660      0.31293282146253      0.31336141796662
  C   -0.96456570183492     -0.77592287603926      0.10052792666187
  Cl  0.26945923285261      0.67581251938512      2.02747126358205
  H   -1.04584606004300     -0.99374180858201     -0.96616064124411
  H   -1.92944847384183     -0.43735094121256      0.47732485588985
  H   -0.65733637917364     -1.67077545980303      0.64374008025160
  C   -0.24940710312572      1.53692798110068     -0.41077416328995
  N   -0.57186058118306      2.51843587438243     -0.97041577135049
  N   1.40220656832271     -0.23833638737534     -0.25646491089932
  O   1.56111666195719     -0.04505334504169     -1.45463109730040
  O   2.11232987799307     -0.88292837827687      0.49502103973228
