11
Coordinates from ORCA-job run
  C   0.04859549682334      0.30193999114393      0.26609890645876
  C   -0.95328181641297     -0.82168735158221      0.11926937268015
  Cl  0.25539702332917      0.74630693323536      1.97326538693687
  H   -1.02594384744282     -1.11120625848984     -0.93135885923779
  H   -1.92792064729247     -0.47833920785767      0.46658146177075
  H   -0.62980424457983     -1.67508114851358      0.71194981509893
  C   -0.32785695570558      1.48301511698055     -0.50186650902154
  N   -0.71369418382690      2.41136259618456     -1.10997808692029
  N   1.43146019959259     -0.17327443692621     -0.22608860782065
  O   1.73858464932334     -1.31462709747894      0.08358558115802
  O   2.10546432619213      0.63259086330406     -0.85245846110322
