11
Coordinates from ORCA-job run
  C   0.04426742140922      0.31277778263410      0.32148044900726
  C   -0.93400306745414     -0.81852579943381      0.05382003077239
  Cl  0.14515666425667      0.67179497184889      2.04307197606511
  H   -0.61114499094292     -1.70549629088509      0.60144034850160
  H   -1.92831966734956     -0.52738233981329      0.39226609553992
  H   -0.95975977617430     -1.02763128703862     -1.01710458422469
  C   -0.29708964821534      1.52595606695726     -0.41247465985187
  N   -0.62977305435603      2.49658303321076     -0.98502063519528
  N   1.42130348606636     -0.17381155327670     -0.19512952109214
  O   2.17529248056392     -0.70433933579654      0.60085245200937
  O   1.57407015219611     -0.04992524840696     -1.40320195153166
