11
Coordinates from ORCA-job run
  C   0.04192642846143      0.30784614104005      0.32244346973368
  C   -0.93264825678052     -0.82123218967495      0.03415722762989
  Cl  0.13525577321292      0.63988709213145      2.05105233575155
  H   -0.61315538262260     -1.71344935270199      0.57462842842078
  H   -1.93033346456601     -0.53500227077915      0.36643394355923
  H   -0.94896189003745     -1.01879391865827     -1.03939952812996
  C   -0.29829626253137      1.53295560913446     -0.39187740135326
  N   -0.62862217993645      2.52099197868998     -0.93512233538340
  N   1.42171156165137     -0.17025033831462     -0.19033890589027
  O   2.12394651170593     -0.79630565112033      0.58376615326383
  O   1.62917716144276      0.05335290025336     -1.37574338760207
