11
Coordinates from ORCA-job run
  C   0.07205710623247      0.31385125722613      0.31531191589112
  C   -0.96051600699666     -0.78203996358009      0.11142711907204
  Cl  0.27393033494573      0.68654879825916      2.02508399229071
  H   -1.92362104190989     -0.45073152012088      0.49907853289716
  H   -0.64227802326589     -1.67554766089018      0.65074912223288
  H   -1.05087691511012     -0.99908077037352     -0.95418503231172
  C   -0.25970447871671      1.53167166746590     -0.41554546064254
  N   -0.58365754578373      2.50820289552168     -0.98298422844674
  N   1.40155811991023     -0.22978185985060     -0.26496872476766
  O   1.49330069884583     -0.12856981583597     -1.48127489063689
  O   2.17880775184873     -0.77452302782165      0.49830765442163
