17

C	-0.367699	-0.041873	-1.500694
C	0.0	0.0	0.0
Br	0.164602	1.78011	-2.273486
H	1.0947	0.0	0.0
N	0.408006	-0.987806	-2.251079
H	1.395769	-0.826588	-2.056031
H	0.16656	-1.913278	-1.906586
N	-1.738112	-0.310256	-1.72124
H	-1.917156	-0.333955	-2.717486
H	-2.329737	0.382732	-1.283002
C	-0.423078	-1.282646	0.570846
N	-0.77495	-2.29681	1.049303
C	-0.542734	1.148208	0.84592
H	-0.157068	2.09628	0.474589
H	-1.637719	1.175486	0.84967
H	-0.203379	1.020558	1.876206
Br	3.483561	0.0	0.0
