15

C	-0.284619	0.015488	-1.51649
C	0.0	0.0	0.0
Br	0.134697	-1.859226	-2.234306
H	1.095656	0.0	0.0
C	-1.694613	0.188795	-1.863976
N	-2.834551	0.337588	-2.108096
N	0.54084	1.012756	-2.058718
H	0.525237	1.034977	-3.069882
H	1.494459	0.882286	-1.69656
N	-0.508901	-1.15154	0.713985
H	0.272252	-1.578258	1.197772
H	-1.215046	-0.893224	1.386222
C	-0.448643	1.265333	0.569793
N	-0.822672	2.245023	1.104471
H	2.684175	0.0	0.0
