15

C	-0.389558	-0.005449	-1.492159
C	0.0	0.0	0.0
Br	0.244688	-1.690167	-2.29085
H	1.094934	0.0	0.0
C	-1.846259	0.002418	-1.657207
N	-3.020298	0.031487	-1.722005
N	0.225662	1.085132	-2.214352
H	-0.17525	1.956	-1.87596
H	1.212869	1.071297	-1.949284
N	-0.456911	-1.150987	0.74547
H	-1.289964	-0.956945	1.285308
H	0.293353	-1.440422	1.363899
C	-0.441572	1.276358	0.560801
N	-0.809961	2.297053	1.018018
H	2.673612	0.0	0.0
