15

C	-0.52374	-0.061647	-1.433077
C	0.0	0.0	0.0
Br	-0.13873	1.626319	-2.364472
H	1.098323	0.0	0.0
C	0.192632	-1.113164	-2.181578
N	0.611162	-1.995005	-2.837925
N	-1.953503	-0.273925	-1.439508
H	-2.268411	-0.47453	-2.38358
H	-2.100584	-1.100271	-0.863691
N	-0.353296	-1.276602	0.646725
H	0.533862	-1.68642	0.939399
H	-0.911873	-1.117408	1.475782
C	-0.523882	1.145338	0.719052
N	-0.907784	2.037712	1.383513
H	2.613832	0.0	0.0
