15

C	-0.582492	-0.060384	-1.415272
C	0.0	0.0	0.0
Br	0.283695	-1.531745	-2.416748
H	1.093371	0.0	0.0
C	-2.006369	-0.441608	-1.345903
N	-3.160153	-0.663999	-1.266246
N	-0.349093	1.160174	-2.138327
H	-0.854252	1.157814	-3.016559
H	-0.633706	1.95668	-1.578472
N	-0.343026	-1.198266	0.749963
H	-1.073632	-1.040122	1.430591
H	0.506217	-1.498097	1.221255
C	-0.453879	1.228064	0.63853
N	-0.81271	2.223254	1.157729
H	2.592075	0.0	0.0
