15

C	-0.566032	-0.055847	-1.412849
C	0.0	0.0	0.0
Br	0.285002	1.46584	-2.469856
H	1.095742	0.0	0.0
C	-0.147503	-1.278442	-2.101589
N	0.110119	-2.23422	-2.734522
N	-1.987451	0.030845	-1.434619
H	-2.33798	0.002284	-2.385396
H	-2.280082	0.899447	-0.999904
N	-0.321419	-1.242758	0.682775
H	0.483046	-1.484871	1.255454
H	-1.156851	-1.180039	1.247131
C	-0.497077	1.194202	0.673796
N	-0.931823	2.13858	1.227607
H	2.604422	0.0	0.0
