15

C	0.0	0.0	0.0
C	-0.618503	-0.018143	-1.382848
Cl	1.776989	0.0	0.0
H	-0.343951	0.876128	-1.942019
H	-1.733563	-0.006857	-1.092002
N	-0.390137	1.331978	0.64958
O	-0.479603	2.3099	-0.084302
O	-0.504394	1.352236	1.867757
C	-0.488897	-1.143011	0.858743
H	-1.581917	-1.040728	0.854699
H	-0.174749	-2.080773	0.394728
H	-0.067534	-1.075402	1.860456
C	-0.250839	-1.209057	-2.121434
N	0.026779	-2.169567	-2.740252
F	-2.850198	0.0	0.0
