15

C	0.0	0.0	0.0
C	-0.630342	-0.024073	-1.37687
Cl	1.763016	0.0	0.0
H	-0.521494	-1.039967	-1.768467
H	-1.733999	0.116182	-1.096906
N	-0.393232	1.304799	0.702964
O	-0.641597	2.271326	-0.003452
O	-0.362277	1.309812	1.92803
C	-0.503261	-1.166173	0.825227
H	-0.150702	-2.092579	0.365254
H	-1.598247	-1.079289	0.784117
H	-0.120827	-1.099396	1.84195
C	-0.099756	0.909094	-2.352568
N	0.307633	1.615058	-3.199567
F	-2.866529	0.0	0.0
