15

C	0.0	0.0	0.0
C	-0.373928	-0.195786	-1.469667
Cl	1.779225	0.0	0.0
H	0.101808	0.605261	-2.040091
H	0.118277	-1.125153	-1.777332
N	-0.436793	1.364767	0.49066
O	-0.53874	1.515731	1.7013
O	-0.558604	2.247431	-0.349645
C	-0.431241	-1.096449	0.949851
H	0.00034	-0.921968	1.935069
H	-0.058741	-2.047762	0.559041
H	-1.522968	-1.055149	0.957312
C	-1.781965	-0.279154	-1.903836
N	-2.558858	-0.442233	-2.78065
F	-2.584464	0.0	0.0
