15

C	0.0	0.0	0.0
C	-0.618119	-0.040235	-1.382606
Cl	1.7771	0.0	0.0
H	-0.343464	0.844937	-1.955696
H	-1.733137	-0.024738	-1.09242
N	-0.390412	1.341992	0.628217
O	-0.504199	1.381534	1.845947
O	-0.479673	2.30822	-0.121063
C	-0.48878	-1.129083	0.877155
H	-0.066927	-1.045913	1.877488
H	-0.175125	-2.074116	0.427821
H	-1.581852	-1.026886	0.871916
C	-0.250024	-1.242807	-2.101778
N	0.027827	-2.213105	-2.705101
F	-2.850127	0.0	0.0
