14

C	-0.464498	-0.022515	-1.439968
C	0.0	0.0	0.0
Cl	-2.230294	-0.186958	-1.634832
H	1.093796	0.0	0.0
H	0.009121	-0.839172	-1.982773
N	0.001251	1.238341	-2.13068
O	-0.73181	2.218276	-2.143353
O	1.133166	1.164205	-2.600752
C	-0.425126	-1.235487	0.655003
N	-0.771962	-2.205802	1.223081
N	-0.386228	1.211845	0.687126
H	-1.271992	1.124968	1.167486
H	0.351895	1.437748	1.346663
H	2.623527	0.0	0.0
