14

C	-0.609572	0.069178	-1.389195
C	0.0	0.0	0.0
Cl	0.222249	1.249635	-2.413379
H	1.092652	0.0	0.0
H	-1.661908	0.344971	-1.363994
N	-0.56897	-1.269777	-2.0775
O	-1.644741	-1.692456	-2.508061
O	0.511794	-1.839212	-2.151604
C	-0.484703	-1.185078	0.691713
N	-0.884169	-2.126094	1.276026
N	-0.328088	1.242936	0.703352
H	-0.983096	1.082433	1.45724
H	0.551704	1.575689	1.093745
H	2.609515	0.0	0.0
