14

C	-0.403607	-0.032014	-1.445229
C	0.0	0.0	0.0
Cl	-0.232176	-1.625608	-2.191781
H	1.101663	0.0	0.0
H	0.209565	0.676231	-1.999736
N	-1.830827	0.417093	-1.661345
O	-2.659114	0.123022	-0.806003
O	-2.062871	1.038294	-2.696353
C	-0.495641	-1.109539	0.799434
N	-0.843498	-1.967674	1.525068
N	-0.335395	1.322569	0.518986
H	0.459682	1.635012	1.069117
H	-1.163533	1.294166	1.099241
H	2.615441	0.0	0.0
