14

C	-0.612156	0.054508	-1.392258
C	0.0	0.0	0.0
Cl	0.216437	1.227464	-2.420983
H	1.098033	0.0	0.0
H	-1.663281	0.332307	-1.352779
N	-0.586097	-1.304663	-2.045449
O	0.474535	-1.728292	-2.481698
O	-1.660833	-1.907487	-2.042553
C	-0.476469	-1.167829	0.722778
N	-0.845177	-2.085004	1.363057
N	-0.337399	1.252736	0.686421
H	0.555259	1.629682	0.999602
H	-0.91763	1.083656	1.498338
H	2.607085	0.0	0.0
