14

C	-0.610458	0.090191	-1.392469
C	0.0	0.0	0.0
Cl	0.240001	1.259204	-2.402291
H	1.097951	0.0	0.0
H	-1.656611	0.388294	-1.351147
N	-0.618954	-1.260448	-2.065284
O	-1.707907	-1.837192	-2.051735
O	0.424424	-1.706438	-2.519746
C	-0.475236	-1.182105	0.697454
N	-0.84045	-2.115161	1.313718
N	-0.323809	1.240768	0.710135
H	-0.95198	1.069103	1.485068
H	0.560521	1.589989	1.081763
H	2.605179	0.0	0.0
