14

C	-0.614294	0.064728	-1.391802
C	0.0	0.0	0.0
Cl	0.21069	1.240479	-2.4132
H	1.098042	0.0	0.0
H	-1.66496	0.343383	-1.348622
N	-0.599513	-1.290132	-2.055063
O	0.446219	-1.711084	-2.524846
O	-1.673594	-1.895427	-2.018718
C	-0.469341	-1.175454	0.716297
N	-0.827805	-2.101857	1.347897
N	-0.324724	1.24967	0.69488
H	-0.960949	1.089204	1.46307
H	0.559835	1.594289	1.068765
H	2.607189	0.0	0.0
