16
Coordinates from ORCA-job run
  C   -0.59917951695719      0.07111818971824     -0.25012694665729
  C   0.86697020624112     -0.34236132927764     -0.11391471837898
  F   -0.63397184824741      1.02287701036864     -1.27860753438943
  H   1.17957450873608     -0.77203703268027     -1.07113023063602
  H   0.92725208454575     -1.14308074926838      0.63182383684294
  C   -1.48329072161402     -1.08338251231924     -0.67317729714231
  H   -1.49121443511154     -1.86970753714053      0.08600425579162
  H   -1.11946421362092     -1.50812992613707     -1.60986188981594
  H   -2.49942508004720     -0.71517959221698     -0.81620065195368
  N   -1.18249712971541      0.72086245706420      0.89834517685471
  H   -1.31464620508148      0.05726454601485      1.65080299806219
  H   -0.58499741950647      1.46923435293817      1.22671081179931
  C   1.79988042166221      0.80463353903175      0.26000953547427
  H   2.84212034039497      0.48183278160044      0.21928376650279
  H   1.67695000489949      1.63802496002239     -0.43316578429001
  H   1.61593900342203      1.16703084228143      1.27420467193584
