16
Coordinates from ORCA-job run
  C   -0.68173920766323      0.24585758388879     -0.24555854975519
  C   0.76872699201073      0.58844913041577     -0.54768569793888
  F   -1.43793582540542      0.87374189849483     -1.27869160191552
  H   0.85934593119990      1.68032169058522     -0.50816013706283
  H   0.96406114261567      0.30055066054955     -1.58462369900944
  C   -1.00508807375704     -1.23038922195032     -0.33863962118954
  H   -0.51372247324604     -1.78833195373845      0.45774661188449
  H   -0.69064321909290     -1.62225278744082     -1.30712022734837
  H   -2.08539634219552     -1.37073420501643     -0.25199814307393
  N   -1.06205244132530      0.75891091917305      1.02669011275866
  H   -0.93581354731714      1.76396632432148      1.04934419588048
  H   -2.03581051279875      0.55423457235261      1.21549981644586
  C   1.77011868815633     -0.06377806500684      0.39845174538961
  H   1.78024225306283     -1.14943950074202      0.28222444701070
  H   1.52462258615545      0.16461844717829      1.43607083883493
  H   2.78108404960043      0.29627450693530      0.19444990908897
