16
Coordinates from ORCA-job run
  C   -0.73614057647147      0.26309414260377     -0.34720039904421
  C   0.73836649558027      0.57718305922009     -0.58422774671029
  F   -1.40417536334274      0.87006742096176     -1.42417785499502
  H   1.00953640833720      0.21240991159092     -1.57971575294236
  H   0.82540801893022      1.66948824496749     -0.61953797068406
  C   -1.06829878746149     -1.21385685096408     -0.40856728018378
  H   -0.74083299458875     -1.62723383224957     -1.36343868107302
  H   -0.58917152149855     -1.77162964502448      0.39845923927366
  H   -2.14980475534032     -1.33122704470853     -0.32787697108564
  N   -1.28566382723742      0.83283498742028      0.85103755371254
  H   -0.86394342590778      1.72622745321485      1.07003552962394
  H   -1.19416617788051      0.21336027901053      1.64265093476879
  C   1.67823330645567      0.00343859531807      0.46975815237047
  H   2.70322051487565      0.33600795094256      0.29324688377335
  H   1.39517477618494      0.32926785086260      1.47333565691696
  H   1.68225790936509     -1.08843252316626      0.45521870627867
