17

C	-0.496317	-0.060383	-1.45036
C	0.0	0.0	0.0
Cl	0.104193	1.476847	-2.274334
H	1.093241	0.0	0.0
C	0.141093	-1.226204	-2.174656
H	1.226047	-1.1513	-2.085124
H	-0.197278	-2.150049	-1.70711
H	-0.139772	-1.212204	-3.231902
N	-1.924811	-0.133427	-1.477075
H	-2.323269	0.7275	-1.117488
H	-2.247179	-0.253762	-2.429886
N	-0.401714	-1.226909	0.682156
H	-1.36828	-1.17669	0.978084
H	0.197906	-1.35547	1.487956
C	-0.523175	1.205021	0.668385
N	-1.025406	2.089829	1.257431
Cl	3.345337	0.0	0.0
