17

C	-0.426584	-0.009173	-1.467697
C	0.0	0.0	0.0
Cl	-2.343614	0.192019	-1.458052
H	1.095716	0.0	0.0
C	0.111323	1.176424	-2.231983
H	-0.263368	2.113442	-1.819801
H	1.201173	1.143461	-2.147621
H	-0.181081	1.115173	-3.283236
N	-0.056967	-1.228513	-2.032181
H	-0.416631	-1.360641	-2.965851
H	-0.284633	-1.992899	-1.408868
N	-0.436853	-1.220053	0.67015
H	0.22644	-1.437836	1.404099
H	-1.357463	-1.096897	1.074155
C	-0.439375	1.226024	0.679477
N	-0.779634	2.179125	1.27672
Cl	3.318005	0.0	0.0
