17

C	-0.243058	-0.087722	-1.510176
C	0.0	0.0	0.0
Cl	-2.00753	-0.287866	-1.880933
H	1.105676	0.0	0.0
C	0.237726	1.174003	-2.20815
H	-0.334005	2.049213	-1.899761
H	0.138066	1.054175	-3.289216
H	1.291443	1.318725	-1.955421
N	0.430108	-1.299061	-1.938049
H	0.380742	-1.373097	-2.948017
H	1.411963	-1.209941	-1.66627
N	-0.543552	-1.157138	0.717195
H	-0.472213	-1.935921	0.066451
H	0.104301	-1.357051	1.474569
C	-0.523263	1.242826	0.563789
N	-0.943992	2.240675	1.017802
Cl	3.340259	0.0	0.0
