17

C	-0.42507	-0.010155	-1.46801
C	0.0	0.0	0.0
Cl	-2.342572	0.192826	-1.457137
H	1.095651	0.0	0.0
C	0.113632	1.175993	-2.231506
H	-0.178649	1.11494	-3.282843
H	-0.260869	2.113179	-1.819362
H	1.203471	1.14241	-2.14676
N	-0.056506	-1.228977	-2.031516
H	-0.407998	-1.360265	-2.968265
H	-0.284965	-1.995374	-1.410338
N	-0.438783	-1.219562	0.669646
H	0.219998	-1.434953	1.407605
H	-1.362122	-1.097772	1.068197
C	-0.436769	1.228284	0.677507
N	-0.761532	2.197806	1.256629
Cl	3.318676	0.0	0.0
