17

C	-0.225501	-0.0346	-1.528621
C	0.0	0.0	0.0
Cl	-1.994305	-0.273214	-1.904286
H	1.099823	0.0	0.0
C	0.210058	1.267367	-2.179992
H	-0.392938	2.113212	-1.84676
H	0.125251	1.183347	-3.267131
H	1.257701	1.43768	-1.912897
N	0.483246	-1.204072	-1.999011
H	1.4503	-1.118827	-1.677536
H	0.492122	-1.205097	-3.013128
N	-0.461937	-1.154723	0.747564
H	-1.39924	-1.393467	0.439416
H	0.145447	-1.92901	0.507981
C	-0.52771	1.2306	0.588427
N	-0.978698	2.212598	1.049071
Cl	3.317027	0.0	0.0
