14

C	0.0	0.0	0.0
C	-0.559232	-0.015667	-1.398097
Cl	1.767281	0.0	0.0
H	-0.036675	0.736243	-1.993832
H	-0.362482	-0.815087	0.621761
H	-1.611754	0.266598	-1.301714
N	-0.378713	1.262347	0.745005
O	-0.467389	2.29532	0.092085
O	-0.490493	1.161821	1.961376
C	-0.471338	-1.405894	-2.012475
H	0.553382	-1.787603	-2.041271
H	-1.097293	-2.096729	-1.442995
H	-0.856097	-1.385987	-3.034505
Br	-3.753901	0.0	0.0
