16

C	-0.433395	0.001292	-1.451401
C	0.0	0.0	0.0
Br	-2.369089	-0.054259	-1.68209
H	1.094065	0.0	0.0
H	-0.033995	-0.862719	-1.970573
N	0.08781	1.201312	-2.196602
O	-0.309628	2.313296	-1.865624
O	0.868347	0.954845	-3.109779
N	-0.363994	-1.353185	0.553182
O	-0.23191	-2.322696	-0.191087
O	-0.72196	-1.419458	1.727011
C	-0.512728	1.105673	0.891245
H	-0.085822	0.977266	1.884205
H	-1.601466	1.102499	0.964935
H	-0.180532	2.062678	0.49344
Cl	3.209654	0.0	0.0
