16

C	-0.578227	0.02217	-1.398396
C	0.0	0.0	0.0
Br	0.079844	1.544854	-2.392502
H	1.089323	0.0	0.0
H	-1.664822	0.069394	-1.415167
N	-0.234085	-1.215146	-2.194355
O	-0.978324	-1.45628	-3.141492
O	0.742624	-1.863473	-1.848413
N	-0.470479	-1.261824	0.662605
O	0.070634	-1.572754	1.716227
O	-1.410135	-1.873126	0.139872
C	-0.498092	1.156111	0.856343
H	-1.592536	1.185791	0.89358
H	-0.101444	1.031004	1.86396
H	-0.120968	2.0981	0.46048
Cl	3.314016	0.0	0.0
