16

C	-0.41675	0.014467	-1.461485
C	0.0	0.0	0.0
Br	0.214797	-1.533305	-2.407081
H	1.091128	0.0	0.0
H	0.033227	0.891017	-1.926033
N	-1.91186	0.188998	-1.663479
O	-2.616728	-0.768258	-1.942618
O	-2.298306	1.347687	-1.503765
N	-0.501123	-1.243347	0.664197
O	0.314395	-2.058856	1.077376
O	-1.728223	-1.34404	0.770781
C	-0.484807	1.19439	0.80434
H	-0.030337	1.134614	1.795868
H	-1.569422	1.222076	0.896261
H	-0.137472	2.113996	0.331756
Cl	3.317524	0.0	0.0
