9
Coordinates from ORCA-job run
  C   0.87030382141047     -0.06855586924192     -0.37301517381444
  C   -0.35886550924980     -0.02131952524130      0.53051097027696
  Br  2.45896630284565     -0.42219098433885      0.68283894857336
  H   -0.47941944268003     -0.97114388023823      1.05683051739649
  H   1.02524223987700      0.88247036372311     -0.87951601295803
  H   0.78894479916056     -0.86596554924417     -1.10957297500119
  H   -0.24531466559758      0.76094447463089      1.28475102270482
  C   -1.55920133944627      0.24538425928746     -0.26341538870528
  N   -2.50165620631999      0.46037671066301     -0.92841190847269
