9
Coordinates from ORCA-job run
  C   0.92545014293632     -0.18287139227463     -0.33294246214707
  C   -0.45009203279747     -0.42990529131563      0.27536353142805
  Br  1.83955574071321      1.27955805018526      0.55296989376267
  H   -0.88420207116832     -1.32463276104034     -0.18446192598160
  H   0.85189880905386      0.07646762019692     -1.38789222636698
  H   1.55039574661794     -1.06726069117880     -0.21575520289420
  H   -0.35997482491137     -0.62053654374137      1.34747026427369
  C   -1.36742585452114      0.68895557452050      0.06642693867713
  N   -2.10560565592304      1.58122543464808     -0.12017881075170
