9
Coordinates from ORCA-job run
  C   0.91136179094593      0.09132015726941     -0.25140068852579
  C   -0.41719747507550     -0.23345694357986      0.42589898378453
  Br  2.38116115905721     -0.64291231576084      0.78030258035323
  H   -0.54405536855650     -1.31512677217956      0.51316465800129
  H   1.06906474871441      1.16643702994799     -0.31699514198410
  H   0.96532325962334     -0.34741773544261     -1.24622171066301
  H   -0.44006287295296      0.18300890798271      1.43572771743542
  C   -1.52829685438698      0.32106052129368     -0.34882079294748
  N   -2.39629838736896      0.77808715046910     -0.99265560545409
