9
Coordinates from ORCA-job run
  C   0.92126348598017      0.15535219831565     -0.17023792226674
  C   -0.44525779537041     -0.41482668847505      0.19962760562595
  Br  2.29862958358880     -1.18135146203057      0.11244846192665
  H   -0.45563437087633     -0.72598775347743      1.24690369672442
  H   1.17267635846378      1.01327661612862      0.45091425433252
  H   0.95948097230893      0.44047217601373     -1.22014119379374
  H   -0.66570948622293     -1.29597078885088     -0.40758317508984
  C   -1.48719135410061      0.59049131366968     -0.01469254168579
  N   -2.29825739377141      1.41854438870624     -0.19723918577344
