9
Coordinates from ORCA-job run
  C   0.94582002866549     -0.17388807079460     -0.27568548386409
  C   -0.47128818687242     -0.44019395794576      0.21818243136124
  Br  1.80305193690642      1.22763050683592      0.75404381943605
  H   -0.45996130285153     -0.68995139809114      1.28184160978123
  H   0.94961056130336      0.14466444362604     -1.31688145709164
  H   1.55553907298420     -1.06956509289690     -0.16438732920640
  H   -0.87680655361507     -1.30386948750753     -0.32033636753660
  C   -1.36428790725713      0.69786141571025      0.00647470654605
  N   -2.08167764926332      1.60631164106372     -0.18325192942584
