15

C	0.0	0.0	0.0
C	-0.449616	0.244957	-1.451423
F	1.417252	0.0	0.0
H	-1.544671	0.325726	-1.37748
C	-0.365881	1.146739	0.858132
N	-0.520619	2.080325	1.552307
N	-0.467897	-1.218742	0.544761
H	-1.456891	-1.08378	0.773554
H	-0.42872	-1.899154	-0.209431
N	-0.105994	-0.927199	-2.246885
H	0.840209	-0.85234	-2.596915
H	-0.742979	-1.007732	-3.027404
C	0.105128	1.492933	-1.995124
N	0.545727	2.455609	-2.505896
Br	-3.630873	0.0	0.0
