15

C	0.0	0.0	0.0
C	-0.330055	0.212494	-1.518467
F	1.379596	0.0	0.0
H	0.440409	0.930776	-1.823749
C	-0.360238	1.246778	0.735096
N	-0.585319	2.235366	1.328692
N	-0.544238	-1.193534	0.526747
H	-1.551832	-1.191008	0.346478
H	-0.417703	-1.226689	1.532475
N	-1.599341	0.73486	-1.943847
H	-2.389785	0.218566	-1.555812
H	-1.710499	1.684251	-1.603202
C	-0.013628	-1.04125	-2.222954
N	0.292808	-1.995177	-2.833504
Br	-4.097161	0.0	0.0
