15

C	0.0	0.0	0.0
C	-0.30188	0.23063	-1.523282
F	1.379517	0.0	0.0
H	0.29588	1.118543	-1.76401
C	-0.379078	1.220057	0.761943
N	-0.615537	2.199529	1.366315
N	-0.556641	-1.210297	0.4779
H	-1.567136	-1.172128	0.31119
H	-0.427533	-1.284966	1.481468
N	-1.63733	0.44206	-2.00287
H	-2.057692	1.239196	-1.537345
H	-2.254853	-0.325569	-1.759092
C	0.31907	-0.890928	-2.253174
N	0.802561	-1.763322	-2.871451
Br	-4.093929	0.0	0.0
