15

C	0.0	0.0	0.0
C	-0.319394	0.002318	-1.532977
F	1.375051	0.0	0.0
H	0.323471	0.805304	-1.915771
C	-0.374426	1.326008	0.567264
N	-0.629994	2.386894	1.002916
N	-0.547002	-1.123198	0.667044
H	-1.560651	-1.118442	0.515233
H	-0.391478	-1.051488	1.667178
N	-1.65164	0.227024	-2.019138
H	-2.008582	1.105911	-1.658647
H	-2.311963	-0.460348	-1.666271
C	0.217993	-1.253706	-2.088368
N	0.647184	-2.228873	-2.578952
Br	-4.134531	0.0	0.0
