15

C	0.0	0.0	0.0
C	-0.284738	0.21509	-1.540839
F	1.376374	0.0	0.0
H	0.394377	1.025444	-1.831913
C	-0.428647	1.218038	0.71793
N	-0.655705	2.244514	1.239978
N	-0.537599	-1.150562	0.624076
H	-0.444333	-1.955462	0.015117
H	-1.529123	-0.99717	0.809807
N	-1.607004	0.539782	-1.998781
H	-2.312558	-0.068631	-1.585862
H	-1.861213	1.462642	-1.662836
C	0.193375	-1.006229	-2.213614
N	0.554638	-1.999588	-2.724086
Br	-4.088542	0.0	0.0
