15

C	0.0	0.0	0.0
C	-0.585576	0.067754	-1.397516
Br	1.945967	0.0	0.0
H	-1.691288	0.016074	-1.241653
H	-0.303951	-0.953212	0.429754
C	-0.479791	1.166101	0.846699
H	-1.5722	1.155773	0.859132
H	-0.103804	1.060251	1.865885
H	-0.118541	2.113825	0.441096
N	-0.226719	-1.143783	-2.218449
O	-0.195458	-2.214111	-1.622415
O	-0.045384	-0.988091	-3.422822
C	-0.227601	1.279833	-2.119034
N	0.042407	2.293145	-2.648068
Br	-3.743043	0.0	0.0
