15

C	0.0	0.0	0.0
C	-0.578124	-0.012197	-1.402711
Br	1.946021	0.0	0.0
H	-1.683226	-0.068934	-1.249205
H	-0.305481	-0.92762	0.481616
C	-0.484232	1.211277	0.776078
H	-0.126368	2.135562	0.316209
H	-1.57656	1.195307	0.78401
H	-0.111438	1.16762	1.801098
N	-0.190432	-1.263544	-2.145971
O	-0.262227	-2.308943	-1.508926
O	0.12661	-1.164208	-3.328197
C	-0.232339	1.164261	-2.186491
N	-0.00195	2.132766	-2.809874
Br	-3.738364	0.0	0.0
