15

C	0.0	0.0	0.0
C	-0.294723	0.042225	-1.52475
Br	1.948939	0.0	0.0
H	0.400199	-0.656451	-1.992494
H	-0.316593	-0.985782	0.34587
C	-0.553091	1.08792	0.889346
H	-0.157505	2.066428	0.62065
H	-1.643869	1.079386	0.791669
H	-0.282367	0.865108	1.924535
N	0.106574	1.374554	-2.12657
O	0.997593	1.347975	-2.973321
O	-0.496057	2.371764	-1.746687
C	-1.594039	-0.298187	-2.119372
N	-2.319269	-0.644761	-2.979932
Br	-3.82707	0.0	0.0
