14

C	-0.43697	0.005478	-1.474985
C	0.0	0.0	0.0
Br	0.219132	-1.569126	-2.427651
H	1.095609	0.0	0.0
H	0.027597	0.855174	-1.979547
C	-1.887127	0.064156	-1.63209
N	-3.057179	0.11247	-1.733521
C	-0.5177	-1.187926	0.805716
H	-0.175439	-1.092376	1.837376
H	-1.610207	-1.240387	0.79704
H	-0.104386	-2.111424	0.400241
C	-0.461402	1.261368	0.581083
N	-0.866205	2.264309	1.04117
Br	3.439365	0.0	0.0
