14

C	-0.526126	-0.016649	-1.443349
C	0.0	0.0	0.0
Br	0.12446	1.502708	-2.475876
H	1.095414	0.0	0.0
H	-1.61565	0.082647	-1.443745
C	-0.181682	-1.251469	-2.140295
N	0.055521	-2.258508	-2.69868
C	-0.456779	-1.248508	0.763507
H	-0.012833	-2.13555	0.309758
H	-0.096166	-1.184121	1.790847
H	-1.545973	-1.348308	0.776974
C	-0.494862	1.20103	0.666349
N	-0.951772	2.120188	1.237718
Br	3.435799	0.0	0.0
