14

C	-0.526889	-0.016437	-1.443565
C	0.0	0.0	0.0
Br	0.135013	1.497567	-2.479889
H	1.095466	0.0	0.0
H	-1.615971	0.089508	-1.444746
C	-0.181719	-1.246136	-2.145727
N	0.070031	-2.246726	-2.707875
C	-0.453391	-1.251721	0.760519
H	-0.09636	-1.189321	1.789696
H	-0.007278	-2.137558	0.305264
H	-1.542213	-1.354177	0.770318
C	-0.503586	1.197561	0.66803
N	-0.95675	2.123064	1.232684
Br	3.429779	0.0	0.0
