14

C	-0.343083	-0.042868	-1.487208
C	0.0	0.0	0.0
Br	-2.249038	-0.421403	-1.840228
H	1.098151	0.0	0.0
H	0.204212	-0.874869	-1.935911
C	-0.009361	1.190009	-2.189597
N	0.219937	2.186326	-2.76929
C	-0.411102	-1.268823	0.746477
H	-1.494523	-1.366892	0.834
H	-0.007598	-2.139797	0.224019
H	0.032709	-1.245843	1.743269
C	-0.530048	1.194046	0.643895
N	-0.964484	2.135928	1.195873
Br	3.387085	0.0	0.0
