14

C	-0.437342	0.015449	-1.474769
C	0.0	0.0	0.0
Br	0.216443	-1.554272	-2.437207
H	1.095599	0.0	0.0
H	0.027832	0.867963	-1.973928
C	-1.887441	0.076842	-1.629987
N	-3.057267	0.129363	-1.730019
C	-0.518255	-1.193482	0.796921
H	-0.105074	-2.11445	0.38524
H	-1.610853	-1.245519	0.787347
H	-0.176409	-1.105189	1.829514
C	-0.461182	1.257124	0.590439
N	-0.865115	2.257377	1.057345
Br	3.438906	0.0	0.0
