14

C	-0.439894	0.000658	-1.474075
C	0.0	0.0	0.0
Br	0.242718	-1.559614	-2.431791
H	1.095589	0.0	0.0
H	0.005983	0.860569	-1.978026
C	-1.891845	0.032409	-1.625072
N	-3.063403	0.060605	-1.716207
C	-0.5126	-1.189485	0.807033
H	-0.157717	-1.098812	1.834921
H	-0.10665	-2.112898	0.393443
H	-1.605229	-1.238766	0.810622
C	-0.464246	1.259799	0.581537
N	-0.867127	2.262481	1.043889
Br	3.444001	0.0	0.0
