19

C	-0.358249	0.043204	-1.485993
C	0.0	0.0	0.0
F	-0.064905	-1.246627	-2.021958
H	1.106048	0.0	0.0
C	-1.819494	0.28653	-1.79889
H	-1.959396	0.333297	-2.883589
H	-2.424943	-0.534831	-1.411587
H	-2.149839	1.217992	-1.343467
N	0.471674	1.029969	-2.090064
H	0.373942	1.00662	-3.098312
H	1.444375	0.849415	-1.842663
C	-0.533496	-1.214669	0.729407
H	-0.185434	-2.13031	0.252412
H	-0.164794	-1.21098	1.759605
H	-1.627318	-1.205048	0.759263
N	-0.51609	1.232505	0.626958
H	-0.095019	2.004997	0.117521
H	-0.115406	1.272909	1.55964
Br	3.697253	0.0	0.0
