19

C	-0.364107	-0.008266	-1.483924
C	0.0	0.0	0.0
F	-1.722596	-0.353509	-1.648507
H	1.104125	0.0	0.0
C	-0.21281	1.358361	-2.12625
H	-0.882531	2.072352	-1.646134
H	0.823336	1.693596	-2.03019
H	-0.468303	1.288931	-3.188515
N	0.410573	-1.048252	-2.113633
H	0.419547	-0.911757	-3.118016
H	1.370701	-0.998561	-1.778618
C	-0.516515	-1.246197	0.695918
H	-0.26077	-2.137367	0.124015
H	-1.604073	-1.19096	0.796361
H	-0.065256	-1.32925	1.689415
N	-0.53099	1.202073	0.667665
H	-0.582959	0.99809	1.660132
H	0.168393	1.933475	0.58114
Br	3.640997	0.0	0.0
