19

C	-0.29898	-0.02658	-1.501863
C	0.0	0.0	0.0
F	-1.702552	-0.101135	-1.697029
H	1.098353	0.0	0.0
C	0.148575	1.243358	-2.205209
H	-0.387136	2.118924	-1.835121
H	-0.050289	1.152075	-3.277764
H	1.221586	1.376123	-2.04506
N	0.280757	-1.219403	-2.063541
H	0.394935	-1.107342	-3.064663
H	1.209214	-1.339144	-1.664165
C	-0.542524	-1.230328	0.70985
H	-0.194066	-2.15206	0.244078
H	-0.215584	-1.201348	1.750356
H	-1.636787	-1.225946	0.685656
N	-0.477727	1.201915	0.681701
H	0.158298	1.968325	0.500686
H	-1.391296	1.452324	0.317963
Br	3.626524	0.0	0.0
