19

C	-0.36006	0.192559	-1.473486
C	0.0	0.0	0.0
F	-0.076533	-1.041032	-2.133789
H	1.098067	0.0	0.0
C	-1.820009	0.474628	-1.758439
H	-2.139444	1.367185	-1.224615
H	-1.962525	0.614121	-2.835146
H	-2.432593	-0.370563	-1.439864
N	0.476766	1.228615	-1.97888
H	0.378248	1.307093	-2.983988
H	1.44837	1.01955	-1.751887
C	-0.536098	-1.279867	0.605096
H	-0.166839	-1.379706	1.630255
H	-0.190474	-2.144237	0.039099
H	-1.629849	-1.27131	0.63648
N	-0.511411	1.166284	0.748486
H	-0.079242	1.982838	0.323345
H	-0.110472	1.10503	1.679907
Br	3.691173	0.0	0.0
