19

C	-0.398787	0.052013	-1.4795
C	0.0	0.0	0.0
F	-1.790007	0.471526	-1.529831
H	1.095313	0.0	0.0
C	0.385173	1.096108	-2.240147
H	0.07572	1.112186	-3.290174
H	0.201101	2.082813	-1.815188
H	1.449844	0.867592	-2.161504
N	-0.278335	-1.213315	-2.109362
H	-0.884402	-1.889685	-1.664897
H	-0.528836	-1.140407	-3.087807
C	-0.529874	-1.232606	0.718322
H	-1.621815	-1.293366	0.639454
H	-0.271384	-1.1435	1.773437
H	-0.07836	-2.149518	0.332857
N	-0.421653	1.207698	0.721704
H	-1.257405	1.583406	0.292937
H	0.313047	1.900677	0.661678
Br	3.703063	0.0	0.0
