15

C	0.0	0.0	0.0
C	-0.522986	0.074535	-1.455129
Br	1.962025	0.0	0.0
H	-1.614632	-0.066066	-1.319218
C	-0.412648	1.164017	0.785279
N	-0.571525	2.147757	1.409817
C	-0.391503	-1.252226	0.652068
N	-0.572034	-2.284274	1.185445
C	0.018942	-1.025568	-2.24373
N	0.451801	-1.880418	-2.924939
C	-0.266811	1.425933	-2.115244
H	-0.664541	1.405928	-3.131543
H	-0.793976	2.203882	-1.559876
H	0.798918	1.662505	-2.160724
Cl	-3.29979	0.0	0.0
