15

C	0.0	0.0	0.0
C	-0.254832	0.575946	-1.467045
Br	1.96142	0.0	0.0
H	0.483555	0.032743	-2.063753
C	-0.469773	0.849901	1.083242
N	-0.691709	1.574629	1.98219
C	-0.452919	-1.381807	0.095684
N	-0.643339	-2.542299	0.102193
C	0.160022	1.982303	-1.480627
N	0.472864	3.111939	-1.556624
C	-1.588067	0.413952	-2.191089
H	-2.366764	1.051249	-1.790257
H	-1.386605	0.659123	-3.240808
H	-1.947395	-0.610041	-2.113709
Cl	-3.625415	0.0	0.0
