15

C	0.0	0.0	0.0
C	-0.532922	0.066512	-1.452026
Br	1.961655	0.0	0.0
H	-1.616194	-0.119981	-1.313326
C	-0.418547	1.162928	0.786783
N	-0.599561	2.140147	1.416369
C	-0.392613	-1.248934	0.657224
N	-0.588049	-2.27478	1.198111
C	0.049322	-1.000171	-2.256872
N	0.502946	-1.841195	-2.942257
C	-0.344641	1.436956	-2.094404
H	-0.936354	2.170945	-1.545676
H	-0.714033	1.403251	-3.121275
H	0.704438	1.74069	-2.108687
Cl	-3.325086	0.0	0.0
