15

C	0.0	0.0	0.0
C	-0.220212	0.447359	-1.529004
Br	1.961431	0.0	0.0
H	0.534063	-0.149808	-2.050594
C	-0.464628	0.95194	0.997316
N	-0.66359	1.753073	1.835825
C	-0.456767	-1.366118	0.216547
N	-0.620497	-2.523767	0.343139
C	0.19869	1.848488	-1.648712
N	0.507345	2.9712	-1.808994
C	-1.517548	0.232863	-2.307254
H	-2.301238	0.921168	-2.014785
H	-1.246433	0.364261	-3.36396
H	-1.899626	-0.77307	-2.150176
Cl	-3.342477	0.0	0.0
