15

C	0.0	0.0	0.0
C	-0.529201	0.136237	-1.449229
Br	1.962388	0.0	0.0
H	-1.615387	-0.046684	-1.323853
C	-0.410714	1.127039	0.838369
N	-0.562996	2.079214	1.511382
C	-0.389058	-1.281629	0.593775
N	-0.571212	-2.34121	1.069241
C	0.049705	-0.895425	-2.301042
N	0.49648	-1.698861	-3.033699
C	-0.326573	1.533093	-2.028952
H	-0.702581	1.550889	-3.053605
H	0.726674	1.823793	-2.036567
H	-0.904568	2.249792	-1.443011
Cl	-3.297216	0.0	0.0
