14

C	0.0	0.0	0.0
C	-0.361009	0.098535	-1.495873
Br	1.940684	0.0	0.0
H	-0.239557	-0.895449	-1.924275
H	-1.400724	0.413845	-1.579792
N	-0.362343	1.30138	0.748477
O	-0.017073	1.337919	1.923973
O	-0.991024	2.167687	0.158588
C	-0.864572	-1.059376	0.578393
N	-0.819965	-2.137736	1.094705
N	0.436072	1.010179	-2.362112
O	0.636387	0.602229	-3.509866
O	0.768909	2.115635	-1.947609
H	-2.171383	0.0	0.0
