14

C	0.0	0.0	0.0
C	-0.181605	-0.213148	-1.510713
Br	1.958013	0.0	0.0
H	0.196235	0.672909	-2.014432
H	0.383892	-1.101521	-1.790389
N	-0.383975	1.352674	0.495248
O	-0.475023	1.489933	1.714893
O	-0.373224	2.268432	-0.330392
C	-0.491142	-1.055597	0.84918
N	-0.598429	-2.011539	1.536274
N	-1.554501	-0.451825	-2.056132
O	-1.96378	-1.61223	-2.032181
O	-2.113101	0.48788	-2.620467
H	-1.844308	0.0	0.0
