14

C	0.0	0.0	0.0
C	-0.188947	-0.029945	-1.524795
Br	1.956064	0.0	0.0
H	0.373672	-0.878569	-1.912612
H	0.187186	0.910441	-1.91924
N	-0.390468	1.284412	0.651056
O	-0.380257	2.292452	-0.060509
O	-0.476636	1.277366	1.87955
C	-0.495657	-1.145548	0.720628
N	-0.593359	-2.172084	1.298522
N	-1.565153	-0.199716	-2.086909
O	-2.142625	0.804736	-2.497779
O	-1.9597	-1.356057	-2.232292
H	-1.856219	0.0	0.0
