14

C	0.0	0.0	0.0
C	-0.345514	-0.001065	-1.516621
Br	1.955575	0.0	0.0
H	-1.282893	0.505367	-1.699381
H	0.474632	0.449985	-2.074238
N	-0.487174	1.275785	0.590534
O	-0.527433	1.348067	1.823645
O	-0.475424	2.251654	-0.181672
C	-0.482277	-1.133461	0.758797
N	-0.579674	-2.138774	1.37081
N	-0.49193	-1.394404	-2.026598
O	-1.619273	-1.765364	-2.35275
O	0.528294	-2.077591	-2.10554
H	-1.978699	0.0	0.0
