14

C	0.0	0.0	0.0
C	-0.332818	0.369567	-1.472816
Br	1.963384	0.0	0.0
H	0.478558	0.966328	-1.886567
H	-1.283357	0.88096	-1.533394
N	-0.481206	1.096096	0.882974
O	-0.508962	0.86917	2.097923
O	-0.477768	2.229027	0.369463
C	-0.475516	-1.282493	0.464852
N	-0.572221	-2.399637	0.834767
N	-0.437195	-0.855059	-2.314272
O	0.612128	-1.373131	-2.69515
O	-1.566096	-1.262521	-2.587358
H	-1.96995	0.0	0.0
