17

C	0.0	0.0	0.0
C	-0.434669	0.015961	-1.477939
F	1.409228	0.0	0.0
H	-1.530031	0.019302	-1.438296
N	-0.467503	1.173795	0.673628
H	-1.491783	1.019568	0.640057
H	-0.264843	1.974881	0.083042
N	-0.486799	-1.197549	0.598663
H	-0.314028	-1.095737	1.594719
H	-1.511286	-1.090704	0.466602
N	-0.021963	-1.28154	-2.152797
O	-0.852615	-2.181891	-2.234257
O	1.12533	-1.346556	-2.604755
N	0.127619	1.146932	-2.150662
H	-0.248038	1.217333	-3.087358
H	1.129989	1.016282	-2.211149
F	-2.833406	0.0	0.0
