17

C	0.0	0.0	0.0
C	-0.445679	-0.011286	-1.475313
F	1.40362	0.0	0.0
H	-1.538562	-0.014802	-1.448184
N	-0.467114	1.252776	0.540408
H	-0.199052	1.278221	1.519535
H	-1.493422	1.099148	0.497086
N	-0.452808	-1.208274	0.627251
H	-0.189344	-1.153392	1.607772
H	-1.482315	-1.090892	0.562484
N	-0.013795	-1.298483	-2.105675
O	-0.861462	-2.174426	-2.263188
O	1.165572	-1.394099	-2.440782
N	0.093017	1.064439	-2.272197
H	-0.366933	1.905902	-1.94946
H	1.071242	1.163904	-2.021125
F	-2.795887	0.0	0.0
