17

C	0.0	0.0	0.0
C	-0.282761	0.268378	-1.528265
F	1.393373	0.0	0.0
H	0.570838	-0.193254	-2.023387
N	-0.480081	1.062457	0.827375
H	-0.267383	0.823444	1.792299
H	-1.503619	0.985751	0.705697
N	-0.472835	-1.333423	0.272616
H	-1.495575	-1.187936	0.282403
H	-0.182618	-1.574219	1.217049
N	-0.079112	1.747449	-1.765923
O	-1.06233	2.475608	-1.724198
O	1.073011	2.129548	-1.98481
N	-1.498576	-0.135972	-2.151838
H	-1.416887	-1.133049	-2.307664
H	-2.260688	-0.000272	-1.459012
F	-2.899327	0.0	0.0
