17

C	0.0	0.0	0.0
C	-0.530231	-0.001337	-1.431314
F	1.40702	0.0	0.0
H	-1.628993	0.062473	-1.281891
N	-0.345042	1.292835	0.563614
H	-0.012687	2.001129	-0.081154
H	0.177466	1.378636	1.430101
N	-0.552895	-1.099575	0.691354
H	-1.587243	-0.872542	0.573185
H	-0.323653	-0.994772	1.675537
N	-0.212714	-1.350285	-2.053544
O	0.914323	-1.493014	-2.542576
O	-1.086204	-2.210878	-2.066578
N	0.051742	1.061611	-2.194363
H	-0.44805	1.173836	-3.066739
H	1.016961	0.824356	-2.394918
F	-2.869269	0.0	0.0
