15
Coordinates from ORCA-job run
  C   -0.70271417439609     -0.07186755953031     -0.07893561923310
  C   0.64004828022830      0.11615919363085     -0.76052851424438
  Br  -2.08769863515599     -0.11884747509400     -1.78847608680747
  H   0.78572938871347     -0.70579831089165     -1.46575573737840
  H   0.59647529546370      1.02874454824144     -1.36008805652110
  N   -1.06151897844783      1.00999394958241      0.73021045459343
  H   -1.05820484181368      1.87471114985133      0.20718776530405
  H   -1.96524382247381      0.89144052338093      1.16961110137887
  N   -0.81005621572470     -1.29460435401067      0.58983799943925
  H   -0.62780661423751     -2.06929066377164     -0.03301299535226
  H   -1.71231010394270     -1.42660769216899      1.02842432748293
  C   1.78395776694877      0.17932635338364      0.25136535276417
  H   1.83781856793886     -0.73907832538156      0.83630494391109
  H   1.64685792467045      1.01086852124345      0.94293246321394
  H   2.73466616222874      0.31485014153477     -0.27007739855102
