13

C	0.0	0.0	0.0
C	-0.291707	-0.048235	-1.508534
F	1.355136	0.0	0.0
H	0.000431	0.93783	-1.88538
H	0.429573	-0.76456	-1.916716
C	-0.494583	1.17993	0.700993
N	-0.563881	2.23156	1.22624
N	-0.392747	-1.266398	0.713155
O	-0.402358	-2.287772	0.034497
O	-0.503467	-1.207653	1.931089
C	-1.610918	-0.377314	-2.043939
N	-2.423779	-0.65566	-2.849872
F	-2.251454	0.0	0.0
