15

C	-0.463338	-0.011755	-1.458078
C	0.0	0.0	0.0
Br	-2.362139	-0.314761	-1.655765
H	1.095759	0.0	0.0
C	-0.132228	1.262775	-2.078184
N	0.141147	2.290557	-2.581304
N	0.306985	-1.089	-2.317092
O	1.520864	-0.96577	-2.259791
O	-0.352774	-1.902481	-2.944987
N	-0.416952	-1.28271	0.671598
O	-0.205965	-2.301155	0.022862
O	-0.820777	-1.220863	1.826404
C	-0.526967	1.141732	0.715712
N	-0.933607	2.094805	1.272186
F	2.475344	0.0	0.0
