15

C	-0.424783	-0.009234	-1.446626
C	0.0	0.0	0.0
Br	-0.101664	1.751318	-2.215707
H	1.096145	0.0	0.0
C	0.30178	-0.982588	-2.250856
N	0.887473	-1.764516	-2.904154
N	-1.942087	-0.26106	-1.632764
O	-2.658419	0.06414	-0.698698
O	-2.298753	-0.716186	-2.709932
N	-0.394784	-1.265729	0.655323
O	-0.257963	-1.335836	1.870755
O	-0.77763	-2.184226	-0.074877
C	-0.459834	1.125576	0.779234
N	-0.781185	2.038527	1.446613
F	2.397458	0.0	0.0
