14

C	-0.491158	-0.00192	-1.43745
C	0.0	0.0	0.0
Cl	-2.287186	0.181371	-1.494401
H	1.093693	0.0	0.0
H	-0.07701	0.855796	-1.965628
C	-0.130707	-1.242784	-2.109705
N	0.152116	-2.242831	-2.655403
N	-0.482937	-1.09038	0.757932
H	0.147579	-1.273919	1.526335
H	-1.412383	-0.920771	1.116391
N	-0.368752	1.368486	0.575425
O	-0.866643	1.401884	1.698752
O	-0.118404	2.349771	-0.118153
Br	3.373482	0.0	0.0
