14

C	-0.493859	-0.001526	-1.437601
C	0.0	0.0	0.0
Cl	-2.288391	0.176969	-1.491656
H	1.093708	0.0	0.0
H	-0.081008	0.857497	-1.963961
C	-0.127009	-1.241723	-2.108135
N	0.15403	-2.236965	-2.663042
N	-0.48089	-1.090466	0.757546
H	-1.412025	-0.924651	1.114912
H	0.149666	-1.274912	1.525556
N	-0.369434	1.368425	0.576947
O	-0.863823	1.399883	1.701593
O	-0.121654	2.350257	-0.116488
Br	3.373711	0.0	0.0
