14

C	-0.551888	0.060715	-1.426904
C	0.0	0.0	0.0
Cl	0.197006	1.253877	-2.512522
H	1.098901	0.0	0.0
H	-0.310898	-0.917668	-1.842371
C	-2.007465	0.21215	-1.416591
N	-3.174575	0.339082	-1.406463
N	-0.426072	-1.222723	0.605696
H	0.292059	-1.536683	1.245739
H	-1.286531	-1.10477	1.122333
N	-0.425254	1.214935	0.803782
O	-0.61704	1.047178	2.006894
O	-0.517097	2.288428	0.217635
Br	3.386651	0.0	0.0
