14

C	-0.431541	0.033296	-1.464862
C	0.0	0.0	0.0
Cl	-2.22472	0.192412	-1.60229
H	1.092979	0.0	0.0
H	-0.001046	0.905562	-1.954474
C	-0.029182	-1.192775	-2.143675
N	0.264336	-2.175409	-2.715537
N	-0.467729	-1.07434	0.779831
H	0.242887	-1.779493	0.892666
H	-1.357974	-1.456554	0.49835
N	-0.417121	1.348248	0.580321
O	-1.010839	1.379986	1.649999
O	-0.105208	2.331078	-0.090759
Br	3.376602	0.0	0.0
