14

C	0.083115	0.106888	0.082303
C	-0.219136	0.107145	-1.415865
F	1.456378	-0.091224	0.266134
H	-1.201366	0.588242	-1.536167
H	0.546536	0.707793	-1.9193
C	-0.206352	1.451626	0.647331
N	-0.40994	2.534831	1.05091
N	-0.610318	-0.902369	0.82896
H	-1.571424	-0.962328	0.433419
H	-0.186793	-1.770036	0.504881
N	-0.224133	-1.270878	-1.887045
H	-0.09467	-1.263524	-2.893165
H	-1.198039	-1.583624	-1.70506
H	-2.799038	-1.33482	-0.921204
