14

C	-0.007621	0.025006	0.011231
C	-0.610734	0.209479	-1.380839
F	1.266977	-0.537779	-0.119921
H	0.163216	0.62284	-2.036868
H	-1.427654	0.93859	-1.273264
C	0.204779	1.35537	0.640695
N	0.390523	2.42275	1.092162
N	-0.772229	-0.817707	0.884396
H	-1.774968	-0.595522	0.715556
H	-0.680616	-1.740201	0.462505
N	-1.090337	-1.082301	-1.852337
H	-2.051492	-1.138892	-1.461252
H	-1.179228	-1.040288	-2.862082
H	-3.320211	-0.551074	-0.334311
