16
Coordinates from ORCA-job run
  C   -0.69366371072390     -0.31448144352552      0.13931494367270
  C   0.69367140722862      0.31448806340441     -0.13937115948064
  H   -0.54683768108837     -1.16410794080728      0.81760364845023
  H   0.54684793716047      1.16403594241023     -0.81778206865616
  C   -1.23350008350415     -0.84018401409220     -1.11731958803598
  N   -1.66665954497903     -1.23560330750377     -2.13476536313022
  C   -1.67859375413124      0.67498473107961      0.76934180341977
  H   -1.82488601811961      1.53752245609691      0.11509059033712
  H   -2.64735977617760      0.19943878093644      0.93113237838691
  H   -1.29814482472313      1.02328317328855      1.73110230498802
  C   1.67862168129231     -0.67505145737025     -0.76926789661918
  H   1.82502392332989     -1.53746807439378     -0.11477440632915
  H   1.29808644384177     -1.02362266175218     -1.73097972882060
  H   2.64737200724206     -0.19942830491614     -0.93125192004968
  C   1.23346330581628      0.84034423103150      1.11723613692272
  N   1.66655868753562      1.23584982611345      2.13469032494413
