16
Coordinates from ORCA-job run
  C   -0.75837035234433     -0.29390218956711     -0.41090663539291
  C   0.71970993577677      0.14938045431835     -0.55245129553977
  H   -0.80523435510323     -1.34066057340302     -0.73610381629686
  H   0.97505052944321      0.11612177403976     -1.61787167371470
  C   -1.59164502801494      0.48372101998074     -1.33281093581469
  N   -2.25806250132726      1.11446228774703     -2.06579094691137
  C   -1.29828424785367     -0.18336055137896      1.01781102041782
  H   -0.73443807499102     -0.82778542979522      1.69376963892691
  H   -2.34417761058681     -0.49287965446776      1.04887441755390
  H   -1.23474772987818      0.84650535949839      1.37462929950988
  C   1.68091555377538     -0.76544717075068      0.21385341365826
  H   1.52961126833350     -0.69118636450261      1.29100560513307
  H   1.53352910003261     -1.80344186523409     -0.09396922975401
  H   2.71439238767858     -0.48770782722511      0.00047762818299
  C   0.87239371608961      1.53834018646729     -0.11021987966679
  N   0.99935740896976      2.63884054427301      0.27970338970826
