16
Coordinates from ORCA-job run
  C   -0.78045061498220     -0.07633243014082     -0.47982818142199
  C   0.76556487253000     -0.17921772023675     -0.46168525271203
  H   -1.11523796973102     -0.29899759515821     -1.49953448367561
  H   1.01419246045596     -1.22525846971887     -0.67991320252014
  C   -1.19647125725658      1.29520512055450     -0.17355267062207
  N   -1.52850147492897      2.38582271291492      0.10848423837003
  C   -1.44427051725643     -1.06512571657115      0.48433399552305
  H   -1.22139812499943     -0.82062716260682      1.52312592069547
  H   -2.52801199182885     -1.04147817496884      0.35930417685629
  H   -1.09664082857381     -2.08000993731891      0.27680701681131
  C   1.39164073410874      0.22106687679099      0.87728465466401
  H   2.47863677493739      0.14365618854850      0.82146204423470
  H   1.04619676963900     -0.43627785362356      1.67635044071250
  H   1.13386845611828      1.25149718468001      1.12965628793716
  C   1.32094545876362      0.63349799960792     -1.54806845628680
  N   1.75993725300426      1.29257897724707     -2.41522652856589
