16
Coordinates from ORCA-job run
  C   -0.77120992215531     -0.29361588980010     -0.38739073691904
  C   0.70816415835139      0.12929524207789     -0.57192667415332
  H   -0.83829312777555     -1.34573507931236     -0.69096840746605
  H   0.93823607577298      0.07113942551510     -1.64204505318103
  C   -1.61605937158455      0.47666687196708     -1.30498490302944
  N   -2.28829920612533      1.10328210816185     -2.03606918706081
  C   -1.27621512577647     -0.14873027719027      1.05100385513506
  H   -1.19270575006808      0.88713056993426      1.38549790927319
  H   -2.32456311420037     -0.44512393516319      1.11233725411353
  H   -0.70430684183005     -0.78623323717183      1.72662948981166
  C   1.67662012468027     -0.78061531518449      0.19096306679796
  H   1.55172080739513     -0.68185297061724      1.26952024491144
  H   2.70781827330118     -0.51973818312008     -0.05257097821604
  H   1.51026309303095     -1.82312041748822     -0.09096826416009
  C   0.88616942754651      1.52518407415525     -0.16231822803343
  N   1.03366049943730      2.63206701323636      0.20129061217641
