16
Coordinates from ORCA-job run
  C   -0.67284410103009     -0.36658040106474      0.11221843707521
  C   0.67223406341975      0.36727916734225     -0.11160282887151
  H   -0.47157894139866     -1.25946592041688      0.71709076459663
  H   0.47075076422907      1.26094539550378     -0.71521796529731
  C   -1.18510694914596     -0.81853951739193     -1.18409290747745
  N   -1.59785857071587     -1.15704742911526     -2.23010545624702
  C   -1.71367058441563      0.50455223079850      0.82192923602507
  H   -1.34861706079215      0.79895471112475      1.80727184157435
  H   -1.91989873850232      1.40519522969313      0.23921832374239
  H   -2.64882711283291     -0.04334405781195      0.94811972878605
  C   1.71268554199865     -0.50305008211644     -0.82299998304448
  H   1.91774587988031     -1.40526903397498     -0.24231281862959
  H   2.64838735453161      0.04438126074947     -0.94719650846847
  H   1.34796542558479     -0.79469733548310     -1.80927409358217
  C   1.18580207436817      0.81668703710218      1.18505166059757
  N   1.60183095482124      1.15199874506123      2.23090256922075
