16
Coordinates from ORCA-job run
  C   -0.87710442626361      0.16474450570807     -0.21623092453665
  C   0.55692365549188     -0.17009755218808     -0.69937033523123
  H   -1.51151608750443      0.26381363961192     -1.10455730395796
  H   0.50625951983549     -1.15716481912974     -1.17548870432548
  C   -0.88488662867102      1.45775340621669      0.47383373128862
  N   -0.87967170486306      2.47405413534900      1.06222165888131
  C   -1.46046811857946     -0.92776433337172      0.68612745857796
  H   -2.50264857577428     -0.70467365612147      0.92039464350442
  H   -0.91416800757464     -1.00333619450945      1.62676516993754
  H   -1.42221334274890     -1.89317212749868      0.17549602993858
  C   1.59264405558581     -0.20471987881557      0.42791166469361
  H   1.64646153313913      0.76265507205774      0.93078799158380
  H   2.57947140849382     -0.43637873891480      0.02396679122421
  H   1.33893984929239     -0.97111057869371      1.16150983320815
  C   0.95877706120631      0.78799984957743     -1.73361659980443
  N   1.27519980893457      1.56039727072237     -2.55975110498245
