15

C	0.0	0.0	0.0
C	-0.480709	0.007665	-1.461093
Cl	1.872777	0.0	0.0
H	-1.574765	-0.134532	-1.326573
H	-0.277467	0.980175	0.390314
N	-0.524598	-0.99569	0.85413
H	-1.543447	-0.754047	0.86289
H	-0.457936	-1.894124	0.383687
N	0.067907	-1.176384	-2.185341
O	0.926035	-0.999014	-3.046709
O	-0.350862	-2.286159	-1.837557
N	-0.217913	1.194641	-2.214268
H	-0.88749	1.896177	-1.920752
H	0.723869	1.52837	-2.04457
H	-2.970067	0.0	0.0
