15

C	0.0	0.0	0.0
C	-0.594399	-0.024553	-1.411197
Cl	1.780079	0.0	0.0
H	-1.588381	-0.490989	-1.287869
H	-0.263381	0.994147	0.374757
N	-0.511872	-1.085414	0.786535
H	-1.537545	-0.965313	0.699203
H	-0.278465	-0.903735	1.756902
N	0.183838	-0.878578	-2.352251
O	0.521388	-0.402062	-3.441845
O	0.40434	-2.034605	-2.001907
N	-0.694851	1.331069	-1.911975
H	-1.595091	1.650712	-1.551747
H	-0.754987	1.29492	-2.922228
H	-3.010677	0.0	0.0
