15

C	0.0	0.0	0.0
C	-0.326309	0.119746	-1.511768
Cl	1.79454	0.0	0.0
H	0.239227	-0.653775	-2.042951
H	-0.314851	0.911424	0.504941
N	-0.579037	-1.128708	0.648089
H	-0.492096	-1.94435	0.050303
H	-1.584453	-0.912437	0.722416
N	0.334548	1.408286	-2.037538
O	0.166725	2.440407	-1.394147
O	0.916029	1.341293	-3.12154
N	-1.686383	0.175856	-1.859451
H	-2.386714	0.161047	-1.047216
H	-1.931414	-0.542447	-2.526319
H	-3.347159	0.0	0.0
