18

C	0.0	0.0	0.0
C	-0.482306	-0.338079	-1.412155
F	1.407463	0.0	0.0
H	-1.579808	-0.366436	-1.342653
C	-0.459618	1.380648	0.416627
H	-1.551809	1.414549	0.3903
H	-0.117285	1.579294	1.435589
H	-0.043744	2.144492	-0.244608
C	-0.461142	-1.060846	0.975801
H	-0.063193	-0.827705	1.967116
H	-1.553136	-1.055581	1.009759
H	-0.106464	-2.041903	0.661406
N	0.016309	-1.646424	-1.833754
H	1.011839	-1.575001	-2.008943
H	-0.437432	-1.913789	-2.69871
C	-0.104201	0.725474	-2.367824
N	0.188015	1.540978	-3.162235
Cl	-3.812846	0.0	0.0
