18

C	0.0	0.0	0.0
C	-0.200022	0.147237	-1.536323
F	1.410708	0.0	0.0
H	0.356689	-0.718938	-1.934126
C	-0.51125	1.169059	0.796857
H	-0.195992	1.06351	1.839452
H	-1.604564	1.158495	0.746242
H	-0.1304	2.104796	0.38962
C	-0.504202	-1.327006	0.501782
H	-1.597155	-1.321769	0.444254
H	-0.200363	-1.467316	1.542593
H	-0.096872	-2.148219	-0.095438
N	0.39746	1.419349	-1.973687
H	1.383205	1.383362	-1.744193
H	0.306776	1.491693	-2.98021
C	-1.51822	0.05103	-2.175785
N	-2.338175	-0.025071	-3.01472
Cl	-3.877884	0.0	0.0
