18

C	0.0	0.0	0.0
C	-0.353281	0.127054	-1.505719
F	1.397639	0.0	0.0
H	0.437762	0.772199	-1.907835
C	-0.455744	1.236988	0.747452
H	-1.544657	1.265334	0.807387
H	-0.033694	1.207099	1.756211
H	-0.107443	2.139153	0.240343
C	-0.511522	-1.265049	0.645679
H	-1.60337	-1.285482	0.57965
H	-0.224245	-1.27806	1.700194
H	-0.097747	-2.149182	0.156822
N	-1.625242	0.773458	-1.742047
H	-2.399887	0.373797	-1.200836
H	-1.872615	0.713726	-2.721879
C	-0.18256	-1.180929	-2.186304
N	-0.074337	-2.194923	-2.771673
Cl	-4.197645	0.0	0.0
