18

C	0.0	0.0	0.0
C	-0.466439	0.076435	-1.465298
F	1.405521	0.0	0.0
H	-1.562956	0.144765	-1.428917
C	-0.460682	1.212756	0.779657
H	-0.061933	2.12815	0.336642
H	-0.099095	1.140789	1.809022
H	-1.552848	1.24077	0.779955
C	-0.463165	-1.286043	0.649292
H	-0.04931	-2.155184	0.133353
H	-1.555635	-1.318307	0.631613
H	-0.117004	-1.310002	1.685553
N	-0.089845	-1.058129	-2.306477
H	-0.717019	-1.827024	-2.107308
H	0.853213	-1.343384	-2.065879
C	0.056294	1.30262	-2.091255
N	0.489818	2.273291	-2.589305
Cl	-3.7852	0.0	0.0
