18

C	0.0	0.0	0.0
C	-0.476041	-0.204618	-1.440188
F	1.407484	0.0	0.0
H	-1.573815	-0.233527	-1.3813
C	-0.459773	1.336967	0.540062
H	-0.047563	2.156922	-0.052868
H	-1.551867	1.371889	0.521987
H	-0.11233	1.445915	1.57064
C	-0.459934	-1.147134	0.873174
H	-0.093428	-2.092871	0.475439
H	-1.551873	-1.155584	0.899888
H	-0.070632	-1.000142	1.884421
N	0.020252	-1.469494	-1.978449
H	-0.428604	-1.653786	-2.867218
H	1.01707	-1.386081	-2.140495
C	-0.079253	0.937982	-2.290443
N	0.258986	1.78664	-3.029939
Cl	-3.808789	0.0	0.0
