18

C	0.0	0.0	0.0
C	-0.477536	-0.041607	-1.452969
F	1.402834	0.0	0.0
H	-1.575168	-0.074788	-1.396646
C	-0.462008	1.267105	0.687535
H	-0.114212	1.259691	1.723573
H	-1.554288	1.304442	0.671635
H	-0.048741	2.149102	0.191625
C	-0.460275	-1.238765	0.739217
H	-1.55219	-1.250885	0.765538
H	-0.094579	-2.133676	0.237352
H	-0.071253	-1.205967	1.760463
N	0.017943	-1.239618	-2.129072
H	-0.42349	-1.317357	-3.036839
H	1.016804	-1.141943	-2.27217
C	-0.080321	1.18981	-2.169308
N	0.236236	2.131365	-2.79769
Cl	-3.807059	0.0	0.0
