18

C	0.0	0.0	0.0
C	-0.471376	0.064139	-1.463487
F	1.405416	0.0	0.0
H	-1.56566	0.161851	-1.421251
C	-0.457615	1.221847	0.768337
H	-0.065033	2.132617	0.30994
H	-1.549768	1.247501	0.778093
H	-0.085228	1.163745	1.794991
C	-0.462311	-1.27894	0.664259
H	-0.120764	-1.287313	1.702228
H	-0.043066	-2.153271	0.161257
H	-1.55453	-1.314795	0.642713
N	-0.134001	-1.093084	-2.290406
H	0.800523	-1.407455	-2.050863
H	-0.787116	-1.837624	-2.079202
C	0.081372	1.267498	-2.1097
N	0.53264	2.220445	-2.626832
Cl	-3.783091	0.0	0.0
