18

C	0.0	0.0	0.0
C	-0.354864	0.372746	-1.483483
F	1.408677	0.0	0.0
H	0.586537	0.172709	-2.009952
C	-0.472093	1.013343	1.015901
H	-1.564896	1.052352	1.014006
H	-0.056001	2.002536	0.808745
H	-0.130731	0.703484	2.007785
C	-0.422711	-1.413238	0.360285
H	-1.512218	-1.482601	0.396684
H	-0.00033	-1.672682	1.334608
H	-0.043494	-2.120258	-0.381252
N	-0.729475	1.748725	-1.781312
H	-0.020697	2.368223	-1.409528
H	-1.616464	1.961541	-1.33599
C	-1.31776	-0.531731	-2.140615
N	-1.952085	-1.280872	-2.783968
Cl	-4.030075	0.0	0.0
