14

C	0.0	0.0	0.0
C	-0.485441	-0.118264	-1.453493
Br	1.9699	0.0	0.0
H	0.027147	-0.981857	-1.888683
H	-1.55596	-0.328778	-1.371714
C	-0.397181	1.250663	0.648681
N	-0.589308	2.280564	1.181166
C	-0.389162	-1.16695	0.794439
N	-0.542311	-2.162964	1.39961
C	-0.263964	1.146045	-2.267437
H	0.783684	1.457339	-2.28462
H	-0.87216	1.959514	-1.866761
H	-0.584624	0.970947	-3.297461
Cl	-3.382777	0.0	0.0
