14

C	0.0	0.0	0.0
C	-0.461548	-0.006	-1.469349
Br	1.9617	0.0	0.0
H	0.104548	0.778143	-1.97942
H	-1.519672	0.261036	-1.43629
C	-0.377003	1.244395	0.677361
N	-0.512134	2.295412	1.185908
C	-0.419508	-1.181104	0.751815
N	-0.581183	-2.185711	1.341041
C	-0.291571	-1.358105	-2.142201
H	-0.571145	-1.272687	-3.195721
H	0.736239	-1.727405	-2.090823
H	-0.958864	-2.087249	-1.679947
Cl	-3.313165	0.0	0.0
