18

C	0.0	0.0	0.0
C	-0.36672	-0.157017	-1.517492
Cl	1.804629	0.0	0.0
H	0.49062	0.233132	-2.070656
C	-0.334422	1.307259	0.587451
N	-0.437291	2.298827	1.210122
C	-0.523398	-1.090973	0.919184
H	-1.617769	-1.06156	0.886075
H	-0.156863	-2.070612	0.608723
H	-0.177811	-0.89358	1.934997
N	-1.452532	0.760766	-2.06193
O	-1.408665	1.92952	-1.7036
O	-2.152342	0.311674	-2.957543
C	-0.62774	-1.592312	-1.914575
H	-0.716626	-1.66441	-2.997187
H	-1.559244	-1.9381	-1.466724
H	0.207423	-2.218802	-1.595015
Br	-3.801384	0.0	0.0
