13
Coordinates from ORCA-job run
  C   -0.59478504207668      0.06672828669223     -0.35274784652378
  C   0.51731269337130     -0.44585491794540      0.57609285148947
  Cl  -1.33799009766508     -1.25747199782124     -1.24893968128983
  H   0.77927492781602      0.38660512307905      1.24440019718125
  H   0.07513525742972     -1.23857173693153      1.18054548878353
  C   -0.07737780245214      1.06760329984549     -1.27535986648793
  N   0.42688940506402      1.84389057921964     -1.99906317929200
  N   -1.66964600445331      0.70482681247387      0.53614213976569
  O   -2.13616608005005     -0.03128064049927      1.39410350699582
  O   -1.93895820048736      1.88385236059449      0.34582426758480
  N   1.60969750595669     -0.94556986102960     -0.22313691198562
  H   2.01291938322890     -1.78083180018400      0.17235521375907
  H   2.33369405431798     -0.25292550749374     -0.34821617998047
