13
Coordinates from ORCA-job run
  C   -0.62965883212763     -0.01784342129437     -0.52323259303304
  C   0.52112476712021     -0.88054157775103     -0.00975984172768
  Cl  -1.85220657433377     -1.00968095515783     -1.33913699561094
  H   1.00232299496386     -1.33050154133132     -0.88221905495875
  H   0.08526779842744     -1.68126355858869      0.59007373294142
  C   -0.15226386996292      1.03108948475924     -1.41290076632025
  N   0.30312178299103      1.81805767104457     -2.15675096782995
  N   -1.31503248696365      0.63795492246971      0.68376462513321
  O   -1.40603455487561     -0.05982278770820      1.68388892438599
  O   -1.73948863422004      1.77381085101129      0.53394279872010
  N   1.40841762005717     -0.01865780666719      0.74079989184816
  H   1.42778964931406     -0.25390305159454      1.72141103924255
  H   2.34664033960985     -0.00969822919165      0.37211920720916
