13
Coordinates from ORCA-job run
  C   -0.62246458476610     -0.00062433250505     -0.52820258728035
  C   0.51534749038731     -0.88500593577861     -0.02344614461297
  Cl  -1.84941143592979     -0.96399853819241     -1.37188214874230
  H   0.06774341033865     -1.69663352716612      0.55307418678473
  H   1.00102445180274     -1.31814608498978     -0.90175801639714
  C   -0.12922938298637      1.06023658248557     -1.39483675518613
  N   0.32547961948878      1.85218786198386     -2.13381508377303
  N   -1.31163921936900      0.63922057976395      0.68467033098677
  O   -1.39871833398613     -0.06772528188208      1.67898734781603
  O   -1.74576510104976      1.77256599696800      0.54352192933345
  N   1.40605791509832     -0.04680700351848      0.74946238161558
  H   2.35543600763008     -0.07093857333101      0.41148969677188
  H   1.38513916334125     -0.27533174383785      1.73173486268348
