13
Coordinates from ORCA-job run
  C   -0.58673941723002      0.01583526109173     -0.36013485241579
  C   0.59397424017476     -0.28956688097722      0.57764849982726
  Cl  -1.16265111327846     -1.45540793093770     -1.13082691477586
  H   0.21105942222836     -0.97184670967770      1.35032718284401
  H   0.86497226076605      0.65810134481715      1.05384684753177
  C   -0.23344053463607      1.00851856964095     -1.36413341898464
  N   0.08523215209527      1.80836978987840     -2.16072519179700
  N   -1.68728877988018      0.62167497369055      0.54006078866633
  O   -2.63970632634159     -0.06353465447211      0.85679648434745
  O   -1.42635025617304      1.75867691120016      0.90803122762796
  N   1.70280509450478     -0.79300802541552     -0.19317011207875
  H   2.58968161346613     -0.49464186064437      0.18125935253941
  H   1.68745164430401     -1.80217078819433     -0.25997989333216
