13
Coordinates from ORCA-job run
  C   -0.56425452757389      0.08488573832511     -0.38450541711106
  C   0.54358799061276     -0.38442306183186      0.57244375965718
  Cl  -1.15340640850046     -1.26109834092722     -1.35315207938287
  H   0.80958675251058      0.47968785596164      1.18734293576788
  H   0.09403173103423     -1.14918126880416      1.21913581023447
  C   -0.11041233830237      1.16319294885123     -1.25015581791331
  N   0.27513316049973      2.02545988215085     -1.94861611843276
  N   -1.69269511964870      0.62366590739262      0.51666759934585
  O   -2.56308433599260     -0.15568625040994      0.86733212288176
  O   -1.54164794661513      1.78380971887709      0.87912637013052
  N   1.68471634260559     -0.81987159726121     -0.19589459305536
  H   1.66500770198122     -1.81444713846773     -0.36743525232234
  H   2.55243699738905     -0.57699439385642      0.25771068020005
