14
Coordinates from ORCA-job run
  C   0.95198332937257      0.17840887005665      0.26736917960616
  C   -0.44792362798443      0.15234382736028     -0.32007457418073
  H   1.47573958876743      1.09183565362062     -0.01209397648037
  H   -0.39495786871979      0.28578963680349     -1.40070789441394
  H   0.94030170812171      0.04450412413232      1.34923030537116
  N   1.71341908421659     -0.96666196140163     -0.30927153108804
  O   1.81809257619831     -0.98416610909650     -1.53187214331469
  O   2.17512726911798     -1.79157737251097      0.47197186346848
  N   -1.11795057387331      1.44443357155360      0.19082484052801
  O   -0.68722012414254      2.49486423804796     -0.27487781437520
  O   -2.00505347805785      1.32903922697378      1.03044695782513
  N   -1.12580418724618     -1.03738409786976      0.01319872011734
  H   -2.00115773506653     -1.13079070075610     -0.48254298557351
  H   -1.29759596070396     -1.11063890691375      1.00739905251020
