14
Coordinates from ORCA-job run
  C   0.96403822135071      0.32009814870589      0.09287905787534
  C   -0.48778333689431      0.08339830723001     -0.27672288039165
  H   1.45441754746048      1.02897792315508     -0.57294624601139
  H   -0.57139170299903     -0.18431428871004     -1.33804880173148
  H   1.04439686342036      0.65237975358641      1.12678937702145
  N   1.73474167623579     -0.95720443492564     -0.00395948874926
  O   1.28115350440100     -1.85040589870242     -0.71981734168481
  O   2.79501614835755     -0.99978015167586      0.60685855665451
  N   -1.19819971172878      1.41899910999681     -0.18309702364869
  O   -0.57992673091037      2.39790728092480     -0.59023951448064
  O   -2.35233245388414      1.42141896237871      0.22903768433951
  N   -1.09939515553265     -0.83597644733037      0.64505053411629
  H   -0.87953865531074     -1.77976291598824      0.35345822476548
  H   -2.10419621396587     -0.71373534864513      0.63075786192534
