14
Coordinates from ORCA-job run
  C   0.82224778280095     -0.22217562143826     -0.68844910885200
  C   -0.65943420497043      0.06590233057158     -0.45036578552470
  H   1.30044270934137      0.59671166745438     -1.22088550980788
  H   -1.12460646181231      0.26615648261408     -1.41763464417322
  H   0.93276991603357     -1.17112170260009     -1.21155281460921
  N   1.52269286579364     -0.36159112479243      0.62101925666962
  O   2.18620146578302      0.59385396048646      1.01249186993267
  O   1.35706512613753     -1.42286401352054      1.22525401167199
  N   -0.67950742294931      1.45757492379397      0.23128759293849
  O   -0.87180962242479      1.50654929792995      1.43682668188252
  O   -0.45089118101588      2.40414989906323     -0.51777799446202
  N   -1.36867640855779     -0.88479897279316      0.29239593989632
  H   -2.14309492332027     -1.31887492598018     -0.17521342829679
  H   -0.82139964083929     -1.50747220078899      0.86260393273421
