14

C	-0.396108	0.046608	-1.455903
C	0.0	0.0	0.0
Br	0.288223	-1.515111	-2.418038
H	1.089654	0.0	0.0
H	0.146126	0.890232	-1.88379
C	-1.820607	0.202434	-1.712716
N	-2.955623	0.388308	-1.952757
N	-0.491294	-1.168915	0.725132
O	0.085901	-1.437985	1.780671
O	-1.402568	-1.836808	0.216527
N	-0.374099	1.229926	0.669933
O	-0.598046	1.227699	1.884437
O	-0.313059	2.251756	-0.037456
H	2.355128	0.0	0.0
