14

C	-0.361298	-0.103231	-1.449438
C	0.0	0.0	0.0
Br	-2.285418	-0.330127	-1.803694
H	1.109029	0.0	0.0
H	0.092699	-1.027498	-1.804828
C	0.151621	1.00212	-2.247953
N	0.600601	1.817516	-2.965889
N	-0.364408	-1.209786	0.716246
O	-0.097717	-2.257367	0.105263
O	-0.823076	-1.162339	1.859697
N	-0.409874	1.22268	0.652745
O	-0.005	1.39283	1.808486
O	-1.017848	2.070142	-0.022955
H	2.304734	0.0	0.0
