14

C	-0.392508	0.142725	-1.439702
C	0.0	0.0	0.0
Br	-2.22833	-0.391759	-1.915909
H	1.109315	0.0	0.0
H	0.257482	-0.52728	-2.007595
C	-0.205268	1.514866	-1.894071
N	-0.069691	2.617408	-2.278213
N	-0.318449	-1.268525	0.569832
O	-0.432451	-1.333574	1.805296
O	-0.224474	-2.242772	-0.197428
N	-0.520725	1.093047	0.858623
O	0.29564	1.771408	1.475129
O	-1.742705	1.255802	0.871904
H	2.369378	0.0	0.0
