14

C	-0.564	-0.03364	-1.401913
C	0.0	0.0	0.0
Br	0.177907	1.471327	-2.43275
H	1.087825	0.0	0.0
H	-1.644135	0.10717	-1.410134
C	-0.200585	-1.247531	-2.125361
N	0.055953	-2.182459	-2.789047
N	-0.395351	-1.168436	0.770456
O	0.126806	-1.312717	1.881789
O	-1.185586	-1.974306	0.23798
N	-0.427233	1.18427	0.735398
O	-1.330273	1.889302	0.248254
O	0.174445	1.425011	1.789124
H	2.347509	0.0	0.0
