14

C	-0.392186	0.061532	-1.456617
C	0.0	0.0	0.0
Br	0.294526	-1.490347	-2.433805
H	1.09097	0.0	0.0
H	0.152249	0.909428	-1.874225
C	-1.81637	0.221026	-1.714857
N	-2.951968	0.403706	-1.957471
N	-0.491892	-1.17546	0.712366
O	-1.39924	-1.842069	0.195193
O	0.083489	-1.452125	1.767852
N	-0.372799	1.224896	0.680031
O	-0.611454	1.211118	1.891404
O	-0.29714	2.254159	-0.01606
H	2.351615	0.0	0.0
