14

C	0.0	0.0	0.0
C	-0.214777	-0.12978	-1.558853
F	1.366494	0.0	0.0
H	0.471638	0.638849	-1.951184
H	0.157568	-1.118975	-1.851682
N	-0.806647	1.149318	0.471171
O	-0.849111	2.14128	-0.361063
O	-0.809313	1.35254	1.719209
C	-0.419349	-1.155028	0.810528
N	-0.471295	-2.190129	1.384211
N	-1.583164	0.025307	-2.012045
H	-1.776838	-0.369221	-2.922359
H	-1.805467	1.001947	-1.906797
H	-1.835837	0.0	0.0
