14

C	0.0	0.0	0.0
C	-0.311937	-0.103833	-1.498906
F	1.355457	0.0	0.0
H	-1.385651	-0.203409	-1.604412
H	0.016809	0.8402	-1.946882
N	-0.371347	1.344813	0.594621
O	-0.382493	2.316843	-0.163548
O	-0.402599	1.413686	1.822514
C	-0.607974	-1.053889	0.810326
N	-0.581714	-2.024365	1.49338
N	0.37948	-1.285804	-2.016769
H	1.34623	-1.067653	-2.217255
H	-0.065474	-1.577713	-2.875957
H	-2.31318	0.0	0.0
