14

C	0.0	0.0	0.0
C	-0.313724	0.09638	-1.48284
F	1.356411	0.0	0.0
H	-1.348065	-0.126371	-1.66395
H	0.318864	-0.690657	-1.909035
N	-0.246577	1.376848	0.766346
O	-1.328853	1.880453	0.887432
O	0.793433	1.890884	1.164399
C	-0.551357	-1.145183	0.739726
N	-0.815334	-2.152165	1.291842
N	0.044342	1.428638	-1.944746
H	-0.405399	1.610488	-2.828703
H	1.044946	1.490149	-2.065243
H	-2.552219	0.0	0.0
