14

C	0.0	0.0	0.0
C	-0.365365	0.05292	-1.50858
F	1.356413	0.0	0.0
H	-1.353181	0.494923	-1.594953
H	-0.435772	-0.993587	-1.828246
N	-0.352321	1.319023	0.681373
O	-0.376708	1.328566	1.910168
O	-0.357539	2.329438	-0.02941
C	-0.694932	-1.074048	0.700461
N	-0.649807	-2.110066	1.291273
N	0.68043	0.715172	-2.309855
H	0.343355	0.704686	-3.268562
H	0.686548	1.686801	-2.021215
H	-2.229806	0.0	0.0
