13

C	0.0	0.0	0.0
C	-0.310346	-0.020861	-1.525184
Br	1.919777	0.0	0.0
H	0.316805	-0.846815	-1.883529
H	-0.398733	-0.862781	0.521385
N	-0.43019	1.222541	0.763051
O	-0.479058	1.078593	1.97713
O	-0.591729	2.259361	0.138308
C	0.210471	1.165563	-2.223733
N	0.632702	2.036275	-2.888023
C	-1.634967	-0.335963	-2.103462
N	-2.261524	-0.678963	-3.045729
Cl	-3.018671	0.0	0.0
