13

C	0.0	0.0	0.0
C	-0.559546	-0.169307	-1.413318
Br	1.917866	0.0	0.0
H	-1.65809	0.030486	-1.280139
H	-0.380443	-0.773132	0.663224
N	-0.418882	1.321984	0.600165
O	-0.614381	2.250882	-0.171912
O	-0.458783	1.356715	1.822439
C	-0.400956	-1.564416	-1.820181
N	-0.292934	-2.688991	-2.141842
C	0.044872	0.707281	-2.413732
N	0.500071	1.389904	-3.254174
Cl	-3.283444	0.0	0.0
