13

C	0.0	0.0	0.0
C	-0.306778	0.509723	-1.439914
Br	1.920482	0.0	0.0
H	0.237795	-0.210193	-2.066401
H	-0.407515	-0.985312	0.198588
N	-0.429003	0.905701	1.120127
O	-0.471539	0.38014	2.22444
O	-0.599743	2.08729	0.859513
C	0.327057	1.810471	-1.717727
N	0.834152	2.813887	-2.058005
C	-1.653118	0.555109	-2.054209
N	-2.296989	0.699246	-3.036439
Cl	-3.03299	0.0	0.0
