13

C	0.0	0.0	0.0
C	-0.603555	0.054411	-1.398544
Br	1.9055	0.0	0.0
H	-1.708346	0.170493	-1.181609
H	-0.37142	-0.872835	0.533225
N	-0.42365	1.196206	0.825669
O	-0.666403	2.234592	0.226902
O	-0.426954	1.025209	2.037064
C	-0.399833	-1.234547	-2.056359
N	-0.240817	-2.269135	-2.589893
C	-0.09709	1.127585	-2.24828
N	0.311952	1.974214	-2.952651
Cl	-3.340374	0.0	0.0
