13

C	0.0	0.0	0.0
C	-0.313857	0.082453	-1.520537
Br	1.923122	0.0	0.0
H	0.324792	-0.705804	-1.939301
H	-0.390864	-0.902131	0.458855
N	-0.43486	1.160351	0.847964
O	-0.620807	2.234177	0.296078
O	-0.470904	0.931947	2.049681
C	0.189469	1.322084	-2.136122
N	0.59777	2.249656	-2.72901
C	-1.635553	-0.215652	-2.117268
N	-2.256036	-0.510387	-3.080348
Cl	-3.023076	0.0	0.0
