18

C	-0.431472	0.01302	-1.477632
C	0.0	0.0	0.0
Br	0.020155	1.90366	-2.143703
H	1.093041	0.0	0.0
N	0.319738	-0.967561	-2.15139
H	0.188083	-0.92245	-3.153827
H	1.310607	-0.903576	-1.920117
C	-1.919915	-0.138189	-1.722834
H	-2.243894	-1.128149	-1.391834
H	-2.480028	0.629366	-1.187818
H	-2.132925	-0.033303	-2.788916
N	-0.410102	-1.381165	0.533033
O	-1.530587	-1.466361	1.05239
O	0.37499	-2.31278	0.415932
N	-0.544616	1.0363	0.80101
H	0.072541	1.208416	1.585818
H	-1.465973	0.777253	1.134708
Br	3.51103	0.0	0.0
