18

C	-0.518462	0.214145	-1.428711
C	0.0	0.0	0.0
Br	-0.029966	-1.46298	-2.486852
H	1.090928	0.0	0.0
N	-1.913086	0.453416	-1.463886
H	-2.433102	-0.330699	-1.091742
H	-2.214297	0.657645	-2.409234
C	0.266496	1.344144	-2.066243
H	-0.014942	1.453204	-3.117205
H	1.336151	1.142378	-1.992674
H	0.035032	2.261243	-1.521881
N	-0.495115	-1.333809	0.539726
O	0.315154	-2.203078	0.829175
O	-1.720366	-1.432522	0.695121
N	-0.437671	1.083908	0.819968
H	0.087935	1.098853	1.683664
H	-1.433555	1.044285	0.987524
Br	3.538041	0.0	0.0
