18

C	-0.530978	0.093981	-1.434957
C	0.0	0.0	0.0
Br	-0.044495	-1.656614	-2.360961
H	1.090937	0.0	0.0
N	-1.93113	0.318271	-1.471778
H	-2.25207	0.402357	-2.426617
H	-2.431146	-0.429362	-1.005032
C	0.23606	1.176151	-2.168663
H	0.011032	2.128887	-1.686815
H	1.307912	0.983128	-2.101589
H	-0.066932	1.208795	-3.218682
N	-0.486432	-1.287953	0.6524
O	0.331049	-2.129387	0.999915
O	-1.710877	-1.378916	0.83098
N	-0.431886	1.146107	0.73432
H	0.11013	1.23566	1.583084
H	-1.423676	1.115564	0.924406
Br	3.544885	0.0	0.0
