18

C	-0.407283	-0.219635	-1.466992
C	0.0	0.0	0.0
Br	-0.346761	1.756891	-2.347373
H	1.098967	0.0	0.0
N	0.51649	-1.021689	-2.095308
H	1.48166	-0.828379	-1.836345
H	0.382605	-1.128456	-3.089652
C	-1.848891	-0.608413	-1.688679
H	-1.997252	-1.620701	-1.309136
H	-2.496274	0.087425	-1.158045
H	-2.097783	-0.586786	-2.751369
N	-0.361785	-1.227437	0.822558
O	-0.685116	-1.03587	1.99523
O	-0.249772	-2.336945	0.311219
N	-0.647315	1.125344	0.630144
H	-0.441272	1.074064	1.619807
H	-0.211151	1.962038	0.263058
Br	3.480639	0.0	0.0
