18

C	-0.579063	0.106184	-1.419425
C	0.0	0.0	0.0
Br	-0.107779	-1.599567	-2.412258
H	1.088007	0.0	0.0
N	-1.985472	0.315573	-1.385097
H	-2.358571	0.436701	-2.317792
H	-2.457375	-0.444643	-0.911872
C	0.111465	1.235867	-2.165105
H	-0.186007	1.228195	-3.216916
H	1.196026	1.137485	-2.09119
H	-0.203968	2.184449	-1.721555
N	-0.473847	-1.287709	0.642124
O	0.351052	-2.144984	0.925782
O	-1.688926	-1.382168	0.85324
N	-0.431777	1.082871	0.839197
H	-1.303337	1.475037	0.508198
H	0.297476	1.782369	0.884182
Br	3.507773	0.0	0.0
