18

C	-0.24864	-0.0871	-1.522647
C	0.0	0.0	0.0
Br	-2.180072	0.214738	-1.952984
H	1.097237	0.0	0.0
N	0.483226	1.032403	-2.068671
H	1.451411	0.951507	-1.74519
H	0.482675	0.972446	-3.081157
C	0.135212	-1.43454	-2.113175
H	0.064118	-1.385019	-3.202713
H	-0.501131	-2.245498	-1.758586
H	1.170693	-1.638124	-1.82311
N	-0.523198	-1.227321	0.67257
O	0.195725	-2.225011	0.695438
O	-1.665187	-1.168428	1.127827
N	-0.474554	1.155168	0.686888
H	0.171828	1.910887	0.504785
H	-1.394469	1.416945	0.353682
Br	3.469954	0.0	0.0
