18

C	-0.367436	-0.096617	-1.505436
C	0.0	0.0	0.0
Br	-0.237906	1.905681	-2.21488
H	1.093552	0.0	0.0
N	0.562813	-0.915928	-2.115316
H	0.46778	-0.98866	-3.118863
H	1.524204	-0.751568	-1.81652
C	-1.797191	-0.472449	-1.83924
H	-2.509257	0.176831	-1.330084
H	-1.964647	-0.38699	-2.914622
H	-1.973993	-1.505682	-1.531082
N	-0.47951	-1.308465	0.593739
O	0.273367	-2.276553	0.558347
O	-1.627177	-1.316142	1.045306
N	-0.502359	1.059771	0.802705
H	0.164789	1.81683	0.771691
H	-1.400104	1.394709	0.483624
Br	3.497231	0.0	0.0
