18

C	-0.454675	-0.157577	-1.483177
C	0.0	0.0	0.0
Br	-0.294594	1.629987	-2.307911
H	1.101064	0.0	0.0
N	0.4044	-1.024531	-2.253939
H	1.369465	-0.727614	-2.105867
H	0.34168	-1.953669	-1.848474
C	-1.903699	-0.592998	-1.614858
H	-2.182805	-0.590815	-2.668285
H	-2.56705	0.077031	-1.064648
H	-2.024482	-1.610108	-1.227001
N	-0.408663	-1.315679	0.679165
O	-1.301224	-1.27376	1.530375
O	0.128228	-2.355998	0.303486
N	-0.51165	1.11717	0.70763
H	0.159069	1.395765	1.411187
H	-1.390637	0.893647	1.15423
Br	3.470121	0.0	0.0
