18

C	-0.335544	0.041479	-1.501476
C	0.0	0.0	0.0
Br	-2.333354	0.101463	-1.683075
H	1.095995	0.0	0.0
N	0.189376	1.25562	-2.065311
H	1.201031	1.133186	-2.118854
H	0.02123	1.997236	-1.391545
C	0.181793	-1.139276	-2.294917
H	1.249532	-1.24928	-2.077414
H	0.036274	-0.923739	-3.355107
H	-0.321948	-2.066717	-2.036196
N	-0.464747	-1.28447	0.657949
O	0.077562	-2.329971	0.310129
O	-1.358467	-1.206824	1.50379
N	-0.460249	1.16211	0.683161
H	0.12126	1.320168	1.496081
H	-1.421748	1.044152	0.976304
Br	3.440687	0.0	0.0
