12
Coordinates from ORCA-job run
  C   1.30163929653243      0.23921713336559     -0.02178351145997
  C   -0.15288351875988      0.03403119488596     -0.38373157957508
  F   2.01375661610917     -0.76536869620457     -0.64642448571696
  H   -0.33423028289374      0.09237372008420     -1.45677657266698
  H   1.64722803890519      1.20479523938725     -0.38468272216431
  H   1.43640391689733      0.15687424540082      1.05645020121950
  N   -1.02905959345292      1.06010565416337      0.28226913648028
  O   -0.53429593266633      2.17588484267306      0.40520023330079
  O   -2.16064948498379      0.71633388595334      0.59294700472477
  N   -0.61580628567013     -1.31340533502983      0.07215516906350
  O   -1.17860749242543     -2.01367134050052     -0.76168639722298
  O   -0.39249527759189     -1.58717054417866      1.24606352401743
