12
Coordinates from ORCA-job run
  C   1.30614921932883      0.21377583930829     -0.00130884623125
  C   -0.12670574700928     -0.08219206954393     -0.38610943295752
  F   1.64702725333581      1.40216304337159     -0.61614294377450
  H   -0.26153817923153     -0.19396964713164     -1.46176820845473
  H   1.96261459188812     -0.57720920570364     -0.35748893341856
  H   1.38895196970318      0.33244575796838      1.07877945968226
  N   -1.02379632194387      1.02833721392453      0.06074432753257
  O   -1.77700176042122      1.50125428661859     -0.78272479026943
  O   -0.92379061090716      1.35651970415324      1.23767802261324
  N   -0.61542878737830     -1.34628555297674      0.26755076870016
  O   -1.80132921660903     -1.40568649139458      0.55963073995379
  O   0.22484758924446     -2.23015287859409      0.40015983662396
