12
Coordinates from ORCA-job run
  C   1.29293969027870      0.26340448841581      0.07535287928674
  C   -0.10652425239841     -0.07276495759116     -0.38965847235447
  F   1.64107890181209      1.45611682005294     -0.52519219918058
  H   -0.17510998046496     -0.17366864626553     -1.47238186225956
  H   1.98512892249965     -0.51452609636877     -0.24065048159355
  H   1.31050332182041      0.38990618984745      1.15763725815759
  N   -1.07321452961681      0.99186905128072      0.01934540063338
  O   -0.98376046027367      1.39396835909764      1.17379814528165
  O   -1.87761471933423      1.35295037736687     -0.83316380030126
  N   -0.56671866880015     -1.37364317830791      0.21447908341324
  O   0.25077188579943     -2.28522682491354      0.14649333914850
  O   -1.69748011132204     -1.42738558261453      0.67594070976833
