12
Coordinates from ORCA-job run
  C   1.30370610352665      0.19960413506125      0.08516210620478
  C   -0.12123554399906      0.02616831272320     -0.39149059826344
  F   2.04749372745599     -0.80811970367303     -0.49419015082920
  H   -0.20981437674402      0.08201260687396     -1.47601769901159
  H   1.35318742705627      0.10197852882153      1.16944059252818
  H   1.68836090158575      1.16406052212913     -0.24050202633590
  N   -1.00747037459872      1.09698156132255      0.18899283065882
  O   -0.55358913114100      2.23347182411988      0.10975954751576
  O   -2.09193508599793      0.76395300656043      0.64451315610130
  N   -0.66587057052296     -1.30053428153653      0.03094163241278
  O   -0.45456126328441     -1.63086536919187      1.19227606096398
  O   -1.28827181333656     -1.92871114321048     -0.81888545194545
