12
Coordinates from ORCA-job run
  C   1.29081083029758      0.18836253289722     -0.26555938526505
  C   -0.20362791267841      0.00865658496446     -0.38277661204251
  F   1.68769362984782     -0.05664195823281      1.02726041308851
  H   -0.53311963873317     -0.05529588160953     -1.41961695699905
  H   1.77756676779690     -0.53455714371905     -0.92258573861588
  H   1.56826456775152      1.20662638857346     -0.54025553358099
  N   -1.00464406873081      1.09897318038010      0.25808985986413
  O   -0.41672890968128      1.90214441872298      0.97399901295472
  O   -2.20282195710582      1.07781320687522     -0.00404708633529
  N   -0.58375872690949     -1.29484200801431      0.27365014285610
  O   -0.22618770506004     -2.28555144185005     -0.35098334430743
  O   -1.15344687679480     -1.25568787898769      1.35282522838274
