12
Coordinates from ORCA-job run
  C   1.30635555017474      0.25362884973024      0.04088559725502
  C   -0.10407883084998     -0.02495783487817     -0.42017055532732
  F   1.38677522651325      0.10445933282816      1.40476390007914
  H   -0.16696012135024     -0.16535810005060     -1.49906949147085
  H   1.97231560619709     -0.47221699294321     -0.42909720685977
  H   1.59412222271799      1.27070758685198     -0.22752538821906
  N   -1.08773656764369      1.04677143126354     -0.06659140507181
  O   -2.18281131409718      0.93748257976059     -0.60850037259966
  O   -0.73155636555255      1.92182799960714      0.71481442365699
  N   -0.57113823210594     -1.31177610472531      0.21231630166601
  O   -1.38925493375688     -1.24966910675405      1.11650042873242
  O   -0.02503224024660     -2.31089964069032     -0.23832623184110
