17

C	-0.497494	-0.00025	-1.439537
C	0.0	0.0	0.0
F	-1.787648	-0.535093	-1.532756
H	1.086962	0.0	0.0
N	-0.347788	1.219903	-2.105949
H	-0.945545	1.926104	-1.69917
H	-0.530085	1.119833	-3.096943
N	0.306726	-1.030253	-2.250469
O	1.011532	-1.824237	-1.641143
O	0.148643	-0.996057	-3.470802
N	-0.509692	-1.025817	0.84423
H	-1.473212	-1.24307	0.625038
H	0.063124	-1.855501	0.759674
N	-0.402112	1.313202	0.616465
O	-1.595876	1.629922	0.532985
O	0.462789	1.974302	1.177666
Br	2.756214	0.0	0.0
