17

C	-0.433684	0.038558	-1.482039
C	0.0	0.0	0.0
F	-1.760864	0.356783	-1.547502
H	1.08966	0.0	0.0
N	0.299308	0.851392	-2.377368
H	1.269858	0.542411	-2.344675
H	0.287777	1.792166	-1.996423
N	-0.310225	-1.402207	-1.98536
O	0.810734	-1.758912	-2.324223
O	-1.323408	-2.093782	-1.973758
N	-0.477932	-1.076122	0.782569
H	-1.379219	-1.432042	0.502351
H	0.21743	-1.803866	0.849408
N	-0.477489	1.323213	0.576385
O	-1.34064	1.310068	1.444419
O	0.018775	2.341768	0.091052
Br	3.418092	0.0	0.0
