17

C	-0.630215	-0.006279	-1.391111
C	0.0	0.0	0.0
F	-0.109354	-1.094332	-2.068391
H	1.09012	0.0	0.0
N	-2.028896	-0.032775	-1.285823
H	-2.468524	0.103032	-2.185809
H	-2.290386	-0.918452	-0.870652
N	-0.210845	1.163193	-2.277354
O	-1.10168	1.786603	-2.853173
O	0.990192	1.324137	-2.407544
N	-0.474458	-1.158991	0.705222
H	-1.146994	-0.864251	1.406696
H	0.316017	-1.581301	1.17992
N	-0.434269	1.282685	0.684525
O	-0.183176	2.32998	0.097558
O	-1.004052	1.202826	1.772255
Br	3.439916	0.0	0.0
