17
Coordinates from ORCA-job run
  C   -0.58200527917615      0.03377057394584      0.50277164874383
  C   0.91255188572083      0.11441364647007      0.18454440144615
  Br  -0.60148955300476     -1.00206004344956      2.25523628423622
  H   1.44750692262279      0.63064931248230      0.97803721642498
  C   -1.48509957794507     -0.71286332083425     -0.45910970697856
  H   -2.50468361104123     -0.67041548827677     -0.06897427947754
  H   -1.19525366213093     -1.75282872306921     -0.56382692859560
  H   -1.45284154313208     -0.22880321930794     -1.43575185233427
  N   -1.01566466909673      1.36987703758833      0.64414836743045
  H   -2.01402690571765      1.43176422290847      0.79417393237955
  H   -0.52725907631971      1.88410370305070      1.36682119935044
  N   1.14023387859409      0.93271777343615     -1.06233604313980
  O   1.63886000712592      2.03845304191667     -0.87992715805417
  O   0.80083248509760      0.44132580993965     -2.13218084254084
  N   1.62378559916456     -1.19179803547283      0.00481224851672
  O   2.70007451219404     -1.27995269575360      0.59235214253563
  O   1.11447858704448     -2.03735359557402     -0.72079062994318
