17
Coordinates from ORCA-job run
  C   -0.63550483615107     -0.16397809606279      0.33583909805552
  C   0.77598984602953     -0.38105155338120     -0.20563028144452
  Br  -0.83704569839114     -1.73742329724800      1.64759663371350
  H   0.85249269613731     -1.32072183486902     -0.74725048509803
  C   -1.68833755194014     -0.41433768005146     -0.73113496835945
  H   -1.54729105032556     -1.38241360630024     -1.21048630064448
  H   -1.64250862153997      0.37487882570438     -1.48253702615539
  H   -2.67492519920783     -0.40717914952804     -0.26394943124263
  N   -0.78988759426648      1.10075612553797      0.90786863851556
  H   -0.13069833475475      1.29568378710950      1.64904679464158
  H   -1.74111883337800      1.28352347301221      1.19634029945868
  N   1.87045663330725     -0.39613896270027      0.82034302602678
  O   1.75346099020964      0.30843822304007      1.81650976606178
  O   2.83170378064663     -1.10379589662168      0.53531711840345
  N   1.12838421358562      0.72002587074687     -1.18186051282548
  O   0.69680708228533      0.55280701729018     -2.31718984760683
  O   1.77802247775364      1.66992675432153     -0.76782252150005
