17
Coordinates from ORCA-job run
  C   -0.62253415009755     -0.18880444785728      0.24217253930499
  C   0.81125957050147      0.11397989844495     -0.23530322182511
  Br  -0.98044799788790     -2.10838323440515      0.15106842386914
  H   0.91373622382889      1.18712145525342     -0.41485760310771
  C   -1.67328878050890      0.52896234338305     -0.59751642036052
  H   -2.65432714266901      0.34175600164725     -0.15704037957681
  H   -1.67754726811848      0.20056267379271     -1.63343170590260
  H   -1.47943338895605      1.60728301219542     -0.56550708853451
  N   -0.63872986261649      0.18314821595965      1.64659731485780
  H   -1.47073657487816     -0.18523654220153      2.09113189368647
  H   -0.65261727692031      1.19605267543435      1.73136996995133
  N   1.22399825235957     -0.54628574580333     -1.52603540874044
  O   2.34210920361539     -1.03775461251757     -1.58089667398346
  O   0.41594811409345     -0.45890894382014     -2.44200254700934
  N   1.80957018464923     -0.21149978452197      0.83285780228774
  O   2.36569163145132      0.76218785234425      1.33528546150975
  O   1.96634926215354     -1.38618081732808      1.12410764357329
