17
Coordinates from ORCA-job run
  C   -0.64217491375553     -0.09618888009207      0.34983303908162
  C   0.69748639792502     -0.47495692607697     -0.27825209508346
  Br  -1.05027860179029     -1.74154053065969      1.51511636177382
  H   0.60447872900986     -1.35552880002292     -0.90924984960318
  C   -1.75598210731961     -0.06903722892523     -0.68394812457280
  H   -2.71281475602853      0.04518731245361     -0.17100487247295
  H   -1.60863076687275      0.77543237787336     -1.35821696165610
  H   -1.78800918134872     -0.99363945213361     -1.25921390908780
  N   -0.57243059391888      1.11345522526548      1.04518068681859
  H   -1.47205861072607      1.41239073348837      1.39557505021389
  H   0.13327814591962      1.12665280830517      1.76884349677898
  N   1.80923459797767     -0.76457640279070      0.68657118795642
  O   1.83922350486026     -0.15685597595217      1.75055551123993
  O   2.63534205829360     -1.57976820170364      0.28787093317126
  N   1.18905801765052      0.65068158918555     -1.16162864898752
  O   1.99595568344122      1.44044835082734     -0.69162766579114
  O   0.69932239668262      0.66884400095812     -2.28540413977958
