14

C	-0.011906	0.014316	0.004524
C	-0.543739	-0.056218	-1.415951
Cl	1.817994	-0.056719	0.033413
H	-1.644624	-0.03036	-1.257041
H	-0.199245	0.795711	-1.999785
N	-0.250048	1.498138	0.508951
O	-0.237508	2.412718	-0.308074
O	-0.406353	1.629749	1.716781
N	-0.593726	-0.928327	0.813015
H	-1.659213	-0.802053	0.619881
H	-0.352007	-0.762332	1.782126
C	-0.154698	-1.297421	-2.067206
N	0.142332	-2.272523	-2.64993
F	-2.875574	-0.260978	0.008621
