14

C	-0.003995	-0.000298	0.009693
C	-0.541544	0.476525	-1.327838
Cl	1.824023	-0.090369	-0.001709
H	-1.64153	0.448012	-1.164347
H	-0.192354	1.484239	-1.547052
N	-0.228357	1.182865	1.040638
O	-0.211595	2.338905	0.631434
O	-0.378644	0.847485	2.209181
N	-0.591837	-1.175431	0.404022
H	-1.656573	-0.975047	0.285532
H	-0.342176	-1.39257	1.360993
C	-0.16401	-0.425979	-2.404433
N	0.128054	-1.102952	-3.318237
F	-2.869225	-0.231109	-0.067001
