19

C	0.0	0.0	0.0
C	-0.535662	-0.054532	-1.426869
Br	2.024672	0.0	0.0
H	-1.567246	-0.410456	-1.278507
N	-0.531535	1.018503	0.75182
H	-0.385125	0.933803	1.74454
H	-0.424951	1.946237	0.37936
N	-0.289029	-1.294139	0.784114
O	-0.222757	-1.214185	2.005159
O	-0.533659	-2.309017	0.148687
C	0.218743	-0.964262	-2.391261
H	1.152516	-0.502014	-2.721123
H	0.443259	-1.936532	-1.958106
H	-0.412035	-1.123674	-3.270318
C	-0.634548	1.358221	-2.004181
H	-0.893985	1.292197	-3.063471
H	-1.431209	1.91788	-1.511572
H	0.320572	1.893139	-1.931114
Br	-3.923521	0.0	0.0
