15

C	0.0	0.0	0.0
C	-0.354386	0.312427	-1.473571
Cl	1.837988	0.0	0.0
H	0.271531	-0.32521	-2.105844
H	-0.287246	-1.031533	0.207821
N	-0.542136	0.844467	0.996914
H	-1.493202	0.558773	1.216779
H	-0.542232	1.816681	0.710542
C	0.011215	1.699872	-1.773419
N	0.272409	2.822969	-1.998737
C	-1.826661	0.062053	-1.777098
H	-2.039677	0.29055	-2.823796
H	-2.081775	-0.982821	-1.591038
H	-2.496255	0.643029	-1.147083
Cl	-4.602521	0.0	0.0
