15

C	0.0	0.0	0.0
C	-0.335481	-0.353874	-1.474193
Cl	1.821069	0.0	0.0
H	0.294061	-1.206471	-1.750536
H	-0.301677	-0.839542	0.627792
N	-0.550689	1.19492	0.53346
H	-0.452164	1.964807	-0.118537
H	-1.540251	1.048042	0.72434
C	0.065219	0.763076	-2.334728
N	0.354391	1.676276	-3.014368
C	-1.800536	-0.708183	-1.700557
H	-2.102438	-1.525041	-1.045295
H	-1.945842	-1.015185	-2.739298
H	-2.477812	0.111202	-1.476378
Cl	-4.498247	0.0	0.0
