15

C	0.0	0.0	0.0
C	-0.346298	-0.21591	-1.502321
Cl	1.795418	0.0	0.0
H	0.290942	-1.029969	-1.864101
H	-0.307387	-0.893944	0.545277
N	-0.557948	1.140675	0.641371
H	-0.468958	1.964888	0.057915
H	-1.546076	0.96846	0.818554
C	0.035902	0.983961	-2.252396
N	0.296883	1.960929	-2.849882
C	-1.80717	-0.56871	-1.756744
H	-2.502472	0.194125	-1.415544
H	-1.965624	-0.736918	-2.824534
H	-2.077825	-1.477321	-1.217068
Cl	-4.531901	0.0	0.0
