15

C	0.0	0.0	0.0
C	-0.499412	-0.036225	-1.463835
Cl	1.78718	0.0	0.0
H	-1.587072	-0.167738	-1.357039
H	-0.302931	-0.936299	0.469897
N	-0.506287	1.071106	0.802544
H	-1.520878	0.934089	0.843982
H	-0.321183	1.961513	0.355986
C	0.032282	-1.198342	-2.172221
N	0.456818	-2.12344	-2.760032
C	-0.225362	1.243789	-2.251009
H	-0.75298	2.081578	-1.789157
H	-0.603895	1.141983	-3.270326
H	0.844424	1.465566	-2.295035
Cl	-3.551295	0.0	0.0
