16

C	0.0	0.0	0.0
C	-0.60355	-0.028041	-1.38794
Cl	1.785066	0.0	0.0
H	-1.684458	0.114121	-1.180861
H	-0.222962	0.812899	-1.972505
N	-0.329286	1.3642	0.624803
O	-0.500787	1.414179	1.836285
O	-0.32302	2.335166	-0.125856
C	-0.542106	-1.094925	0.871422
H	-0.297677	-2.045815	0.399561
H	-0.12763	-1.042724	1.877169
H	-1.636174	-0.954144	0.882025
N	-0.382608	-1.329226	-2.013552
H	-1.251767	-1.635144	-2.431965
H	0.321641	-1.259571	-2.735601
H	-3.340604	0.0	0.0
