16

C	0.0	0.0	0.0
C	-0.467732	-0.037984	-1.519559
Cl	1.765311	0.0	0.0
H	0.100721	-0.851431	-1.973684
H	-1.51194	-0.292816	-1.591919
N	-0.405621	1.359839	0.422985
O	0.173199	1.722532	1.582637
O	-1.771637	1.759472	0.535936
C	-0.359764	-1.290809	0.876589
H	0.0116	-1.148329	1.88022
H	-1.443395	-1.296933	0.918252
H	-0.03965	-2.20915	0.391479
N	-0.153715	1.239172	-2.1317
H	-0.95197	1.856295	-1.967558
H	0.040752	1.100371	-3.107341
H	-1.826814	0.0	0.0
