18

C	-0.294187	-0.009552	-1.490436
C	0.0	0.0	0.0
Br	-2.253876	-0.022812	-1.881442
H	1.100988	0.0	0.0
H	0.026808	0.945438	-1.913134
C	0.367465	-1.148757	-2.241162
H	-0.056104	-2.114085	-1.959073
H	1.432246	-1.134658	-1.983929
H	0.251476	-1.026866	-3.3203
C	-0.473063	-1.24555	0.738074
H	-1.564199	-1.334338	0.716165
H	-0.151792	-1.190088	1.781678
H	-0.038184	-2.154676	0.318204
C	-0.485619	1.270112	0.683804
H	-0.088538	1.317651	1.701451
H	-1.578939	1.306433	0.733827
H	-0.133128	2.159005	0.152331
Cl	3.517653	0.0	0.0
