11
Coordinates from ORCA-job run
  C   -1.14497040594530     -0.90871117582448     -0.36211714924341
  C   -0.09491140813745     -0.13751142067082     -0.07018395199581
  H   -2.11354449456305     -0.69162476292862      0.07106976921080
  H   -1.04405562161764     -1.75543042520904     -1.02758186329171
  C   -0.06572379009584      1.05973216017981      0.81922992650645
  H   0.65508306468741      0.92521736264021      1.62744610565229
  H   -1.05572002587736      1.22121387518502      1.24668107678239
  H   0.23545256115833      1.94902442730887      0.26399308828972
  N   1.20712990044766     -0.47641925057791     -0.69949075281414
  O   1.29034847659650     -1.49836134741429     -1.37269445025457
  O   2.12991174334675      0.31387055731125     -0.49635179884199
