11
Coordinates from ORCA-job run
  C   -1.18709884824001     -0.87070524565787     -0.31639169255861
  C   -0.10089978390241     -0.13893867219801     -0.05767998315246
  H   -2.16913521927505     -0.49185301340476     -0.06117695333061
  H   -1.10488781648223     -1.84406437041583     -0.78083902399103
  C   -0.04381865256890      1.21156985107821      0.57315124984117
  H   0.54992382472911      1.18760704858565      1.48817406617771
  H   0.42569974823182      1.93368131060745     -0.09649974484430
  H   -1.05395869523753      1.54663848011179      0.81029871082139
  N   1.22024640447041     -0.70845562446422     -0.42904223880330
  O   2.20269287459788     -0.00991494272967     -0.17560525998538
  O   1.26023616367692     -1.81556482151274     -0.95538913017456
