11
Coordinates from ORCA-job run
  C   -1.17414329232684     -0.87809519102587     -0.34292865141305
  C   -0.09880145207139     -0.13834736301061     -0.06234857257074
  H   -1.07952355942095     -1.82834623995615     -0.85078812034965
  H   -2.15992935250122     -0.52922204546719     -0.06082361674616
  C   -0.06008492922256      1.18413814164370      0.62654990319249
  H   0.54310318814106      1.13200957816869      1.53417707477602
  H   0.38967455023413      1.94295273868995     -0.01556023941786
  H   -1.07379083596540      1.49011409507151      0.88658554842258
  N   1.22857821756247     -0.66563603658044     -0.47198503600324
  O   1.28318204246697     -1.74756740236775     -1.04712525798510
  O   2.20073542310371      0.03899972483415     -0.19675303190528
