11
Coordinates from ORCA-job run
  C   -1.14503897538779     -0.90630469340611     -0.36721115261974
  C   -0.09620749829701     -0.13324850017315     -0.07618421606332
  H   -1.05181599871752     -1.73551566905701     -1.05538195816233
  H   -2.10733546406471     -0.70695525100051      0.08809073696962
  C   -0.05976534691545      1.03958817413577      0.84481408180269
  H   0.24794074879401      1.94122726328003      0.31302721330802
  H   -1.04957342485499      1.19736036222974      1.27404881534896
  H   0.65928894654315      0.87965040927970      1.64960085446246
  N   1.19964937813220     -0.45205336655245     -0.72927605184846
  O   1.25378104264974     -1.40173534177114     -1.50353603633736
  O   2.14807659211838      0.27798661303513     -0.43799228686055
