15

C	0.0	0.0	0.0
C	-0.450276	0.18386	-1.459699
Cl	1.857377	0.0	0.0
H	0.401383	0.433701	-2.097172
H	-0.22886	-1.002008	0.347898
N	-0.57382	0.949749	0.829529
H	-0.406694	0.834525	1.814066
H	-0.537996	1.899441	0.498875
N	-1.463667	1.154336	-1.594693
H	-2.29099	0.894951	-1.038969
H	-1.743419	1.233517	-2.563232
N	-0.829773	-1.214188	-2.049797
O	-0.459616	-2.239744	-1.486791
O	-1.406909	-1.171132	-3.131639
Br	-4.217208	0.0	0.0
