15

C	0.0	0.0	0.0
C	-0.405978	-0.020508	-1.529407
Cl	1.893705	0.0	0.0
H	0.274136	-0.740197	-2.01964
H	-0.255896	-0.916311	0.522931
N	-0.38063	1.134336	0.782522
H	0.298334	1.306503	1.519968
H	-0.403899	1.93808	0.144134
N	-0.221076	1.35795	-2.054806
H	0.768728	1.542835	-2.051789
H	-0.587454	1.402303	-2.967945
N	-1.655875	-0.583852	-1.997818
O	-1.577899	-1.238687	-3.142607
O	-2.740128	0.294516	-2.295764
Br	-3.098149	0.0	0.0
