15

C	0.0	0.0	0.0
C	-0.515672	-0.087214	-1.444393
Cl	1.851851	0.0	0.0
H	-1.572038	0.206508	-1.380694
H	-0.263924	-0.935606	0.490569
N	-0.529417	1.08132	0.689338
H	-0.30903	1.124364	1.669137
H	-0.457396	1.961779	0.207601
N	-0.401331	-1.353447	-2.080342
H	0.468038	-1.817635	-1.852071
H	-1.195868	-1.916662	-1.807466
N	0.191638	0.969688	-2.265813
O	0.955409	0.623082	-3.158068
O	-0.028762	2.139334	-1.941036
Br	-3.826805	0.0	0.0
