15

C	0.0	0.0	0.0
C	-0.527438	0.074817	-1.421613
Cl	1.854865	0.0	0.0
H	-1.618766	0.190695	-1.303329
H	-0.248911	-1.001341	0.343748
N	-0.535065	0.953313	0.853566
H	-0.422687	1.909151	0.563334
H	-0.375211	0.788716	1.832046
N	-0.206838	-1.089149	-2.162049
H	0.770518	-1.093293	-2.423602
H	-0.772503	-1.141511	-2.997001
N	-0.027838	1.359504	-2.100344
O	-0.196489	2.424533	-1.509473
O	0.496621	1.256622	-3.207381
Br	-3.89876	0.0	0.0
