15

C	0.0	0.0	0.0
C	-0.397358	-0.057156	-1.465409
Cl	1.731577	0.0	0.0
H	-0.047283	0.853654	-1.94175
H	-1.487112	-0.12111	-1.528442
N	-0.915483	1.124498	0.622039
O	-0.856596	2.168726	-0.085487
O	-0.927157	1.136977	1.869072
N	-0.390104	-1.254737	0.763601
O	0.227279	-1.515349	1.792013
O	-1.377413	-1.858322	0.342944
N	0.156756	-1.189744	-2.257836
O	0.180026	-1.0085	-3.477421
O	0.505094	-2.226024	-1.697726
H	-2.248091	0.0	0.0
