15

C	0.0	0.0	0.0
C	-0.188066	-0.312068	-1.489434
Cl	1.794139	0.0	0.0
H	0.302376	-1.261893	-1.683737
H	0.27168	0.499935	-2.046034
N	-0.360671	1.393951	0.396712
O	-0.455343	2.19629	-0.536584
O	-0.363507	1.689574	1.587915
N	-0.358972	-1.11909	0.924134
O	-0.433435	-0.909687	2.129704
O	-0.384823	-2.233075	0.392039
N	-1.563459	-0.454589	-2.060652
O	-2.050401	0.537203	-2.602104
O	-2.053007	-1.58265	-2.079311
H	-1.804693	0.0	0.0
