15

C	0.0	0.0	0.0
C	-0.37742	-0.094889	-1.499565
Cl	1.729162	0.0	0.0
H	-1.434395	-0.309288	-1.588321
H	0.232491	-0.890863	-1.92507
N	-0.420816	1.303599	0.658758
O	-0.636244	2.248822	-0.097493
O	-0.362898	1.368333	1.878473
N	-0.660623	-1.180721	0.646149
O	-0.683055	-2.183496	-0.119832
O	-0.642847	-1.265455	1.886309
N	-0.125967	1.111399	-2.351325
O	1.017793	1.543961	-2.448192
O	-1.090133	1.533608	-2.986856
H	-2.143464	0.0	0.0
