15

C	0.0	0.0	0.0
C	-0.413532	-0.009342	-1.47465
Cl	1.729303	0.0	0.0
H	0.341774	-0.541966	-2.054767
H	-1.400385	-0.444014	-1.579538
N	-0.350227	1.398462	0.811029
O	-1.51756	1.705701	0.975421
O	0.603675	2.055251	1.202902
N	-0.720963	-1.07157	0.695041
O	-0.641563	-1.018305	1.95108
O	-0.718564	-2.160554	0.035789
N	-0.474153	1.372389	-2.039047
O	0.596469	1.958785	-2.205971
O	-1.580447	1.834275	-2.31662
H	-2.068334	0.0	0.0
