16

C	0.0	0.0	0.0
C	-0.548318	0.001667	-1.4098
Br	2.026274	0.0	0.0
H	-1.6582	-0.121835	-1.240159
H	-0.326251	0.941173	-1.914317
N	-0.423699	1.215701	0.579287
H	-0.337186	1.210666	1.584132
H	0.043255	2.022066	0.183944
C	-0.453429	-1.171319	0.836173
H	-0.064913	-2.10936	0.446383
H	-1.555369	-1.144796	0.792603
H	-0.104149	-1.040675	1.865043
N	-0.004127	-1.06015	-2.273693
O	-0.197758	-2.233634	-1.951428
O	0.600836	-0.714155	-3.295216
H	-3.208913	0.0	0.0
