14

C	-0.421911	-0.102109	-1.457651
C	0.0	0.0	0.0
Br	-2.347287	-0.178045	-1.68514
H	1.0941	0.0	0.0
H	-0.065721	0.74815	-2.038366
N	0.168176	-1.316477	-2.133744
O	0.644192	-2.198734	-1.430653
O	0.123168	-1.310403	-3.361163
N	-0.533531	-1.084911	0.820538
H	0.245182	-1.677844	1.079867
H	-0.956307	-0.718405	1.663017
C	-0.428317	1.30815	0.498054
N	-0.777569	2.344736	0.926309
Br	3.391395	0.0	0.0
