14

C	-0.576576	-0.032556	-1.412173
C	0.0	0.0	0.0
Br	0.253344	-1.391039	-2.49603
H	1.092383	0.0	0.0
H	-1.645951	-0.236814	-1.402433
N	-0.425986	1.287556	-2.113047
O	0.633867	1.88321	-1.973894
O	-1.391513	1.658104	-2.781137
N	-0.423114	-1.217107	0.687968
H	-1.257124	-1.058552	1.239338
H	0.328255	-1.510412	1.300189
C	-0.48265	1.214638	0.67565
N	-0.943148	2.125052	1.259572
Br	3.444155	0.0	0.0
