14

C	-0.391071	-0.000969	-1.45276
C	0.0	0.0	0.0
Br	0.131279	1.6087	-2.38074
H	1.095525	0.0	0.0
H	0.076796	-0.844114	-1.963189
N	-1.878533	-0.178719	-1.665686
O	-2.620379	0.112978	-0.731591
O	-2.229006	-0.658731	-2.739707
N	-0.4532	-1.250743	0.578826
H	0.120428	-1.483159	1.382461
H	-1.417095	-1.172024	0.8822
C	-0.426375	1.204774	0.711652
N	-0.730826	2.135066	1.369458
Br	2.751578	0.0	0.0
