14

C	-0.560433	-0.078264	-1.427313
C	0.0	0.0	0.0
Br	0.245213	-1.522263	-2.422426
H	1.09368	0.0	0.0
H	-1.638901	-0.242829	-1.426066
N	-0.375925	1.209531	-2.18802
O	-1.408872	1.730189	-2.614988
O	0.761192	1.641284	-2.305478
N	-0.377325	-1.15215	0.80489
H	-1.282507	-1.525248	0.545387
H	0.332775	-1.865218	0.692603
C	-0.525757	1.226516	0.613701
N	-0.999967	2.201005	1.067166
Br	3.420476	0.0	0.0
