14

C	-0.498972	0.052054	-1.441341
C	0.0	0.0	0.0
Br	-2.417823	0.314616	-1.55861
H	1.094448	0.0	0.0
H	-0.020737	0.858169	-1.994531
N	-0.112436	-1.225649	-2.150162
O	-0.896182	-2.163432	-2.172382
O	1.017595	-1.199672	-2.628253
N	-0.420828	-1.216256	0.664242
H	-1.32722	-1.12075	1.101884
H	0.272969	-1.461142	1.358807
C	-0.408126	1.236754	0.687934
N	-0.739317	2.192637	1.286511
Br	3.397966	0.0	0.0
