17

C	0.0	0.0	0.0
C	-0.655557	-0.045496	-1.373008
Br	1.957326	0.0	0.0
H	-1.79085	-0.039658	-1.031257
C	-0.406348	1.326322	0.643316
H	-0.002944	2.189026	0.109279
H	-1.504044	1.342867	0.643738
H	-0.041238	1.348569	1.673506
N	-0.467005	-1.160666	0.708685
H	-1.499303	-1.094554	0.64651
H	-0.211402	-1.058683	1.686062
N	-0.381066	-1.315195	-2.103747
O	0.558962	-1.326164	-2.904539
O	-1.113198	-2.269974	-1.859328
C	-0.337377	1.082572	-2.219653
N	-0.153105	2.038518	-2.879886
H	-2.94325	0.0	0.0
