17

C	0.0	0.0	0.0
C	-0.609926	-0.024928	-1.408902
Br	1.968213	0.0	0.0
H	-1.756737	-0.091204	-1.056556
C	-0.412214	1.318148	0.643514
H	-1.508656	1.355725	0.610053
H	-0.080524	1.299008	1.681818
H	0.019071	2.177596	0.130324
N	-0.454565	-1.067074	0.844356
H	-1.482828	-0.935605	0.85357
H	-0.283493	-1.952189	0.382167
N	-0.231334	-1.210462	-2.199927
O	0.323069	-1.047258	-3.290331
O	-0.506219	-2.318201	-1.724657
C	-0.3747	1.170791	-2.188626
N	-0.252238	2.186183	-2.771936
H	-2.873222	0.0	0.0
