13

C	0.0	0.0	0.0
C	-0.552058	0.009192	-1.40012
Cl	1.760918	0.0	0.0
H	-1.653445	-0.021841	-1.316887
H	-0.367497	0.83123	0.592905
H	-0.166549	-0.80984	-1.999562
N	-0.419266	-1.261638	0.711442
O	-0.536465	-1.178995	1.92679
O	-0.527296	-2.276919	0.033034
N	-0.190037	1.274044	-2.083894
O	-0.008875	1.217299	-3.299269
O	-0.141061	2.300502	-1.408634
Br	-3.603423	0.0	0.0
