16

C	0.0	0.0	0.0
C	-0.076146	-0.111874	-1.547509
Br	2.296344	0.0	0.0
H	0.566485	0.6872	-1.934048
N	-0.455656	1.243842	0.438104
H	-1.49154	1.096679	0.25449
H	-0.349112	1.255983	1.448668
N	-0.404204	-1.095983	0.739777
H	-0.217143	-1.937363	0.202589
H	-1.436953	-0.918325	0.759514
C	-1.400802	0.136731	-2.151776
N	-2.229165	0.339062	-2.962233
N	0.340684	-1.453493	-1.972752
H	0.080201	-1.58999	-2.941742
H	1.350715	-1.494058	-1.896586
F	-2.676214	0.0	0.0
