16

C	0.0	0.0	0.0
C	-0.46845	-0.060247	-1.476822
Br	1.954284	0.0	0.0
H	-1.563727	-0.092411	-1.329759
N	-0.499343	1.253945	0.5065
H	-1.526364	1.088559	0.452338
H	-0.24252	1.293942	1.486228
N	-0.475018	-1.10803	0.785114
H	-0.184597	-1.983183	0.362059
H	-1.501754	-0.999848	0.68775
C	-0.034696	-1.303861	-2.120225
N	0.274374	-2.313948	-2.633647
N	0.001686	1.097796	-2.249963
H	0.013532	1.86341	-1.578822
H	-0.713544	1.31799	-2.934309
F	-2.839223	0.0	0.0
