16

C	0.0	0.0	0.0
C	-0.223333	0.030531	-1.571815
Br	1.965612	0.0	0.0
H	0.515521	-0.671554	-1.969521
N	-0.526862	1.193931	0.597489
H	-1.549907	1.044772	0.491638
H	-0.319643	1.174173	1.592343
N	-0.476536	-1.271424	0.489562
H	-1.500222	-1.158842	0.410676
H	-0.256506	-1.32363	1.48094
C	0.160188	1.371063	-2.068891
N	0.395154	2.393164	-2.599808
N	-1.534	-0.375098	-2.064126
H	-1.737028	0.147763	-2.906094
H	-2.258973	-0.175413	-1.344891
F	-2.964364	0.0	0.0
