16

C	0.0	0.0	0.0
C	-0.2131	-0.008811	-1.54068
Br	2.086397	0.0	0.0
H	0.357925	0.851815	-1.919829
N	-0.577394	1.055413	0.701387
H	-1.641883	0.743565	0.54792
H	-0.390458	1.929035	0.218883
N	-0.38438	-1.210353	0.542729
H	-0.063751	-2.005597	0.014011
H	-0.255118	-1.261044	1.539951
C	-1.595538	0.227063	-2.022197
N	-2.376861	0.471637	-2.871116
N	0.246519	-1.279795	-2.123064
H	1.244388	-1.220002	-2.277189
H	-0.218528	-1.427321	-3.009352
F	-2.752643	0.0	0.0
