16

C	0.0	0.0	0.0
C	-0.494597	0.065239	-1.447482
Br	2.058062	0.0	0.0
H	-1.595774	0.116719	-1.204085
N	-0.360611	1.207953	0.6213
H	-0.082674	1.203275	1.591012
H	-0.011197	2.002886	0.108226
N	-0.539055	-1.070261	0.750887
H	-0.346901	-1.949128	0.281167
H	-1.573436	-0.828168	0.649025
C	-0.202754	-1.178796	-2.166402
N	0.004375	-2.154948	-2.789023
N	-0.038295	1.264134	-2.138791
H	-0.67046	1.473	-2.900924
H	0.889784	1.114619	-2.517334
F	-2.836507	0.0	0.0
