12

C	0.0	0.0	0.0
C	-0.429755	-0.099769	-1.453572
Br	1.933136	0.0	0.0
H	0.101817	0.645778	-2.04594
H	-0.355731	0.923404	0.431185
H	-0.361066	-0.845301	0.564367
C	-1.883511	-0.056234	-1.79325
N	-2.631039	-0.314506	-2.655795
N	0.064474	-1.402535	-2.032929
O	0.556148	-1.362679	-3.156662
O	-0.076861	-2.413506	-1.356234
F	-2.422197	0.0	0.0
