12

C	0.0	0.0	0.0
C	-0.413285	-0.057215	-1.465085
Br	1.933121	0.0	0.0
H	0.12731	0.702699	-2.03254
H	-0.362481	0.911237	0.456479
H	-0.365632	-0.864357	0.535826
C	-1.863463	0.021547	-1.809687
N	-2.680221	0.132953	-2.669443
N	0.080341	-1.352508	-2.074484
O	0.570537	-1.290687	-3.198859
O	-0.075616	-2.381447	-1.424753
F	-2.393696	0.0	0.0
