14

C	0.0	0.0	0.0
C	-0.535045	-0.220484	-1.419204
Br	1.940113	0.0	0.0
H	-1.619174	-0.349578	-1.265703
H	-0.272537	-0.871842	0.603145
N	-0.511134	1.257493	0.481976
H	-1.534187	1.162846	0.464038
H	-0.229794	1.387664	1.446819
C	-0.015406	-1.466457	-1.995827
N	0.357143	-2.471485	-2.475482
N	-0.213746	0.916099	-2.285129
H	-0.203462	1.729538	-1.675368
H	-0.98953	1.040898	-2.92641
Br	-3.737019	0.0	0.0
