14

C	0.0	0.0	0.0
C	-0.527405	-0.216884	-1.424948
Br	1.940282	0.0	0.0
H	-1.616139	-0.32765	-1.28694
H	-0.272197	-0.875214	0.599573
N	-0.522279	1.253889	0.479908
H	-0.222349	1.402664	1.436291
H	-1.544522	1.140558	0.480452
C	-0.024113	-1.471484	-1.996103
N	0.322854	-2.486973	-2.47237
N	-0.171395	0.914435	-2.284154
H	-0.246451	1.736118	-1.687839
H	-0.889029	0.99782	-2.996791
Br	-3.736638	0.0	0.0
