14

C	0.0	0.0	0.0
C	-0.21523	-0.025873	-1.548536
Br	2.035249	0.0	0.0
H	0.561975	0.631009	-1.965552
H	-0.32325	-0.948006	0.423222
N	-0.489151	1.094543	0.737535
H	-1.486402	0.902792	0.895155
H	-0.416608	1.95125	0.20138
C	-1.433674	0.58183	-2.11228
N	-2.103891	1.154272	-2.892219
N	-0.077616	-1.405473	-2.025341
H	0.910391	-1.620508	-2.090727
H	-0.485663	-1.491336	-2.947847
Br	-3.580376	0.0	0.0
