14

C	0.0	0.0	0.0
C	-0.385989	0.197533	-1.500403
Br	1.94884	0.0	0.0
H	0.416406	-0.203554	-2.123782
H	-0.284327	-1.024622	0.239553
N	-0.571795	0.877661	0.959835
H	-1.555091	0.634133	1.084638
H	-0.515222	1.842885	0.654777
C	-0.438475	1.65086	-1.798405
N	-0.477077	2.783788	-2.109882
N	-1.581842	-0.558107	-1.79588
H	-2.374531	-0.284272	-1.20616
H	-1.864593	-0.400937	-2.756559
Br	-4.28527	0.0	0.0
