17

C	-0.439554	0.002561	-1.459813
C	0.0	0.0	0.0
Cl	-2.176082	-0.219217	-1.688439
H	1.091946	0.0	0.0
N	-0.033583	1.41058	-1.999573
O	-0.913071	2.218644	-2.247485
O	1.174605	1.573794	-2.079431
C	0.275654	-0.967195	-2.284357
N	0.833281	-1.727602	-2.987025
N	-0.415001	-1.327279	0.547051
O	0.295106	-2.284789	0.23906
O	-1.34747	-1.362932	1.358631
C	-0.575837	1.139668	0.802042
H	-0.294613	1.007108	1.848162
H	-0.137338	2.081458	0.463233
H	-1.663723	1.200163	0.743477
Cl	2.687518	0.0	0.0
