17

C	-0.533764	-0.008856	-1.435854
C	0.0	0.0	0.0
Cl	-2.288116	-0.30141	-1.477291
H	1.09194	0.0	0.0
N	-0.267474	1.414586	-2.000112
O	0.85073	1.577762	-2.466129
O	-1.151299	2.248477	-1.882103
C	0.113423	-0.939338	-2.353152
N	0.564539	-1.645877	-3.177545
N	-0.384793	-1.304676	0.634439
O	-0.274448	-2.312525	-0.059535
O	-0.739337	-1.296664	1.81059
C	-0.468673	1.176589	0.827438
H	-1.554381	1.282478	0.842429
H	-0.106764	1.035194	1.843577
H	-0.012743	2.088917	0.442621
Cl	3.172765	0.0	0.0
