17

C	-0.53303	-0.031673	-1.435116
C	0.0	0.0	0.0
Cl	-2.286514	-0.325914	-1.47244
H	1.091922	0.0	0.0
N	-0.267589	1.383965	-2.02525
O	0.841988	1.534505	-2.513283
O	-1.145677	2.222934	-1.902421
C	0.1153	-0.977103	-2.336078
N	0.570134	-1.691743	-3.151616
N	-0.387998	-1.295362	0.65217
O	-0.772847	-1.267049	1.818433
O	-0.254146	-2.315528	-0.019653
C	-0.46819	1.188133	0.810306
H	-0.107943	1.060238	1.82882
H	-0.009927	2.094159	0.413981
H	-1.553314	1.297145	0.822091
Cl	3.173536	0.0	0.0
