17

C	-0.526531	0.055708	-1.427355
C	0.0	0.0	0.0
Cl	0.325369	1.347533	-2.296209
H	1.094323	0.0	0.0
N	-0.215205	-1.241174	-2.204832
O	-0.880762	-1.415234	-3.21824
O	0.682329	-1.939804	-1.772763
C	-1.964717	0.298868	-1.521573
N	-3.104795	0.581602	-1.554193
N	-0.507417	-1.233941	0.666543
O	-0.032117	-1.503818	1.761818
O	-1.403893	-1.870236	0.102593
C	-0.452862	1.188421	0.838586
H	-1.540554	1.223209	0.94768
H	0.015399	1.097223	1.818409
H	-0.099566	2.112777	0.382687
Cl	3.220995	0.0	0.0
