17

C	-0.412852	-0.101985	-1.470033
C	0.0	0.0	0.0
Cl	0.330423	-1.50721	-2.217864
H	1.092425	0.0	0.0
N	-1.959696	-0.148084	-1.681753
O	-2.538372	0.83451	-1.234973
O	-2.458665	-1.08373	-2.270472
C	0.004841	1.103172	-2.182496
N	0.293031	2.076036	-2.773489
N	-0.469285	-1.200173	0.75155
O	-1.490566	-1.768506	0.352461
O	0.157855	-1.495448	1.761283
C	-0.452769	1.233602	0.767292
H	-1.527118	1.240125	0.950011
H	-0.174475	2.134219	0.219256
H	0.09327	1.234301	1.71179
Cl	3.21153	0.0	0.0
