17

C	-0.564385	-0.055867	-1.413917
C	0.0	0.0	0.0
Cl	0.097595	1.294568	-2.359872
H	1.107228	0.0	0.0
N	-0.137521	-1.326071	-2.181477
O	0.928263	-1.819321	-1.8675
O	-0.892262	-1.671914	-3.081748
C	-2.022264	0.018757	-1.434085
N	-3.187067	0.167275	-1.378979
N	-0.459487	-1.213108	0.745063
O	-0.178198	-1.27186	1.936937
O	-1.091772	-2.073653	0.125855
C	-0.452482	1.232466	0.76804
H	-0.087427	2.1282	0.268194
H	0.002169	1.191854	1.756495
H	-1.540854	1.281337	0.867568
Cl	3.224473	0.0	0.0
