17

C	-0.456851	-0.139081	-1.451837
C	0.0	0.0	0.0
Cl	0.066634	-1.604545	-2.292531
H	1.100776	0.0	0.0
N	-2.004252	-0.134907	-1.527959
O	-2.570559	-0.887252	-0.747553
O	-2.534561	0.591006	-2.361292
C	0.015475	1.011113	-2.221142
N	0.377266	1.944302	-2.839335
N	-0.414873	-1.167078	0.85004
O	0.010109	-2.272355	0.533315
O	-1.114218	-0.937402	1.835385
C	-0.49228	1.301765	0.604659
H	-1.581371	1.351556	0.670253
H	-0.085046	1.387208	1.61116
H	-0.111552	2.141762	0.021883
Cl	3.189399	0.0	0.0
