17

C	-0.49317	-0.020846	-1.46105
C	0.0	0.0	0.0
Cl	0.047605	1.468215	-2.321438
H	1.108223	0.0	0.0
N	0.120225	-1.113576	-2.283297
O	1.415125	-1.135311	-2.218073
O	-0.423318	-1.242713	-3.450842
C	-2.03303	-0.005058	-1.533222
N	-2.730274	0.923168	-1.308698
N	-0.363112	-1.225113	0.725917
O	0.044088	-2.330478	0.153677
O	-0.194709	-1.140115	2.020851
C	-0.434049	1.258165	0.768438
H	-1.505019	1.229787	1.012194
H	-0.218021	2.173966	0.204066
H	0.127398	1.323625	1.710271
Cl	2.603453	0.0	0.0
