17

C	-0.4375	-0.019853	-1.465335
C	0.0	0.0	0.0
Cl	0.550406	-1.092908	-2.441438
H	1.115004	0.0	0.0
N	-1.946113	-0.403265	-1.625445
O	-2.277996	-1.065379	-2.590701
O	-2.681629	0.075707	-0.773626
C	-0.36488	1.323468	-2.038808
N	-0.335781	2.395537	-2.520542
N	-0.419782	-1.265069	0.672949
O	-0.218001	-1.333403	1.880991
O	-0.911183	-2.164693	-0.010552
C	-0.412105	1.203346	0.832503
H	-0.062036	2.113664	0.344522
H	0.10254	1.127386	1.78904
H	-1.488627	1.257616	0.989246
Cl	3.191376	0.0	0.0
