12

C	-0.496665	-0.017325	-1.458135
C	0.0	0.0	0.0
Br	0.25526	1.541745	-2.383321
H	1.093125	0.0	0.0
H	-0.337633	0.93048	0.465212
C	-0.073618	-1.225097	-2.168169
N	0.250061	-2.184692	-2.764822
C	-1.956024	0.095016	-1.527497
N	-3.127588	0.19238	-1.545448
C	-0.535934	-1.143158	0.728471
N	-0.975543	-2.064093	1.31043
Br	3.39865	0.0	0.0
