12

C	-0.458083	-0.003676	-1.462676
C	0.0	0.0	0.0
Br	-2.439151	0.1292	-1.565322
H	1.095147	0.0	0.0
H	-0.335187	0.929779	0.467736
C	0.068654	1.162267	-2.171416
N	0.478263	2.094433	-2.75869
C	-0.082252	-1.233978	-2.15724
N	0.19838	-2.217699	-2.736123
C	-0.526788	-1.143821	0.72806
N	-0.953588	-2.063478	1.320692
Br	3.368023	0.0	0.0
