12

C	-0.456402	0.335322	-1.432405
C	0.0	0.0	0.0
Br	0.18404	2.119617	-1.928264
H	1.104312	0.0	0.0
H	-0.332394	-1.017537	0.23456
C	0.098696	-0.629844	-2.381743
N	0.49466	-1.422232	-3.153982
C	-1.915324	0.34145	-1.562422
N	-3.086739	0.321278	-1.666166
C	-0.567536	0.934201	0.961004
N	-1.066393	1.686991	1.711334
Br	3.392613	0.0	0.0
