12

C	-0.496371	-0.234453	-1.439172
C	0.0	0.0	0.0
Br	0.246459	1.177874	-2.583376
H	1.104815	0.0	0.0
H	-0.33609	0.989606	0.320842
C	-0.065836	-1.530542	-1.964399
N	0.232695	-2.58224	-2.396716
C	-1.956085	-0.140697	-1.524656
N	-3.127451	-0.048011	-1.56063
C	-0.539222	-1.021131	0.888365
N	-1.001566	-1.841989	1.589989
Br	3.39603	0.0	0.0
