12

C	-0.479206	0.332243	-1.424722
C	0.0	0.0	0.0
Br	0.295254	-0.989901	-2.650127
H	1.107681	0.0	0.0
H	-0.335647	-1.010166	0.24934
C	-1.93621	0.241075	-1.547689
N	-3.105278	0.158231	-1.637028
C	-0.052535	1.665414	-1.850116
N	0.233175	2.751104	-2.198669
C	-0.552265	0.959769	0.946335
N	-1.037465	1.731897	1.685797
Br	3.397541	0.0	0.0
