12

C	-0.506137	0.025025	-1.453423
C	0.0	0.0	0.0
Br	0.219492	-1.542623	-2.385945
H	1.105188	0.0	0.0
H	-0.335939	-0.931782	0.463584
C	-1.967425	-0.070458	-1.5077
N	-3.140802	-0.147092	-1.50628
C	-0.078929	1.227946	-2.168542
N	0.205262	2.201882	-2.762115
C	-0.527087	1.139122	0.740975
N	-0.963225	2.050448	1.340723
Br	3.388977	0.0	0.0
