12

C	-0.471013	-0.370417	-1.416305
C	0.0	0.0	0.0
Br	0.227039	-2.135874	-1.914924
H	1.105152	0.0	0.0
H	-0.329857	1.022849	0.214115
C	-1.932086	-0.429539	-1.519917
N	-3.105137	-0.4506	-1.607906
C	0.024875	0.616723	-2.37778
N	0.36871	1.450423	-3.130966
C	-0.541795	-0.907431	0.999589
N	-0.996344	-1.626936	1.809503
Br	3.37816	0.0	0.0
