12

C	-0.456867	0.244514	-1.443129
C	0.0	0.0	0.0
Br	-2.434004	0.081645	-1.576362
H	1.104259	0.0	0.0
H	-0.330093	-0.996775	0.304911
C	-0.116332	1.58768	-1.908646
N	0.113373	2.678816	-2.281373
C	0.100796	-0.766539	-2.340862
N	0.50641	-1.592521	-3.072204
C	-0.536034	1.003292	0.905645
N	-0.984045	1.809272	1.632516
Br	3.371355	0.0	0.0
