12

C	-0.483048	0.264135	-1.43729
C	0.0	0.0	0.0
Br	0.163574	2.010689	-2.053342
H	1.10405	0.0	0.0
H	-0.329179	-1.004611	0.28688
C	0.030832	-0.764202	-2.343297
N	0.38965	-1.604726	-3.082098
C	-1.945577	0.278562	-1.524281
N	-3.12012	0.258421	-1.573281
C	-0.547031	0.97632	0.929876
N	-1.012575	1.753025	1.677622
Br	3.384009	0.0	0.0
