12

C	-0.499851	0.072144	-1.455258
C	0.0	0.0	0.0
Br	0.271933	1.672119	-2.289956
H	1.096291	0.0	0.0
H	-0.333606	0.902762	0.519987
C	-0.095432	-1.099969	-2.232199
N	0.176207	-2.056272	-2.85898
C	-1.957306	0.210517	-1.512167
N	-3.126226	0.339155	-1.517459
C	-0.541216	-1.181145	0.660474
N	-1.000546	-2.126984	1.184544
Br	3.393491	0.0	0.0
