13

C	0.0	0.0	0.0
C	-0.534559	0.348561	-1.404189
Cl	1.794729	0.0	0.0
H	-1.525629	0.782301	-1.251528
H	0.14708	1.091712	-1.825713
C	-0.389934	1.034581	0.968528
N	-0.561456	1.913259	1.72904
C	-0.420663	-1.326639	0.45964
N	-0.615368	-2.424853	0.828832
N	-0.549847	-0.855374	-2.220007
H	-0.540844	-0.592364	-3.197506
H	-1.440738	-1.312777	-2.040613
Br	-3.561099	0.0	0.0
