13

C	0.0	0.0	0.0
C	-0.52488	-0.341652	-1.406585
Cl	1.79475	0.0	0.0
H	-1.567809	-0.639836	-1.264877
H	0.066501	-1.189564	-1.762596
C	-0.418736	1.332233	0.446253
N	-0.617957	2.43453	0.800644
C	-0.403275	-1.03316	0.962491
N	-0.576211	-1.927171	1.705112
N	-0.358763	0.811882	-2.27529
H	-0.208786	0.505054	-3.226954
H	-1.225425	1.340469	-2.254466
Br	-3.617839	0.0	0.0
