13

C	0.0	0.0	0.0
C	-0.446685	-0.216508	-1.495725
Cl	1.792714	0.0	0.0
H	-0.049486	-1.19948	-1.771024
H	0.110642	0.53602	-2.063056
C	-0.442499	1.305868	0.483158
N	-0.734769	2.398127	0.801565
C	-0.46286	-1.087428	0.857139
N	-0.770262	-2.02223	1.499441
N	-1.831276	-0.127681	-1.790593
H	-2.428716	-0.769729	-1.278118
H	-2.224987	0.785486	-1.60103
Br	-4.592186	0.0	0.0
