15
Coordinates from ORCA-job run
  C   1.03850582796058     -0.20532816301610      0.32272781787481
  C   -0.47896922592632     -0.20982768258729      0.26150897677481
  Br  1.70801151781521     -1.23172088451432      1.80429507194606
  H   -0.89100915105283      0.06702155123834      1.23150781559651
  H   1.48568585689718     -0.58865227763300     -0.59106437859005
  N   1.47795009856669      1.22582892500093      0.45524640138892
  O   2.17714836108209      1.66140497060974     -0.45561744606152
  O   1.06258588631216      1.85019942561359      1.42442824292342
  N   -0.91836752519381     -1.62062152172571      0.00798252672342
  O   -0.39430630672123     -2.19651126975640     -0.94273226372211
  O   -1.79083237998772     -2.07492366528543      0.74114660934124
  C   -1.01334883662599      0.66694099024380     -0.86058706528668
  H   -0.55586433764231      0.39776487199725     -1.81392486358419
  H   -2.09484364999715      0.53974974851911     -0.93806711957852
  H   -0.81334613548656      1.71767498129548     -0.64685032574610
