15
Coordinates from ORCA-job run
  C   1.07263256303542     -0.21708840248296      0.17018076123804
  C   -0.44045170936103     -0.24329552574486      0.29685815625810
  Br  1.92708718865530     -1.37197430862982      1.44821583426188
  H   -0.73019141594147     -0.07337539079315      1.33344606616754
  H   1.40377163600186     -0.50237666333267     -0.82524350695213
  N   1.51709754461925      1.20162868047226      0.38855196938097
  O   1.22408039326202      1.71975175108702      1.45964631709312
  O   2.09261772424373      1.73710681179102     -0.55493678374695
  N   -0.90099199656173     -1.62975806171370     -0.04252897399822
  O   -1.68175650844497     -2.16511717811713      0.73766316720276
  O   -0.48965279388440     -2.10208007722417     -1.09967195169523
  C   -1.11664526473627      0.73064365259155     -0.65578081863834
  H   -0.78278827217119      0.56375788231929     -1.68115649198789
  H   -0.89515770697209      1.75855209459101     -0.36586785278864
  H   -2.19865138174444      0.59362473518631     -0.60837589179502
