15
Coordinates from ORCA-job run
  C   0.86633050392458      0.00940185072437      0.81080672187045
  C   -0.54795321094517     -0.30273959911389      0.33936495407195
  Br  0.80380710163164      1.29891454314576      2.24927448852112
  H   -1.09541380806191     -0.64491758789479      1.22167527695204
  H   1.35597847224383     -0.88160690790432      1.19724813888998
  N   1.80059336567799      0.54012200672490     -0.24459929019824
  O   1.38774298219523      1.43797142940212     -0.96850187747250
  O   2.91858109452784      0.04091335321676     -0.26196698598984
  N   -0.49756087985796     -1.50891255353181     -0.56182483939790
  O   -1.54438171231195     -2.13258462789819     -0.69051555577847
  O   0.56981441179940     -1.75591450916393     -1.12129201168784
  C   -1.35145537003026      0.77841571496865     -0.36768857765092
  H   -1.35045843025781      1.69474875588534      0.22170100551132
  H   -2.37781452039483      0.42620726363416     -0.47490682046533
  H   -0.93681000014063      0.99798086780487     -1.34877462717582
