15
Coordinates from ORCA-job run
  C   1.06364271392047     -0.20904635095213      0.22495866141131
  C   -0.45371292329231     -0.23442487939634      0.28373419843108
  Br  1.86036942867832     -1.32186254053836      1.57539456987251
  H   -0.79011640953177     -0.03101908148071      1.30001005543304
  H   1.44022065875589     -0.52351593489251     -0.74519602101115
  N   1.49648793577589      1.21684189452375      0.41933908686912
  O   2.11372928109475      1.72435292457232     -0.51324747532170
  O   1.15491704566614      1.76723044722392      1.45955750880628
  N   -0.89679171314392     -1.63228461030994     -0.03019468504135
  O   -1.70688917486467     -2.14658055170211      0.73415247401888
  O   -0.44137987027511     -2.13560282452879     -1.05456139765907
  C   -1.08652746091517      0.70640430365549     -0.72991483567163
  H   -0.70765459452510      0.50572653126507     -1.73330418281275
  H   -0.87762963151759      1.74364661908422     -0.46491968903021
  H   -2.16966528582582      0.57013405347612     -0.72580826829436
