15
Coordinates from ORCA-job run
  C   0.80318149592020      0.53710676869563      0.42382834073524
  C   -0.45382243544499     -0.24588786283272      0.06800593454546
  Br  1.28638090033482      1.82437063233116     -0.90948041015750
  H   -0.50473630006320     -1.08566827229652      0.76637178645953
  H   0.63045057503546      1.07591789593068      1.35617847754703
  N   1.95436743932604     -0.41057990680374      0.75874828843708
  O   1.67335721312458     -1.19042518416676      1.66268679838991
  O   3.01848168650275     -0.31337131535895      0.17650277600580
  N   -0.25615120694118     -0.88754830015093     -1.28303643933555
  O   -1.09990876211139     -0.69569809877803     -2.15112921254060
  O   0.75631961576864     -1.57341719600909     -1.39586213203609
  C   -1.71381742134562      0.58919168617021      0.11664696714633
  H   -2.58064361157982     -0.02435439606075     -0.12541243426315
  H   -1.84209119261661      0.98665852290275      1.12619213670562
  H   -1.67036799590967      1.41470502642707     -0.59224087763911
