15
Coordinates from ORCA-job run
  C   0.79907298970683      0.02664088500012      0.88120900816259
  C   -0.59156407975988     -0.28280461725207      0.33148582038063
  Br  0.71200137760514      1.35085941138637      2.27301048727115
  H   -1.18675120654143     -0.63413796857376      1.17589890296675
  H   1.24564697616335     -0.86748396831209      1.31386187194633
  N   1.74452598474122      0.47639160837966     -0.20576375548833
  O   2.61419156019604     -0.33509825152448     -0.50956868404603
  O   1.56000041787292      1.58031708604175     -0.70018106556061
  N   -0.44068923584410     -1.50240631244508     -0.54558007925780
  O   0.01916074202752     -1.32446198946954     -1.67074593467899
  O   -0.76230809440042     -2.58184320952329     -0.05437195199191
  C   -1.29300175819969      0.82004945743206     -0.43447925258608
  H   -1.33547670292994      1.72678301566146      0.16859073264226
  H   -0.77191884046600      1.04232728895922     -1.36250795346626
  H   -2.31289013017158      0.50286756423967     -0.65985814629369
