15

C	0.0	0.0	0.0
C	-0.62509	0.191832	-1.381995
Br	1.950095	0.0	0.0
H	-1.68944	0.325677	-1.139625
H	-0.315322	0.81536	0.653635
C	-0.394541	-1.273047	0.599362
N	-0.633042	-2.321972	1.071146
N	-0.390459	-0.998775	-2.201278
H	-1.04056	-1.715446	-1.888684
H	-0.661269	-0.776695	-3.153741
C	-0.098468	1.430179	-2.082177
H	0.930271	1.279912	-2.418021
H	-0.725273	1.648487	-2.951773
H	-0.13445	2.300216	-1.421849
Cl	-3.706433	0.0	0.0
