15

C	0.0	0.0	0.0
C	-0.51941	-0.244754	-1.47494
Br	1.956337	0.0	0.0
H	0.352632	-0.065173	-2.11258
H	-0.290588	1.00011	0.323457
C	-0.428484	-0.969964	0.998744
N	-0.69926	-1.781876	1.804075
N	-1.564009	0.654827	-1.893821
H	-2.419997	0.494986	-1.351065
H	-1.280403	1.619969	-1.771982
C	-0.987831	-1.680543	-1.655368
H	-1.901736	-1.835713	-1.078099
H	-0.231248	-2.400566	-1.335352
H	-1.216041	-1.842971	-2.709975
Cl	-4.073324	0.0	0.0
