15

C	0.0	0.0	0.0
C	-0.548004	-0.199853	-1.429417
Br	1.962033	0.0	0.0
H	-1.63335	-0.15002	-1.270889
H	-0.329707	0.953633	0.415486
C	-0.385834	-1.094765	0.884887
N	-0.635878	-2.009107	1.578524
N	-0.233678	-1.486706	-2.022942
H	0.756128	-1.68871	-1.926598
H	-0.753395	-2.213591	-1.54307
C	-0.127354	0.931675	-2.351629
H	0.939947	0.889528	-2.584231
H	-0.351954	1.905551	-1.906264
H	-0.685943	0.838542	-3.283876
Cl	-3.548977	0.0	0.0
