15

C	0.0	0.0	0.0
C	-0.56698	0.521337	-1.352293
Br	1.946742	0.0	0.0
H	0.277497	0.96553	-1.888359
H	-0.292829	0.70905	0.774938
C	-0.413685	-1.346536	0.376705
N	-0.676109	-2.453353	0.671192
N	-1.48869	1.603979	-1.027586
H	-2.35383	1.196628	-0.651813
H	-1.752317	2.06751	-1.890601
C	-1.156096	-0.603737	-2.203091
H	-1.442324	-0.195535	-3.177277
H	-0.439984	-1.416498	-2.366042
H	-2.057006	-0.994193	-1.724406
Cl	-4.138373	0.0	0.0
