15

C	0.0	0.0	0.0
C	-0.550206	-0.235241	-1.438996
Br	1.948208	0.0	0.0
H	0.306315	-0.151118	-2.113767
H	-0.302597	0.998483	0.315683
C	-0.410053	-0.986866	0.993863
N	-0.673395	-1.817709	1.782063
N	-1.442101	0.881097	-1.73524
H	-2.307908	0.748659	-1.197865
H	-1.720443	0.803374	-2.708449
C	-1.160907	-1.626321	-1.606492
H	-0.44505	-2.417432	-1.356973
H	-1.459917	-1.752501	-2.652518
H	-2.053447	-1.724812	-0.984983
Cl	-4.0488	0.0	0.0
