15

C	0.0	0.0	0.0
C	-0.583638	-0.149196	-1.402061
Br	1.960628	0.0	0.0
H	-1.660522	-0.234147	-1.197481
H	-0.317014	0.938437	0.456625
C	-0.372327	-1.117635	0.865823
N	-0.608414	-2.029457	1.566943
N	-0.118264	-1.391988	-2.000185
H	0.718537	-1.234064	-2.550227
H	-0.838242	-1.763811	-2.605994
C	-0.34536	1.098149	-2.24406
H	0.722062	1.247736	-2.441322
H	-0.742734	1.988701	-1.748391
H	-0.863501	0.990131	-3.200533
Cl	-3.643998	0.0	0.0
