15

C	-0.485191	0.007862	-1.434368
C	0.0	0.0	0.0
Br	0.611691	-1.37968	-2.444176
H	1.092642	0.0	0.0
N	-1.865897	-0.178902	-1.605397
H	-2.100978	-0.243743	-2.588652
H	-2.175335	-1.004798	-1.108424
N	-0.119571	1.311778	-2.121573
O	0.695084	2.036582	-1.5668
O	-0.659048	1.512119	-3.207368
C	-0.437516	-1.23024	0.635551
N	-0.772724	-2.24034	1.139373
C	-0.496136	1.14082	0.748146
N	-0.900191	2.058482	1.364286
H	2.424962	0.0	0.0
