15

C	-0.537123	-0.010015	-1.436904
C	0.0	0.0	0.0
Br	0.430352	-1.387563	-2.44437
H	1.092968	0.0	0.0
N	-1.933175	-0.2309	-1.648732
H	-2.456336	0.469612	-1.128767
H	-2.176847	-1.149289	-1.295373
N	-0.181581	1.333841	-2.089962
O	0.703042	1.987051	-1.547436
O	-0.77958	1.62959	-3.118793
C	-0.436259	-1.221539	0.655474
N	-0.758061	-2.221416	1.187136
C	-0.52367	1.142685	0.724094
N	-0.955291	2.064291	1.317531
H	2.443968	0.0	0.0
