15

C	-0.251343	0.02579	-1.512153
C	0.0	0.0	0.0
Br	0.102945	1.835207	-2.17725
H	1.098066	0.0	0.0
N	0.556118	-0.900351	-2.208406
H	0.193701	-1.838909	-2.084771
H	1.495199	-0.831131	-1.794883
N	-1.737618	-0.239969	-1.809614
O	-2.545647	0.432687	-1.182568
O	-2.007142	-1.123952	-2.616534
C	-0.419164	-1.289008	0.519068
N	-0.715471	-2.362556	0.900585
C	-0.511166	1.090123	0.803601
N	-0.871965	1.944307	1.527914
H	2.489913	0.0	0.0
