15

C	-0.172707	0.007185	-1.509657
C	0.0	0.0	0.0
Br	-2.061089	0.133664	-2.131755
H	1.09582	0.0	0.0
N	0.600001	1.05563	-2.004797
H	0.687194	0.994781	-3.011834
H	1.529287	0.974509	-1.552088
N	0.271993	-1.372135	-2.107239
O	0.745677	-1.322117	-3.237019
O	0.102763	-2.383707	-1.441909
C	-0.579776	-1.077941	0.774008
N	-1.030998	-1.880759	1.506238
C	-0.422136	1.277398	0.54943
N	-0.72682	2.295751	1.052829
H	2.489484	0.0	0.0
