15

C	-0.378229	0.013202	-1.475443
C	0.0	0.0	0.0
Br	0.544256	1.480998	-2.338385
H	1.097117	0.0	0.0
N	-0.086066	-1.207696	-2.170056
H	-0.499564	-1.973964	-1.642376
H	0.926728	-1.325934	-2.145129
N	-1.908285	0.227897	-1.658145
O	-2.597207	-0.397762	-0.854227
O	-2.327124	0.905956	-2.582839
C	-0.396279	-1.226765	0.662596
N	-0.621192	-2.266832	1.165322
C	-0.460838	1.173754	0.715724
N	-0.813742	2.149728	1.269954
H	2.464182	0.0	0.0
