16
Coordinates from ORCA-job run
  C   0.96486953513407      0.01531156981943     -0.06611986344497
  C   -0.56336261595794      0.10943993806702     -0.24907794513782
  Cl  1.56535972170708      1.14005173691329      1.13378075988830
  H   -0.81533608420499     -0.51874174929209     -1.10595846827568
  N   1.19506082926546     -1.45435128306614      0.40236825714723
  O   1.55336910616102     -1.65237061601620      1.54751678533709
  O   0.92484978194690     -2.28032033235069     -0.45886620748464
  C   1.70307363885357      0.16743803473728     -1.31281196750733
  N   2.33309424902783      0.27750418952087     -2.29948316397502
  N   -0.87318561154029      1.51628251896732     -0.69387106810879
  O   -0.60886806935127      1.77436629791278     -1.86592373475159
  O   -1.34699312067384      2.28713758524583      0.13402349478961
  C   -1.35048169280224     -0.27084379146088      0.98412762545166
  H   -2.40880312584975     -0.07642975175754      0.80828820357248
  H   -1.23293011095278     -1.33677717944731      1.18613116257854
  H   -1.03771643076284      0.30230283220705      1.85487612992091
