16
Coordinates from ORCA-job run
  C   0.87961762199689     -0.21447165373722     -0.38878306337286
  C   -0.34547856128073      0.60707893933236      0.00581949007993
  Cl  1.57447238172396      0.49203837925750     -1.86412694726584
  H   -0.04636868191902      1.65390773645417      0.06689695730303
  N   1.97255624736851     -0.07873037503995      0.69047972339023
  O   2.02223285865108      1.00734871257074      1.24730207362231
  O   2.71076589467307     -1.03665160067564      0.84460295382316
  C   0.59395191045600     -1.62191539386953     -0.61520628930717
  N   0.31004677933208     -2.73323423894596     -0.87248977284532
  N   -0.76721625858522      0.23576671641547      1.40272612501060
  O   -1.55882415614406      1.00103797715895      1.93719952000200
  O   -0.31807298012017     -0.80418251267466      1.87985312711664
  C   -1.53537538642223      0.40551304802860     -0.91621004051708
  H   -2.34933750111005      1.05131187113168     -0.58709354437638
  H   -1.87145399831470     -0.63312686066229     -0.89154345660036
  H   -1.27251617030542      0.66930925525577     -1.94042685606286
