16
Coordinates from ORCA-job run
  C   0.85636436595653     -0.27152457987824     -0.40500200892950
  C   -0.32143509734380      0.61969554239301     -0.01694858234092
  Cl  1.52520828690563      0.32310230820534     -1.94024631185658
  H   0.02007429499458      1.65524744558245     -0.02529659988568
  N   1.99096858617268     -0.11978241347472      0.62824053460518
  O   2.69107519332869     -1.09908070358372      0.82075931351568
  O   2.10723782499821      0.99577365432006      1.11253521609852
  C   0.50901359742863     -1.67661009955999     -0.54094410036852
  N   0.17478360027818     -2.78844383114825     -0.72538454612272
  N   -0.70772237426807      0.34333889986882      1.41165661315672
  O   -0.28032081737628     -0.68480541511311      1.93243412162395
  O   -1.45159598208528      1.16714336282972      1.92727923082207
  C   -1.54965686469533      0.41616767327020     -0.88678765647140
  H   -1.92513073854382     -0.60483813048910     -0.79230636959492
  H   -1.31270804216739      0.61191431801543     -1.93237695357520
  H   -2.32615583358315      1.11170196876209     -0.56861190067668
