16
Coordinates from ORCA-job run
  C   1.03012188735165      0.01111189374393     -0.28514907214154
  C   -0.38050444278104      0.62552923164038     -0.20513154295195
  Cl  2.24470444888118      1.26571190884155     -0.08956489260406
  H   -0.40694293357036      1.40986901520870     -0.96399768372894
  N   1.23089954153716     -1.09570820322684      0.79423007459616
  O   1.96577097042974     -0.86581226493806      1.73265534837291
  O   0.59219318151577     -2.11304417806148      0.56292872844582
  C   1.18832888955499     -0.64071291919475     -1.57867079250256
  N   1.29239753449071     -1.12684487689266     -2.64420590318671
  N   -0.52333285431938      1.34806668245816      1.10268383050403
  O   -0.43360597587265      0.65880503959415      2.11542852628441
  O   -0.74947979235065      2.55265018470330      1.05266681607958
  C   -1.54212164862489     -0.33756707627243     -0.36454426757924
  H   -1.58067699335457     -1.04935802274137      0.45691651690845
  H   -1.45966907153304     -0.88366270348530     -1.30501393957258
  H   -2.46708274135452      0.24296628862277     -0.38123174692384
