16
Coordinates from ORCA-job run
  C   0.88107161069980     -0.38441756750840      0.10632649720290
  C   -0.37383655703925      0.50032181247436     -0.03477352072528
  Cl  0.88814890929246     -1.30224792096437      1.59718441876548
  H   -0.21667005703158      1.12896428405707     -0.91365034491661
  N   0.80294277622457     -1.34229670136830     -1.12207902808066
  O   0.57089720018711     -2.52045716982595     -0.92956439801400
  O   0.93722889389603     -0.76305170246125     -2.19139426688904
  C   2.12647241678479      0.35845470409331     -0.03379580145292
  N   3.15147483856307      0.92281483945686     -0.14966646888019
  N   -0.37932773563538      1.45611668801125      1.13106692750520
  O   -1.15733321873778      1.23118190467970      2.05211676714550
  O   0.41829462761958      2.38824214416121      1.05910954108860
  C   -1.66504958069553     -0.28111571876322     -0.12012102831706
  H   -1.70041957973553     -0.83959873377699     -1.05698624715324
  H   -2.50571407603415      0.41315311717972     -0.11079162059863
  H   -1.77818046835818     -0.96606397944498      0.71801857331996
