16
Coordinates from ORCA-job run
  C   1.01249546204790      0.04054477215170     -0.34008039469178
  C   -0.41591162653078      0.60238951036931     -0.20640485148722
  Cl  2.18378192020061      1.34755405415854     -0.25416195410936
  H   -0.51358263408661      1.35681022407716     -0.98938948744769
  N   1.31345279320506     -1.01629783935738      0.76602833715287
  O   2.08464382237940     -0.72192099642869      1.65610221001316
  O   0.70675483165690     -2.06615765185689      0.60486765340289
  C   1.12992563247440     -0.65297272555397     -1.61608166850854
  N   1.19770714237346     -1.17535616465188     -2.66730072186910
  N   -0.51958899466018      1.36643686480027      1.08153698505516
  O   -0.35477528765250      0.71760987870685      2.11141533305973
  O   -0.79104292668223      2.56000468645560      1.00184263329548
  C   -1.54381396198403     -0.41045520691149     -0.27034430490037
  H   -1.48801897870682     -0.98693995316721     -1.19449472255948
  H   -1.51058721952739     -1.09265273618937      0.57607571348941
  H   -2.49143997450718      0.13240328339746     -0.25761075989510
