14

C	0.0	0.0	0.0
C	-0.477587	-0.108591	-1.421373
F	1.358384	0.0	0.0
H	-1.556521	-0.297541	-1.309619
H	-0.394285	0.858037	0.53244
H	0.057047	-0.943239	-1.887058
N	-0.403534	-1.186873	0.829609
O	-0.45822	-2.280776	0.278187
O	-0.517794	-0.999463	2.038364
C	-0.218938	1.202285	-2.15437
H	-0.83689	1.988944	-1.711916
H	-0.498606	1.119886	-3.209343
H	0.831862	1.509756	-2.108975
F	-2.62448	0.0	0.0
