14

C	0.0	0.0	0.0
C	-0.439044	0.270968	-1.441768
F	1.362073	0.0	0.0
H	-1.173723	1.066935	-1.360867
H	-0.37858	0.736492	0.69655
H	0.460926	0.641459	-1.952275
N	-0.370283	-1.31469	0.624837
O	-0.607531	-1.303907	1.829223
O	-0.248613	-2.334118	-0.051567
C	-1.104454	-0.838611	-2.250188
H	-1.98227	-1.119761	-1.672881
H	-1.427558	-0.417972	-3.210133
H	-0.455313	-1.693412	-2.443733
F	-2.465757	0.0	0.0
