14

C	0.0	0.0	0.0
C	-0.480525	0.209997	-1.41647
F	1.358241	0.0	0.0
H	-1.568042	0.325597	-1.281854
H	-0.382589	0.768574	0.662753
H	-0.022321	1.168024	-1.700996
N	-0.395646	-1.28537	0.675255
O	-0.504176	-1.23781	1.897982
O	-0.423989	-2.321094	0.015585
C	-0.1167	-0.862298	-2.436292
H	-0.265727	-0.465446	-3.447639
H	-0.762403	-1.730467	-2.312434
H	0.922742	-1.195717	-2.353908
F	-2.618742	0.0	0.0
