10
Coordinates from ORCA-job run
  C   -1.10141459564653     -0.16857523909381      0.25708041711871
  C   0.12577002963968      0.62434365609823     -0.11401039853827
  Cl  -1.45160200773944     -1.39863254058197     -0.98010695896330
  H   0.07069256861713      1.03913154906551     -1.11787509940978
  H   -1.96193363391679      0.49697560684839      0.32129715818150
  H   -0.95192351015336     -0.67789259888734      1.20630735339340
  H   0.30003977364330      1.41688470590037      0.61840874494386
  N   1.34934345261740     -0.23807513931262     -0.07949666826948
  O   1.48328196373475     -0.96500969400394      0.90039529368286
  O   2.13874595920386     -0.12915030603281     -1.01199984213952
