10
Coordinates from ORCA-job run
  C   -1.11904953308532     -0.23420620299246      0.02417386692980
  C   0.11306080950792      0.60414198126852     -0.20211213698721
  Cl  -1.21745066135431     -0.75986684645487      1.72150085313895
  H   0.13622462826130      0.97348074631536     -1.23070482603731
  H   -2.00845933408652      0.35594549261810     -0.19556015332163
  H   -1.09577463845319     -1.12241962951777     -0.60286425272994
  H   0.19407798765699      1.43026217590943      0.50055002246555
  N   1.35465864887783     -0.21594328253445     -0.03580848214280
  O   2.27253266525446      0.28059005211266      0.60897691722056
  O   1.36917942742083     -1.31198448672451     -0.58815180853599
