15

C	0.0	0.0	0.0
C	-0.513586	0.01822	-1.438494
Cl	1.804759	0.0	0.0
H	-0.213632	-0.921336	-1.922617
H	-1.607403	0.033839	-1.262646
C	-0.488027	1.190703	0.806406
H	-0.144578	2.101088	0.314939
H	-1.583355	1.08878	0.77106
H	-0.097346	1.144962	1.826016
C	-0.381649	-1.265917	0.634981
N	-0.54205	-2.29361	1.180048
N	-0.052184	1.211521	-2.140775
H	0.824841	1.030678	-2.613193
H	-0.739697	1.467967	-2.835794
F	-2.820129	0.0	0.0
