15

C	0.0	0.0	0.0
C	-0.539144	-0.18166	-1.416813
Cl	1.806554	0.0	0.0
H	-0.217684	-1.164902	-1.790697
H	-1.632108	-0.171883	-1.217343
C	-0.509916	1.281357	0.633142
H	-0.184261	2.121613	0.01985
H	-1.605759	1.15396	0.605626
H	-0.127125	1.386517	1.651236
C	-0.389929	-1.16519	0.804667
N	-0.582513	-2.122181	1.458102
N	-0.136026	0.929883	-2.272891
H	-0.861109	1.094683	-2.956902
H	0.724546	0.714041	-2.760447
F	-2.892092	0.0	0.0
