15

C	0.0	0.0	0.0
C	-0.514904	0.218397	-1.431354
Cl	1.801549	0.0	0.0
H	-0.052898	1.14053	-1.803423
H	-1.597362	0.339811	-1.261684
C	-0.50562	1.09118	0.927308
H	-1.602478	0.980098	0.863616
H	-0.168488	2.062011	0.552269
H	-0.12591	0.948124	1.941644
C	-0.403273	-1.324132	0.485656
N	-0.59108	-2.412633	0.885436
N	-0.274338	-0.865052	-2.36997
H	0.686775	-1.183452	-2.299813
H	-0.874498	-1.640006	-2.110501
F	-2.840348	0.0	0.0
