15

C	0.0	0.0	0.0
C	-0.526779	0.168187	-1.436284
Cl	1.802331	0.0	0.0
H	-1.607944	-0.003159	-1.292501
H	-0.068376	-0.602545	-2.064982
C	-0.51918	1.06896	0.942666
H	-0.157702	2.049058	0.622329
H	-1.617454	0.96664	0.847188
H	-0.173068	0.882817	1.962157
C	-0.386336	-1.330072	0.487045
N	-0.59056	-2.40517	0.913389
N	-0.308943	1.477701	-2.029851
H	0.638905	1.795864	-1.857489
H	-0.946214	2.132409	-1.593899
F	-2.863263	0.0	0.0
