15

C	0.0	0.0	0.0
C	-0.524989	0.071857	-1.446188
Cl	1.803111	0.0	0.0
H	-1.605292	-0.095774	-1.294157
H	-0.059484	-0.733857	-2.022614
C	-0.51667	1.130939	0.870346
H	-0.152907	2.086721	0.485656
H	-0.169609	1.011779	1.899225
H	-1.614947	1.024334	0.78205
C	-0.387384	-1.297001	0.568781
N	-0.573002	-2.368163	1.013614
N	-0.313666	1.341933	-2.120616
H	-0.953966	2.018796	-1.725005
H	0.63286	1.674573	-1.967494
F	-2.858187	0.0	0.0
