15

C	0.0	0.0	0.0
C	-0.234607	-0.22773	-1.572122
Br	1.961322	0.0	0.0
H	0.577466	0.344522	-2.030545
C	-0.446249	1.330888	0.399114
N	-0.600169	2.452467	0.72041
C	-0.490388	-1.055535	0.872878
N	-0.613217	-1.939218	1.640449
C	-1.507207	0.20874	-2.301015
H	-2.357552	-0.362535	-1.952697
H	-1.710907	1.25908	-2.094335
H	-1.31945	0.065312	-3.373084
C	0.062011	-1.631532	-1.871481
N	0.292508	-2.741911	-2.178054
F	-2.284499	0.0	0.0
