10
Coordinates from ORCA-job run
  C   0.17874567599115      0.18279512300029     -0.00890860887645
  C   1.41447321817613     -0.34709650353282     -0.02913592523997
  H   2.29959986527805      0.27698305441501     -0.07120687443014
  H   1.55199060953410     -1.42290945059399     -0.00611161561591
  C   -1.09237966591480     -0.62020382521135      0.04763684196466
  H   -1.72271816514745     -0.40489607940976     -0.81857919269875
  H   -1.66713942407387     -0.36899872681272      0.94230330171436
  H   -0.86695786204456     -1.68749275184052      0.06296105980272
  C   0.02803120945583      1.61305281426179     -0.04467255589658
  N   -0.12564546125457      2.77876634572407     -0.07528643072394
