10
Coordinates from ORCA-job run
  C   0.17811704897544      0.16554680413169     -0.08215151053866
  C   1.39248896082741     -0.40899199571855     -0.13880227790300
  H   1.52391989326209     -1.44717811101165      0.14699342204652
  H   2.26695722662705      0.14160429731552     -0.46526362031916
  C   -1.07742321948984     -0.53530095413148      0.36112956804157
  H   -1.51426177188628     -0.03138241729615      1.22683590945470
  H   -0.86037898883100     -1.56980172776083      0.63055244187580
  H   -1.82448621524234     -0.52730092143292     -0.43619003620246
  C   0.03401853894127      1.54431731753351     -0.46699898331051
  N   -0.11795147318380      2.66948770837087     -0.77410491314479
