10
Coordinates from ORCA-job run
  C   0.18250204191165      0.16594211055013     -0.06911992671318
  C   1.38673046258528     -0.42874954583939     -0.13496712808265
  H   2.27699175906146      0.12166102485579     -0.41655307601216
  H   1.49288812121818     -1.48374535231952      0.09377371692737
  C   -1.09465581407176     -0.53268859987986      0.31092521404450
  H   -0.90367531260617     -1.58524362347600      0.52469317833865
  H   -1.53913911651833     -0.06871828130691      1.19475352780658
  H   -1.82536804602991     -0.46471943990970     -0.49874865212980
  C   0.07294819868162      1.56659535981994     -0.37900134013296
  N   -0.05022229423203      2.70966634750552     -0.62675551404634
