10
Coordinates from ORCA-job run
  C   0.17585446345049      0.18569268250832     -0.01607552600032
  C   1.41727199707303     -0.32242882827817     -0.11118362447078
  H   1.57356205597922     -1.39582572847032     -0.11748672312239
  H   2.28878553607032      0.31772164153617     -0.18420422177146
  C   -1.07806402258296     -0.63938093588340      0.08850217850192
  H   -1.61105524459203     -0.41292012249297      1.01520803635452
  H   -1.75372092822732     -0.41946839956072     -0.74172336636405
  H   -0.83633252687011     -1.70302701572548      0.07246434533467
  C   0.00006768126354      1.61354630771932     -0.00847327574743
  N   -0.17736901156419      2.77609039864725      0.00197217728532
