11
Coordinates from ORCA-job run
  C   -0.66236877119822     -0.40201070996432      0.22965117065389
  C   0.86105206238737     -0.48171983162280      0.23356917701199
  F   -1.09547119724807     -1.11053679274641      1.34308997532743
  H   1.21810633494135      0.01276930265493      1.14068585776160
  H   -1.07456586831780     -0.94381563977370     -0.63110909773105
  H   1.16312877265786     -1.53003269563696      0.27356131817194
  N   -1.09426627494465      0.95034725286082      0.35397074645177
  H   -0.53423678627663      1.58366746438625     -0.19965606758889
  H   -2.06666981430668      1.05748130526931      0.10076791750252
  C   1.43438951470665      0.16089462708800     -0.94457997424874
  N   1.85190202759884      0.70095571748490     -1.89895102331246
