11
Coordinates from ORCA-job run
  C   -0.68609195203872     -0.40088927890800      0.12272532762595
  C   0.71114228557191     -0.64451518145703     -0.43632160177955
  F   -0.62614734640583     -0.67481505641494      1.50183131541008
  H   1.04926292957485     -1.64023997156481     -0.14245703164526
  H   -1.38336679156840     -1.13023311420626     -0.29578520709510
  H   0.67528755254277     -0.59251479594917     -1.52667847714731
  N   -1.14038505840351      0.90360983394469     -0.16505346596280
  H   -2.08954945490508      1.04043481765175      0.15474230610652
  H   -0.54340118829137      1.60369653320731      0.25906835907104
  C   1.65527520107674      0.35351404048505      0.06295928305497
  N   2.37897382284666      1.18395217321141      0.46596919236147
