16

C	0.0	0.0	0.0
C	-0.630621	-0.010786	-1.381226
Br	1.931741	0.0	0.0
H	-1.767081	0.116155	-1.054738
N	-0.328288	1.419977	0.642279
O	-0.510095	2.373278	-0.100821
O	-0.344644	1.441826	1.866496
N	-0.571284	-1.02945	0.733864
H	-0.310188	-0.943658	1.710839
H	-1.614809	-0.844288	0.625118
N	-0.490241	-1.390151	-1.966677
O	-1.430513	-2.163612	-1.829842
O	0.564308	-1.642434	-2.554397
C	-0.127455	0.934046	-2.349937
N	0.227671	1.684787	-3.184071
H	-2.813043	0.0	0.0
