14

C	0.0	0.0	0.0
C	-0.56415	-0.126415	-1.423778
Cl	1.757106	0.0	0.0
H	0.144251	0.384674	-2.084135
H	-0.393049	-0.74388	0.689466
N	-0.439793	1.350758	0.542595
O	0.083617	2.341148	0.05424
O	-1.293983	1.316624	1.416621
N	-1.826502	0.548462	-1.516459
H	-2.589688	0.19104	-0.925452
H	-2.154587	0.569842	-2.470664
C	-0.532582	-1.566107	-1.789666
N	-0.524813	-2.693796	-2.122701
Br	-4.684092	0.0	0.0
