18

C	-0.605638	0.008731	-1.410489
C	0.0	0.0	0.0
Cl	0.533382	-0.906855	-2.569522
H	1.089356	0.0	0.0
C	-1.949383	-0.688228	-1.551771
H	-2.330241	-0.52827	-2.563763
H	-1.867094	-1.757644	-1.370256
H	-2.65119	-0.238093	-0.842082
N	-0.743396	1.369967	-1.83229
H	-0.73076	1.405571	-2.843809
H	0.012846	1.927026	-1.455596
N	-0.352017	-1.235436	0.728934
O	-0.683786	-1.144306	1.921469
O	-0.171466	-2.313694	0.151876
N	-0.281146	1.18604	0.750969
H	0.492668	1.295295	1.398923
H	-1.133724	1.095784	1.286126
H	2.526975	0.0	0.0
