18

C	-0.366569	0.014691	-1.492585
C	0.0	0.0	0.0
Cl	-2.194325	-0.149565	-1.646681
H	1.093239	0.0	0.0
C	0.031692	1.35348	-2.081433
H	1.105366	1.489233	-1.904971
H	-0.170726	1.33246	-3.153332
H	-0.514665	2.176564	-1.622953
N	0.238533	-1.02563	-2.285963
H	1.243477	-0.882167	-2.182088
H	0.055084	-1.915146	-1.832584
N	-0.456399	-1.289645	0.61788
O	0.085073	-2.325149	0.214877
O	-1.337763	-1.26553	1.472655
N	-0.453019	1.084038	0.799809
H	0.218569	1.835377	0.758947
H	-1.383328	1.396647	0.563726
H	2.728149	0.0	0.0
