18

C	-0.564233	-0.030633	-1.424153
C	0.0	0.0	0.0
Cl	0.26188	1.426866	-2.260523
H	1.088037	0.0	0.0
C	-0.190101	-1.221247	-2.279217
H	0.88529	-1.386785	-2.22341
H	-0.474701	-1.021177	-3.316246
H	-0.712005	-2.108308	-1.92602
N	-1.971724	0.169768	-1.367857
H	-2.342275	0.314363	-2.300446
H	-2.133128	1.007229	-0.816096
N	-0.375534	-1.235224	0.729186
O	0.032443	-2.305414	0.269359
O	-0.983628	-1.145105	1.808428
N	-0.46869	1.174697	0.698681
H	-1.03732	0.869069	1.48142
H	0.360181	1.631274	1.07033
H	2.623466	0.0	0.0
