18

C	-0.390015	0.065737	-1.460724
C	0.0	0.0	0.0
Cl	-2.438066	0.225713	-1.447602
H	1.092714	0.0	0.0
C	0.042366	1.377833	-2.069472
H	1.128877	1.435159	-1.926004
H	-0.439701	2.228454	-1.594793
H	-0.193579	1.391958	-3.136397
N	-0.005014	-0.994078	-2.241073
H	-0.313312	-0.941821	-3.198761
H	-0.102929	-1.898509	-1.805007
N	-0.457476	-1.271389	0.645532
O	-1.045661	-1.232062	1.722511
O	-0.151051	-2.331403	0.076969
N	-0.372874	1.1118	0.790665
H	0.39677	1.765207	0.841884
H	-1.243501	1.541245	0.513877
H	2.592431	0.0	0.0
