18

C	-0.37265	-0.05495	-1.471525
C	0.0	0.0	0.0
Cl	-2.242696	-0.122929	-1.607099
H	1.093385	0.0	0.0
C	0.051722	1.249885	-2.121702
H	-0.459649	2.101968	-1.683497
H	-0.152775	1.205058	-3.195004
H	1.128755	1.347158	-1.950917
N	0.179059	-1.20467	-2.106616
H	0.422836	-0.985492	-3.062042
H	1.005881	-1.510527	-1.603658
N	-0.405476	-1.263711	0.717233
O	-1.226214	-1.176702	1.638117
O	0.150718	-2.30996	0.385866
N	-0.474417	1.168957	0.654263
H	-1.415044	1.019214	1.000165
H	0.138337	1.359332	1.439305
H	2.707853	0.0	0.0
