18

C	-0.479819	0.03201	-1.46719
C	0.0	0.0	0.0
Cl	-0.164266	-1.552139	-2.264375
H	1.090728	0.0	0.0
C	-1.961467	0.328613	-1.603465
H	-2.218067	0.363611	-2.662957
H	-2.561436	-0.436213	-1.10622
H	-2.175885	1.300098	-1.151297
N	0.303261	1.027317	-2.174132
H	0.150009	1.892513	-1.660286
H	1.285934	0.79163	-2.008126
N	-0.517334	-1.188028	0.754534
O	0.103576	-2.242883	0.673696
O	-1.553892	-1.041956	1.42459
N	-0.386454	1.233499	0.636449
H	0.356062	1.480074	1.283956
H	-1.251793	1.108691	1.147662
H	2.761336	0.0	0.0
