18

C	-0.5314	0.00219	-1.437151
C	0.0	0.0	0.0
Cl	0.11059	1.482932	-2.236175
H	1.090825	0.0	0.0
C	-0.001937	-1.185834	-2.230298
H	-0.4575	-2.111176	-1.869208
H	1.082245	-1.255772	-2.109888
H	-0.256202	-1.061114	-3.286304
N	-1.981554	0.145728	-1.429422
H	-2.311359	0.211077	-2.38676
H	-2.386919	-0.683164	-1.005883
N	-0.436877	-1.345873	0.585089
O	-1.53217	-1.396056	1.169905
O	0.315091	-2.309739	0.458428
N	-0.4943	1.089463	0.753965
H	-1.488507	1.018288	0.912033
H	0.012045	1.150858	1.627234
H	2.814288	0.0	0.0
