17

C	0.0	0.0	0.0
C	-0.296345	-0.185804	-1.543829
Br	1.953236	0.0	0.0
H	0.562673	0.289621	-2.028061
C	-0.273125	1.450061	0.464531
H	0.191011	1.597791	1.443118
H	-1.345276	1.613982	0.527436
H	0.185941	2.148901	-0.241072
C	-0.6418	-0.989441	0.852473
N	-0.645649	-1.859608	1.665439
C	-1.518464	0.431634	-2.240745
H	-2.418458	-0.14464	-2.065572
H	-1.692384	1.440847	-1.869412
H	-1.293875	0.482698	-3.318349
C	-0.197509	-1.603068	-1.899192
N	-0.13184	-2.720413	-2.256152
H	-2.221495	0.0	0.0
