17

C	0.0	0.0	0.0
C	-0.241443	0.102117	-1.561485
Br	1.972295	0.0	0.0
H	0.512271	0.828505	-1.885393
C	-0.26847	1.33739	0.725985
H	0.204626	2.150653	0.167651
H	-1.337634	1.503416	0.813263
H	0.189557	1.295004	1.718148
C	-0.646278	-1.14237	0.624051
N	-0.655584	-2.173578	1.220537
C	-1.559262	0.575632	-2.193167
H	-2.341929	-0.169963	-2.104679
H	-1.351616	0.785226	-3.255393
H	-1.90969	1.484448	-1.706435
C	0.137752	-1.165101	-2.200155
N	0.393434	-2.149763	-2.788501
H	-2.191996	0.0	0.0
