17

C	0.0	0.0	0.0
C	-0.667579	0.02993	-1.362845
Br	1.964748	0.0	0.0
H	-1.802494	0.053216	-0.974325
C	-0.460372	1.189531	0.833901
H	-0.059204	1.134974	1.847525
H	-1.559541	1.125109	0.844911
H	-0.131911	2.116849	0.3601
C	-0.349445	-1.255374	0.681284
N	-0.529841	-2.276897	1.235684
C	-0.442491	-1.208289	-2.220534
H	0.62278	-1.400152	-2.387956
H	-0.888715	-2.076297	-1.728407
H	-0.928976	-1.082522	-3.190933
C	-0.340945	1.247328	-2.072346
N	-0.10759	2.229781	-2.679843
H	-2.968145	0.0	0.0
