15

C	-0.316005	0.006602	-1.499432
C	0.0	0.0	0.0
Cl	-0.098091	-1.713285	-2.026122
H	1.088152	0.0	0.0
H	-0.423771	-0.858386	0.515226
C	-1.707115	0.346693	-1.818678
N	-2.831528	0.568901	-2.078656
C	0.702919	0.853017	-2.255724
H	0.50341	1.906163	-2.057327
H	0.646327	0.661175	-3.328657
H	1.681408	0.589073	-1.833879
N	-0.489361	1.195796	0.694665
O	-0.657277	2.238786	0.052404
O	-0.667491	1.097613	1.909713
F	2.571496	0.0	0.0
