15

C	-0.488506	0.01706	-1.447421
C	0.0	0.0	0.0
Cl	0.347543	1.276302	-2.426025
H	1.088245	0.0	0.0
H	-0.388865	-0.910237	0.463223
C	-0.129712	-1.278307	-2.033806
N	0.11829	-2.332188	-2.489869
C	-1.992837	0.23238	-1.596054
H	-2.258417	1.218755	-1.213845
H	-2.529628	-0.526877	-1.020529
H	-2.288824	0.170103	-2.644979
N	-0.607445	1.109912	0.743902
O	-1.470606	0.841915	1.591141
O	-0.252659	2.257358	0.473658
F	2.52849	0.0	0.0
