15

C	-0.302594	0.129356	-1.501069
C	0.0	0.0	0.0
Cl	-0.171841	-1.558899	-2.147897
H	1.088944	0.0	0.0
H	-0.441462	-0.886975	0.446586
C	-1.666026	0.56904	-1.806572
N	-2.749797	0.944624	-2.061161
C	0.76046	0.97544	-2.193578
H	0.611857	2.018549	-1.913201
H	0.694172	0.866368	-3.276459
H	1.722828	0.639252	-1.789595
N	-0.478652	1.153751	0.773731
O	-0.554285	2.251628	0.214405
O	-0.744767	0.964095	1.962447
F	2.579263	0.0	0.0
