15

C	-0.288663	-0.048749	-1.479946
C	0.0	0.0	0.0
Cl	-2.060024	-0.316165	-1.830476
H	1.092675	0.0	0.0
H	-0.363407	-0.905391	0.484045
C	0.104946	1.15843	-2.211076
N	0.454399	2.034693	-2.910806
C	0.528068	-1.219686	-2.025817
H	0.153154	-2.151391	-1.596206
H	1.55348	-1.045364	-1.67972
H	0.464813	-1.270339	-3.113599
N	-0.575531	1.129715	0.725528
O	-0.728803	2.201467	0.137471
O	-0.836821	0.948593	1.917758
F	2.553909	0.0	0.0
