14

C	0.0	0.0	0.0
C	-0.517968	-0.087978	-1.419773
F	1.403208	0.0	0.0
H	-0.297942	-1.07946	-1.808066
H	-1.612034	0.077675	-1.310606
C	-0.34543	1.284716	0.674957
N	-0.512724	2.234208	1.345689
N	-0.523264	-1.131245	0.691583
H	-0.305702	-1.021876	1.677589
H	-1.558206	-0.952623	0.572772
N	0.098135	0.881133	-2.346933
O	0.311754	0.493936	-3.498409
O	0.325554	2.020774	-1.944957
F	-2.751437	0.0	0.0
