14

C	0.0	0.0	0.0
C	-0.477027	0.103751	-1.452529
F	1.376117	0.0	0.0
H	-1.562883	-0.034567	-1.406525
H	0.059405	-0.648032	-2.03938
C	-0.417617	1.191022	0.780006
N	-0.556474	2.143868	1.44972
N	-0.514226	-1.168109	0.639915
H	-1.549154	-0.96627	0.563991
H	-0.289426	-1.965529	0.048067
N	-0.20003	1.412224	-2.11124
O	0.898297	1.939533	-1.932932
O	-1.085708	1.872028	-2.833441
F	-2.711553	0.0	0.0
