14

C	0.0	0.0	0.0
C	-0.51631	0.157755	-1.434341
F	1.415385	0.0	0.0
H	-0.153206	1.07635	-1.895429
H	-1.631768	0.115753	-1.25901
C	-0.356396	1.232921	0.732347
N	-0.537356	2.206192	1.358907
N	-0.449904	-1.148745	0.720352
H	-1.192022	-0.804192	1.324234
H	-0.969796	-1.721456	0.069161
N	-0.02075	-0.934988	-2.305211
O	0.671148	-0.636094	-3.279626
O	-0.346887	-2.088318	-2.020673
F	-2.721076	0.0	0.0
