14

C	0.0	0.0	0.0
C	-0.538315	-0.150122	-1.412524
F	1.398836	0.0	0.0
H	-0.287211	0.714515	-2.026263
H	-1.638826	-0.221869	-1.267758
C	-0.335393	1.396692	0.432923
N	-0.495778	2.489101	0.834706
N	-0.537098	-0.98844	0.86161
H	-0.294004	-0.750045	1.81751
H	-1.569369	-0.826581	0.725972
N	-0.028361	-1.325709	-2.165009
O	0.625614	-2.198691	-1.604295
O	-0.331038	-1.340416	-3.361635
F	-2.778314	0.0	0.0
