14

C	0.0	0.0	0.0
C	-0.506206	-0.103737	-1.435899
F	1.382671	0.0	0.0
H	-1.603288	-0.145208	-1.335898
H	-0.128391	0.732574	-2.021696
C	-0.360402	1.365263	0.501089
N	-0.521888	2.437831	0.95216
N	-0.523469	-1.057835	0.781561
H	-0.294429	-0.882488	1.754448
H	-1.55966	-0.905865	0.644156
N	0.031013	-1.331063	-2.07327
O	1.10213	-1.230241	-2.679348
O	-0.617671	-2.369675	-1.972487
F	-2.754751	0.0	0.0
