16

C	0.0	0.0	0.0
C	-0.301037	0.234815	-1.509452
Cl	1.800301	0.0	0.0
H	0.353532	-0.445009	-2.062818
C	-0.421374	1.135118	0.92618
H	-0.102884	0.89205	1.94182
H	-1.511479	1.165157	0.84325
H	0.068503	2.059629	0.614048
C	-0.471433	-1.308611	0.440393
N	-0.610491	-2.397557	0.862882
C	0.043254	1.601485	-1.899057
N	0.366321	2.68	-2.233736
N	-1.671192	-0.105901	-2.074597
O	-1.850116	-1.30244	-2.252992
O	-2.355356	0.808671	-2.505053
F	-2.520276	0.0	0.0
