16

C	0.0	0.0	0.0
C	-0.51884	0.336242	-1.420537
Cl	1.800079	0.0	0.0
H	0.346966	0.40493	-2.094763
C	-0.334335	1.094632	1.035056
H	-1.418918	1.139556	1.090486
H	0.107084	2.04311	0.722888
H	0.109518	0.803729	1.989345
C	-0.434665	-1.289645	0.538259
N	-0.547587	-2.299678	1.130189
C	-1.237362	1.603685	-1.471947
N	-1.641313	2.698201	-1.601838
N	-1.34685	-0.739114	-2.08355
O	-2.233343	-0.375422	-2.841039
O	-0.950547	-1.888795	-1.934276
F	-2.436723	0.0	0.0
