13
Coordinates from ORCA-job run
  C   -0.70019869263106     -0.03254141651924     -0.29078903008062
  C   0.83323307092206      0.13481979371623     -0.38501186465521
  Br  -1.50919278283608      1.14527425581296     -1.61570116385607
  H   1.07435457048960      1.19022979735082     -0.20679584664465
  H   -0.96542919560355     -1.04691447440590     -0.59520705870056
  C   -1.22934076691248      0.28946930472584      1.09407318454646
  H   -2.31568851992949      0.19875028813956      1.11004770071170
  H   -0.96695174453462      1.31015804290397      1.38140715618991
  H   -0.81415864827792     -0.40467496263598      1.82898368485586
  C   1.34948064918233     -0.23976756337982     -1.70607114704913
  N   1.76201209705223     -0.55346380324107     -2.75942118333136
  C   1.49324993079013     -0.67321328075077      0.64896116721351
  N   1.98863003228884     -1.32012598171660      1.49452440080017
