13
Coordinates from ORCA-job run
  C   -0.63564347589294      0.25303339703467     -0.37348479855249
  C   0.72190684227940     -0.47891540526086     -0.33301630537840
  Br  -0.35217563244629      2.14064476162389     -0.74596180359793
  H   0.50594025620655     -1.54135002590460     -0.15104848344499
  H   -1.19276192611932     -0.13487335469666     -1.22916202692929
  C   -1.41117662776718      0.07262974837246      0.91787643019527
  H   -2.38649981617799      0.55408144056123      0.84143746191461
  H   -0.87570947936260      0.51293234310836      1.76086027549428
  H   -1.56667821652087     -0.99317419905063      1.11385047858463
  C   1.56137476139160     -0.00590776198471      0.77276958421896
  N   2.20985052740354      0.35087272464412      1.68400491113315
  C   1.43784660463100     -0.38803534386641     -1.60917136986989
  N   1.98272618237511     -0.34193832458085     -2.64795435376792
