13
Coordinates from ORCA-job run
  C   -0.51633951603477      0.50382184301224     -0.23497148141896
  C   0.92282445109892      0.04385497021668      0.09037487057659
  Br  -0.65624177040428      2.39113691409821      0.22865762999481
  H   1.10862788253295      0.22633841487440      1.15617165408248
  H   -0.66890839113241      0.45198884591476     -1.31476016105644
  C   -1.56062167966545     -0.30241092563451      0.51401273758808
  H   -1.51792247357675     -1.35146896312450      0.21057748991022
  H   -2.55758004893600      0.07970422225436      0.29325757555226
  H   -1.40026794558261     -0.23751731773298      1.59263713465546
  C   1.92582345050778      0.78041158091020     -0.68646431819696
  N   2.72565473279718      1.36176444612320     -1.31920418308192
  C   1.06134472530381     -1.39601427572723     -0.16546491659065
  N   1.13360658309164     -2.55060975518482     -0.36682403201496
