13
Coordinates from ORCA-job run
  C   -0.70674164494514      0.11155916499560     -0.30967173053267
  C   0.75216216572208     -0.38483359809413     -0.38417473181099
  Br  -0.79307657529809      1.97790706521577     -0.84922682342333
  H   0.74265678667569     -1.44696390783014     -0.10091799756346
  H   -1.27991948662586     -0.43797201004453     -1.05965524728849
  C   -1.29353639698702     -0.07236101198586      1.07731556095063
  H   -2.33923137575082      0.23615136435862      1.08734879175136
  H   -1.24179454726895     -1.12662994555397      1.36765681570120
  H   -0.75215958377442      0.52425930515743      1.81359831801104
  C   1.61401564468801      0.31767817345517      0.57259243755127
  N   2.29072042752316      0.85408080574938      1.36787216191562
  C   1.29822509258254     -0.29654532130232     -1.74202405902670
  N   1.70967949345881     -0.25633008412102     -2.84071349623548
