15
Coordinates from ORCA-job run
  C   0.92900844403976     -0.49403754993101      0.06206437755546
  C   -0.44579627936703      0.13666861885931      0.24972733144382
  Cl  1.00687193626859     -1.94603064697137      1.18726224209636
  H   -0.54077708688938      0.51250983483285      1.27059155763206
  H   1.01043986813067     -0.91452566139184     -0.93971627085482
  N   1.94882024891090      0.45881183249866      0.26784653701863
  H   1.95649704658471      0.81754912028523      1.21418993315435
  H   2.86368994849375      0.09982666901662      0.03284045752309
  C   -1.61526777463407     -0.74914708220663     -0.13333347459921
  H   -1.48593588007160     -1.12842046099171     -1.14759720656160
  H   -1.69410290553711     -1.58807817253982      0.55641255673120
  H   -2.54455359559764     -0.17755370755707     -0.09098521699120
  N   -0.45933405937175      1.35751463807598     -0.62418261261124
  O   -0.39142029712059      1.16256853934552     -1.83464090224957
  O   -0.53813961383921      2.45034402867527     -0.07147930928732
