15
Coordinates from ORCA-job run
  C   0.77031490700657     -0.48524202565921      0.70777636887710
  C   -0.61660402935030      0.02996044804473      0.34107610881845
  Cl  1.31038867387402      0.44249427533656      2.20764887922727
  H   -1.27195200528074     -0.09781210454631      1.20244774883466
  H   0.64400161206489     -1.50426277333472      1.07720003057447
  N   1.69015810513875     -0.48196923042838     -0.35993769218721
  H   2.56624934764253     -0.91181098385709     -0.09748219617634
  H   1.84757622162971      0.45294387178739     -0.71192800955681
  C   -1.17891217844838     -0.64151464435423     -0.89964122906824
  H   -2.19389391942462     -0.28629722955682     -1.08974639782510
  H   -1.21227535834087     -1.72211167699575     -0.74701896141021
  H   -0.54689077089026     -0.43656504901376     -1.76178478487933
  N   -0.59915763588941      1.51176917802700      0.11236006720351
  O   -1.44113332664067      2.18176556003317      0.70088969074202
  O   0.23313035690879      1.94865238451741     -0.68285962317425
