15
Coordinates from ORCA-job run
  C   0.85056816667366     -0.49847799570910      0.59816350065856
  C   -0.55985865216763      0.05299390773794      0.42575691193112
  Cl  1.62636938597348      0.43519142190774      1.98836008586453
  H   -1.08755373112687     -0.04339253378876      1.37443400997481
  H   0.75165085843176     -1.50761578121231      1.00139248787289
  N   1.60679718589559     -0.53775066382424     -0.58993927060014
  H   2.49901161345871     -0.99074846437674     -0.44879312911994
  H   1.73802729000865      0.38666834267767     -0.97840514619071
  C   -1.31332925908503     -0.61806613391456     -0.70947991650492
  H   -0.80876941350719     -0.44052246729209     -1.65747303168993
  H   -1.35058978093523     -1.69550405836762     -0.53666438983628
  H   -2.33615348103589     -0.23829197926754     -0.75579786719581
  N   -0.53540640572210      1.53033218810725      0.17034504794099
  O   -1.26857233167719      2.23231494044169      0.85866936914361
  O   0.18780855481528      1.93186927688067     -0.74156866224879
