15
Coordinates from ORCA-job run
  C   0.93185340427350     -0.48299998944957      0.09571007971030
  C   -0.45739832839663      0.12879700224587      0.23252790527082
  Cl  0.98278513057215     -1.94366973506890      1.21278032609296
  H   -0.59803683236038      0.49472700473377      1.25177156214277
  H   1.05917438883183     -0.89536768025047     -0.90466919788369
  N   1.93021120779467      0.48027622123757      0.34967026432178
  H   1.89475529681507      0.83307833332703      1.29758487143738
  H   2.85855852898006      0.13523240531082      0.14933040295627
  C   -1.59962101261980     -0.76752080020754     -0.20416583252891
  H   -1.42729572226088     -1.13242088369518     -1.21731836982218
  H   -2.53710962578209     -0.20803242800586     -0.18990198966049
  H   -1.69310317436936     -1.61585838949493      0.47206646315554
  N   -0.45053388163451      1.35697780060412     -0.63137120742687
  O   -0.33335871728555      1.17264838341380     -1.83971010588425
  O   -0.56188066255809      2.44413275529948     -0.07330517188143
