15
Coordinates from ORCA-job run
  C   1.05197849755994      0.03349069211104      0.24540791189706
  C   -0.47681212188473      0.10531364936702      0.21802719036959
  Cl  1.80086486731783      0.55416017454878     -1.28220007297942
  H   -0.82351563627828     -0.44687508125211      1.09433373089362
  H   1.42824355311916      0.72983931047172      1.00557989503227
  N   1.40586670251845     -1.35635164188038      0.47196352883714
  H   2.38136285633395     -1.50492198738793      0.24506196510764
  H   1.27506104066251     -1.57894955796273      1.45307691020662
  C   -1.11891109704440     -0.42680867838793     -1.04517849781740
  H   -2.19963100691166     -0.50510373041931     -0.91237796638688
  H   -0.71034797218510     -1.41678759866131     -1.24898519414574
  H   -0.90743822671067      0.23045933687445     -1.88674566909643
  N   -0.92481129321885      1.50964782853797      0.47964745059760
  O   -1.50871607632052      1.72213016299232      1.54249509692576
  O   -0.67319408695761      2.34975712104840     -0.38010627944144
