15
Coordinates from ORCA-job run
  C   1.08163572146055      0.03840835814311      0.41318412376593
  C   -0.44405464641033      0.15283605562088      0.24500123469556
  Cl  1.88100084060176      0.88972480172042     -0.94291060650319
  H   -0.88021088793857     -0.28723833760923      1.14794149400638
  H   1.35857194092293      0.57999350398650      1.31790945173128
  N   1.59425912259824     -1.29693117192841      0.50171711880230
  H   1.31734052318067     -1.73601662312668      1.37021725417196
  H   1.31549603522287     -1.86799154789800     -0.28451502849534
  C   -1.02489250669624     -0.47564282030455     -0.99967134606984
  H   -2.10482132568780     -0.33167129146088     -1.02608795700358
  H   -0.60032112087304     -0.03709101425385     -1.90047767953273
  H   -0.83065690279732     -1.55011566448194     -0.99360221268364
  N   -0.80722144559241      1.61102472720353      0.34901146518237
  O   -1.33965307493559      2.15770964613728     -0.61154123999538
  O   -0.51747227305572      2.15400137825184      1.41382392792793
