15
Coordinates from ORCA-job run
  C   0.91538650451019     -0.51640714194874      0.08008205811992
  C   -0.44521037387547      0.15082137824291      0.24242187033797
  Cl  0.94330780760501     -1.95596737159981      1.22409765362573
  H   -0.54290947429785      0.54278222928278      1.25698138043880
  H   0.99892531016351     -0.95223757595233     -0.91494533730470
  N   1.95616073763834      0.41309834935610      0.28726307314463
  H   2.86458547478591      0.02862302064197      0.06808400263600
  H   1.96097745415346      0.78305276258810      1.22931263417187
  C   -1.63229208108301     -0.70955198385919     -0.14407281303382
  H   -2.54747721860219     -0.11477909311422     -0.11585465322632
  H   -1.73833353829094     -1.54024016705166      0.55195507013153
  H   -1.50238985095137     -1.10058731033261     -1.15380331428888
  N   -0.41678670681216      1.36035126178340     -0.64683180861371
  O   -0.33858840081966      1.14827742471297     -1.85373104064303
  O   -0.47535564412377      2.46176421725035     -0.10895877549599
