15
Coordinates from ORCA-job run
  C   1.06387910815388      0.04014322688414      0.31828114780923
  C   -0.46557769455618      0.11373316254306      0.26833730533376
  Cl  1.81701216325344      0.47249650001813     -1.28446232833052
  H   -0.81729672818872     -0.41610115611864      1.15349114712565
  H   1.43926207188535      0.79699779176277      1.00777042493801
  N   1.45301432622232     -1.24853284597953      0.78935238742936
  H   1.22225905483770     -1.96647402029901      0.11302175716541
  H   2.45241694944005     -1.28071667225771      0.94603125188782
  C   -1.12398628693532     -0.42717197315146     -0.98751198360788
  H   -0.79164998782124     -1.44902295444971     -1.18178546290584
  H   -2.20737105922209     -0.44112645185674     -0.85362045198399
  H   -0.87338153907044      0.18953636741112     -1.84915038921719
  N   -0.93043410845711      1.52387638223332      0.47449975322985
  O   -1.78622045484773      1.70026298252016      1.34031933788637
  O   -0.45292581469392      2.39209966074007     -0.25057389676006
