15
Coordinates from ORCA-job run
  C   1.05871130687483      0.04118355912954      0.18705695290667
  C   -0.46215306936537      0.19131282488637      0.25107435334857
  Cl  1.65951651841513      0.45904480863041     -1.43926351730026
  H   -0.75280684532018     -0.05669907939678      1.27798847429962
  H   1.50749210771189      0.78058828772054      0.85661983952278
  N   1.40333021240165     -1.33585163390233      0.47246860306311
  H   2.38827392853204     -1.48558290453150      0.28905093621106
  H   1.24051406762602     -1.51728042843285      1.45786453206937
  C   -1.23518843940778     -0.63305090923139     -0.74866942641391
  H   -1.02385157977123     -0.31420256744148     -1.76685129381039
  H   -2.30682553476127     -0.53424556404048     -0.57321353768116
  H   -0.94200460725981     -1.67630292231333     -0.63317575924423
  N   -0.77530854451001      1.66084432822958      0.14259992460096
  O   -1.44022885554142      2.05208803171377     -0.81099446164745
  O   -0.31947066562450      2.37115416897991      1.03744438007525
