15
Coordinates from ORCA-job run
  C   1.01972503452225      0.07754019109907      0.40601199428835
  C   -0.50062165865073      0.15845253888530      0.30501172965435
  Cl  1.75396500316304      0.87473799686074     -1.07152277906433
  H   -0.87963867118151     -0.16403275635636      1.27892244026463
  H   1.34758593887762      0.69878527449195      1.23725569863958
  N   1.43005836326463     -1.26408811211766      0.61020070878179
  H   2.40521882119506     -1.30851871845919      0.87472263338599
  H   1.29790555536612     -1.82646400271101     -0.22065000994694
  C   -1.12231020614412     -0.64117706517479     -0.81544119463791
  H   -0.71462011416773     -0.35261047904582     -1.78311190152385
  H   -0.94278839064540     -1.70383677372307     -0.64044696818917
  H   -2.19987940144617     -0.48336881865749     -0.83973495836843
  N   -0.87648222066912      1.61609564197083      0.22839513806951
  O   -1.52616454251791      2.00754793763517     -0.73540669604007
  O   -0.49195351096604      2.31293714530234      1.16479416468652
