15
Coordinates from ORCA-job run
  C   0.88148274025637     -0.45580128410725      0.70672214047652
  C   -0.53977866308725      0.06996810354416      0.44474405264193
  Cl  1.52822573462804      0.44818790653835      2.12766619003798
  H   -1.12960702298835     -0.03672193694504      1.35542340210623
  H   0.76512104578199     -1.48686635454060      1.04911361753326
  N   1.81865770256481     -0.43558935861103     -0.36346894100619
  H   1.76332501018697      0.41879993661344     -0.90005858655122
  H   1.73388108920832     -1.24617088661171     -0.95866103125594
  C   -1.19515849692281     -0.62146365109137     -0.73603809138653
  H   -0.63323418542249     -0.43592165186305     -1.65090990528447
  H   -2.21585183307446     -0.25876047656823     -0.87240058718161
  H   -1.23833015633926     -1.69829837005729     -0.55546175787596
  N   -0.51674906553169      1.54400102496543      0.18825432118315
  O   -1.16493200573303      2.26427081244447      0.94051166039608
  O   0.14394810647285      1.93136618628973     -0.77743648383324
