17

C	-0.543285	-0.008089	-1.412232
C	0.0	0.0	0.0
F	-0.152491	-1.126203	-2.093992
H	1.094102	0.0	0.0
C	-2.016177	0.061425	-1.4593
N	-3.189468	0.007464	-1.415081
N	-0.006549	1.184144	-2.200023
O	1.09839	1.044739	-2.700121
O	-0.714771	2.185559	-2.24913
C	-0.463877	-1.242335	0.74297
H	-1.544316	-1.238084	0.946251
H	0.075873	-1.274786	1.692444
H	-0.212013	-2.150294	0.191722
N	-0.410992	1.258364	0.622623
H	0.408124	1.637208	1.083835
H	-1.145235	1.115791	1.308077
F	2.587275	0.0	0.0
