17

C	-0.54321	0.050243	-1.401895
C	0.0	0.0	0.0
F	-1.917695	-0.013267	-1.442338
H	1.096073	0.0	0.0
C	-0.12169	1.247893	-2.137935
N	0.172046	2.198098	-2.762684
N	-0.044631	-1.158862	-2.200968
O	-0.78259	-2.140078	-2.228096
O	1.06312	-1.061239	-2.709031
C	-0.472024	-1.231017	0.757195
H	-1.560914	-1.253938	0.889033
H	0.00824	-1.206276	1.738338
H	-0.16413	-2.157492	0.269464
N	-0.398238	1.263786	0.625261
H	0.415898	1.613531	1.117055
H	-1.152996	1.130704	1.28819
F	2.583246	0.0	0.0
