17

C	-0.37098	0.011426	-1.485849
C	0.0	0.0	0.0
F	-0.00704	-1.143319	-2.10205
H	1.097373	0.0	0.0
C	-1.810341	0.224562	-1.716965
N	-2.977429	0.324415	-1.810865
N	0.366963	1.139278	-2.207417
O	-0.046556	2.269979	-1.963041
O	1.28774	0.837075	-2.948448
C	-0.534638	-1.266848	0.643549
H	-1.63151	-1.296659	0.679727
H	-0.155262	-1.281242	1.665721
H	-0.166648	-2.15426	0.127747
N	-0.453449	1.1688	0.722536
H	-1.408403	1.425409	0.502394
H	0.147584	1.949907	0.502811
F	2.59401	0.0	0.0
