17

C	-0.413148	-0.061603	-1.452909
C	0.0	0.0	0.0
F	0.179297	0.924705	-2.169467
H	1.102828	0.0	0.0
C	-0.138277	-1.353886	-2.100886
N	0.085845	-2.369847	-2.645345
N	-1.924443	0.168741	-1.597798
O	-2.310275	1.249254	-2.017126
O	-2.636524	-0.755848	-1.206203
C	-0.463895	-1.17761	0.835502
H	0.071568	-1.122966	1.787151
H	-0.20582	-2.13257	0.371901
H	-1.543808	-1.168731	1.02588
N	-0.432445	1.297096	0.520046
H	0.399207	1.773447	0.846905
H	-1.063913	1.179603	1.302093
F	2.583649	0.0	0.0
