17

C	-0.414505	-0.044694	-1.452891
C	0.0	0.0	0.0
F	0.227671	0.909352	-2.170264
H	1.097928	0.0	0.0
C	-0.210492	-1.34952	-2.10177
N	-0.057958	-2.388645	-2.627033
N	-1.912563	0.264405	-1.600508
O	-2.239922	1.336254	-2.085427
O	-2.670903	-0.596223	-1.156468
C	-0.472053	-1.175259	0.83293
H	-0.216087	-2.130167	0.3687
H	-1.551762	-1.160567	1.020174
H	0.061492	-1.124615	1.785376
N	-0.426388	1.29978	0.523797
H	0.413224	1.778055	0.828499
H	-1.034601	1.180388	1.324791
F	2.587022	0.0	0.0
