17

C	-0.384813	-0.026668	-1.477793
C	0.0	0.0	0.0
F	0.038587	-1.169831	-2.081847
H	1.094656	0.0	0.0
C	-1.83858	0.097756	-1.703769
N	-3.009293	0.136718	-1.801124
N	0.270048	1.135189	-2.225238
O	1.238618	0.891048	-2.920871
O	-0.247489	2.23504	-2.042065
C	-0.549368	-1.241374	0.680447
H	-0.123908	-1.26308	1.684907
H	-1.643951	-1.222542	0.768616
H	-0.244367	-2.15076	0.159166
N	-0.424059	1.203849	0.692257
H	-1.317026	1.564221	0.37518
H	0.280371	1.915514	0.551368
F	2.587793	0.0	0.0
