17

C	-0.267085	-0.042287	-1.49865
C	0.0	0.0	0.0
F	0.119974	1.122893	-2.088983
H	1.097447	0.0	0.0
C	0.380643	-1.164414	-2.186578
N	0.875223	-2.064794	-2.756173
N	-1.765603	-0.155312	-1.761388
O	-2.403692	0.894917	-1.757958
O	-2.249194	-1.283377	-1.820263
C	-0.530849	-1.225154	0.712181
H	-1.627582	-1.248023	0.767379
H	-0.135578	-1.201203	1.728611
H	-0.191238	-2.1487	0.235954
N	-0.455297	1.231704	0.612388
H	-1.367723	1.519092	0.27356
H	0.214306	1.956545	0.388903
F	2.56844	0.0	0.0
