15

C	0.0	0.0	0.0
C	-0.477577	-0.05246	-1.446515
Br	2.036946	0.0	0.0
H	-1.526164	0.256187	-1.37934
H	0.084716	0.655662	-2.057258
N	-0.282613	1.38774	0.575043
O	-0.539794	1.465048	1.769042
O	-0.19234	2.330142	-0.202605
N	-0.508483	-0.988654	0.822023
H	-1.193686	-0.609712	1.464278
H	-0.930202	-1.696081	0.230887
N	-0.430068	-1.433207	-1.908255
H	-1.240724	-1.627664	-2.477986
H	0.410793	-1.612016	-2.4391
Cl	-3.610692	0.0	0.0
