17

C	-0.572521	-0.001234	-1.422259
C	0.0	0.0	0.0
Br	0.245571	1.514453	-2.338407
H	1.091827	0.0	0.0
N	-0.080239	-1.237324	-2.174869
O	-0.732161	-1.55901	-3.164551
O	0.933078	-1.778421	-1.762222
C	-2.077287	0.103665	-1.527292
H	-2.36843	0.173424	-2.572954
H	-2.535067	-0.783474	-1.088872
H	-2.413688	0.996578	-0.999406
N	-0.418219	-1.221135	0.789251
O	-0.098615	-1.223908	1.969756
O	-1.016051	-2.120517	0.201117
C	-0.478005	1.16385	0.734817
N	-0.897734	2.100116	1.307616
Br	3.325322	0.0	0.0
