17

C	-0.490265	-0.009296	-1.44926
C	0.0	0.0	0.0
Br	-0.079202	1.730484	-2.229654
H	1.094297	0.0	0.0
N	0.332756	-1.00566	-2.288073
O	1.535493	-1.007682	-2.120747
O	-0.282177	-1.715744	-3.07276
C	-1.966533	-0.296917	-1.59806
H	-2.274449	-0.222683	-2.639081
H	-2.5304	0.424409	-1.002669
H	-2.178762	-1.308679	-1.247045
N	-0.427928	-1.292161	0.644651
O	-0.932316	-1.260097	1.766094
O	-0.134207	-2.311749	0.016807
C	-0.531184	1.107699	0.759044
N	-0.952818	2.022906	1.372055
Br	2.726677	0.0	0.0
