17

C	-0.498838	-0.021602	-1.453023
C	0.0	0.0	0.0
Br	-2.431141	-0.263475	-1.504982
H	1.091284	0.0	0.0
N	-0.171068	1.353802	-2.06175
O	0.858977	1.866411	-1.639777
O	-0.880794	1.77259	-2.967027
C	0.201206	-1.042471	-2.327711
H	-0.075705	-0.864815	-3.368894
H	1.280512	-0.934109	-2.180372
H	-0.095868	-2.048362	-2.040696
N	-0.417949	-1.269713	0.695959
O	0.133861	-2.296064	0.308002
O	-1.260426	-1.197131	1.587919
C	-0.514757	1.147625	0.732132
N	-0.900747	2.095689	1.30842
Br	3.359346	0.0	0.0
