13

C	-0.448797	-0.07621	-1.435682
C	0.0	0.0	0.0
Br	0.010513	1.556148	-2.394703
H	1.08867	0.0	0.0
H	0.111105	-0.875915	-1.91114
H	-1.521269	-0.219039	-1.539595
N	-0.393518	-1.1849	0.722752
O	-0.368861	-2.249049	0.077035
O	-0.577226	-1.106708	1.945613
N	-0.55561	1.173842	0.711979
O	-1.716044	1.49599	0.441058
O	0.164027	1.741147	1.528793
H	2.449669	0.0	0.0
