13

C	-0.322351	-0.029668	-1.456216
C	0.0	0.0	0.0
Br	-2.230086	-0.191071	-1.861995
H	1.091602	0.0	0.0
H	0.027663	0.888575	-1.919287
H	0.167975	-0.895301	-1.894031
N	-0.449281	-1.218362	0.674867
O	-1.164276	-1.176541	1.678603
O	-0.034511	-2.256366	0.144086
N	-0.384552	1.222625	0.683024
O	-0.171695	1.281549	1.897467
O	-0.724831	2.187086	-0.019024
H	2.397011	0.0	0.0
