13

C	-0.350525	-0.057773	-1.447297
C	0.0	0.0	0.0
Br	-2.261494	0.128832	-1.834903
H	1.097223	0.0	0.0
H	-0.036815	-1.014585	-1.854956
H	0.151749	0.762521	-1.952858
N	-0.381137	-1.171778	0.768374
O	-0.080677	-1.176198	1.966068
O	-0.817833	-2.15474	0.147985
N	-0.415729	1.263732	0.608744
O	-1.05317	1.292895	1.661606
O	-0.044832	2.262621	-0.019879
H	2.386732	0.0	0.0
