13

C	-0.485281	-0.037941	-1.424519
C	0.0	0.0	0.0
Br	-0.077051	1.632393	-2.339239
H	1.090044	0.0	0.0
H	0.065026	-0.817591	-1.944667
H	-1.559427	-0.189218	-1.499374
N	-0.398786	-1.189302	0.709489
O	-0.47741	-2.235654	0.037623
O	-0.476029	-1.136468	1.947277
N	-0.541178	1.167481	0.744479
O	0.223456	1.798379	1.466344
O	-1.738418	1.418642	0.580919
H	2.459115	0.0	0.0
