13

C	-0.469196	0.131735	-1.425838
C	0.0	0.0	0.0
Br	-0.119077	-1.502115	-2.428007
H	1.088981	0.0	0.0
H	0.121313	0.912804	-1.897524
H	-1.534726	0.332125	-1.499875
N	-0.559985	-1.20642	0.66239
O	-1.772779	-1.383905	0.53437
O	0.202591	-1.939054	1.282025
N	-0.411874	1.14369	0.775832
O	-0.464494	2.234208	0.176571
O	-0.532762	1.004356	2.002308
H	2.471328	0.0	0.0
