13

C	-0.495592	-0.141891	-1.415361
C	0.0	0.0	0.0
Br	-0.171362	1.488399	-2.43437
H	1.096092	0.0	0.0
H	0.082753	-0.929888	-1.895962
H	-1.564185	-0.3443	-1.462662
N	-0.399987	-1.13519	0.793464
O	-0.517768	-2.222193	0.195161
O	-0.438286	-0.995945	2.025931
N	-0.55736	1.213833	0.65385
O	-1.784782	1.337454	0.613955
O	0.219429	2.009847	1.173159
H	2.472763	0.0	0.0
