13

C	-0.511411	-0.033877	-1.408782
C	0.0	0.0	0.0
Br	0.42798	1.230808	-2.572555
H	1.094039	0.0	0.0
H	-0.322378	-1.019839	-1.820943
H	-1.562276	0.239657	-1.467875
N	-0.357613	-1.224011	0.702214
O	-0.03005	-2.268982	0.115772
O	-0.87633	-1.186589	1.824746
N	-0.428567	1.180792	0.740997
O	-1.210925	1.979828	0.200343
O	0.114629	1.360967	1.834983
H	2.350596	0.0	0.0
