15

C	-0.325055	0.004187	-1.502644
C	0.0	0.0	0.0
Br	-2.26411	0.228058	-1.869735
H	1.098455	0.0	0.0
H	0.155863	0.852355	-1.995015
C	0.076556	-1.235747	-2.154935
N	0.395059	-2.238731	-2.677211
N	-0.463992	-1.169113	0.719892
H	0.096654	-1.974661	0.466187
H	-1.437096	-1.363533	0.504456
C	-0.468219	1.273333	0.681673
H	-0.147752	2.160046	0.127463
H	-0.018635	1.30552	1.674673
H	-1.556799	1.297486	0.787456
Br	3.536747	0.0	0.0
