15

C	-0.537319	0.036046	-1.428437
C	0.0	0.0	0.0
Br	0.040509	-1.51901	-2.478485
H	1.100509	0.0	0.0
H	-1.627158	-0.044595	-1.394249
C	-0.1657	1.239439	-2.159527
N	0.077929	2.22877	-2.743322
N	-0.562078	-1.192631	0.650538
H	-0.055172	-1.998422	0.295752
H	-0.308739	-1.132917	1.632075
C	-0.48131	1.240714	0.739842
H	-1.575538	1.275731	0.778719
H	-0.097671	2.150856	0.276098
H	-0.096529	1.213719	1.763043
Br	3.592885	0.0	0.0
