15

C	-0.464896	-0.034818	-1.462339
C	0.0	0.0	0.0
Br	0.035905	1.556856	-2.486532
H	1.094997	0.0	0.0
H	0.031293	-0.873947	-1.949021
C	-1.912118	-0.198673	-1.554517
N	-3.07848	-0.337855	-1.580695
N	-0.415765	-1.298591	0.539191
H	-1.278776	-1.208858	1.065724
H	0.311216	-1.63958	1.158044
C	-0.524519	1.189924	0.785989
H	-0.175323	2.135139	0.368016
H	-0.153941	1.119998	1.811414
H	-1.621287	1.197572	0.809028
Br	3.581252	0.0	0.0
