17

C	-0.696139	0.017581	-1.358759
C	0.0	0.0	0.0
F	-2.012815	-0.357674	-1.169928
H	1.087267	0.0	0.0
N	-0.547125	1.231875	-2.044014
H	-1.008815	1.972508	-1.534165
H	-0.929356	1.15403	-2.978172
N	-0.099741	-1.046454	-2.294616
O	-0.908443	-1.685864	-2.958182
O	1.114508	-1.091056	-2.358114
N	-0.447631	-1.237401	0.728759
O	-0.935284	-1.131547	1.845886
O	-0.265622	-2.278058	0.109304
N	-0.408933	1.169152	0.847563
O	-1.410576	1.817612	0.530415
O	0.291556	1.379734	1.828433
Cl	3.170381	0.0	0.0
