17

C	-0.670481	0.05709	-1.368604
C	0.0	0.0	0.0
F	-2.019289	-0.203989	-1.187801
H	1.087245	0.0	0.0
N	-0.401237	1.229882	-2.076907
H	-0.763708	2.030381	-1.578089
H	-0.765598	1.1835	-3.01931
N	-0.153177	-1.105035	-2.249029
O	-0.967399	-1.962605	-2.565461
O	1.013345	-1.02981	-2.589309
N	-0.474594	-1.252102	0.684792
O	-0.034947	-2.286119	0.195909
O	-1.26123	-1.163582	1.619882
N	-0.389418	1.150555	0.879322
O	0.13876	1.152131	1.982893
O	-1.175151	2.002542	0.460899
Cl	3.146536	0.0	0.0
