17

C	-0.538737	0.011146	-1.419955
C	0.0	0.0	0.0
F	-0.191059	-1.228003	-1.960091
H	1.087571	0.0	0.0
N	-1.878961	0.344481	-1.526261
H	-2.46222	-0.316611	-1.033363
H	-2.169755	0.520658	-2.476822
N	0.249296	0.987096	-2.323926
O	-0.393529	1.62761	-3.150147
O	1.459035	0.988498	-2.195087
N	-0.472615	-1.187103	0.765143
O	0.335694	-1.673761	1.547949
O	-1.613384	-1.607129	0.555098
N	-0.484478	1.216858	0.697744
O	-0.104395	2.267986	0.191688
O	-1.125045	1.092404	1.740157
Cl	2.688032	0.0	0.0
