17

C	-0.559798	-0.00784	-1.409538
C	0.0	0.0	0.0
F	-1.888912	-0.237386	-1.465963
H	1.088291	0.0	0.0
N	-0.298343	1.232048	-2.032763
H	0.692507	1.432842	-2.093815
H	-0.74324	1.282747	-2.941288
N	0.083862	-1.174122	-2.218635
O	-0.642662	-1.843048	-2.938732
O	1.300996	-1.250111	-2.130694
N	-0.464039	-1.171177	0.779862
O	-0.662847	-2.2092	0.147953
O	-0.429365	-1.060558	2.001825
N	-0.475697	1.238381	0.684024
O	-1.662563	1.290601	0.995526
O	0.368098	2.109237	0.869081
Cl	2.686028	0.0	0.0
