15
Coordinates from ORCA-job run
  C   0.83023680190626     -0.31282097236689      0.02937503963048
  C   -0.51026234395248      0.24441235170436     -0.50714353137930
  Br  1.74637239178936     -1.25242974028059     -1.48627860964551
  H   -0.24492324858971      0.88520050113692     -1.36403516806204
  C   0.57644881747750     -1.33050081132854      1.04697843067646
  N   0.37415885847773     -2.14724612755645      1.86669932438762
  N   1.62410190259465      0.74167068531324      0.57007790996974
  H   2.44507585053796      0.38526616765844      1.04397682430666
  H   1.92473108677000      1.36397233550413     -0.17241233699402
  N   -1.13354214638444      0.93775184853015      0.60837738083821
  H   -1.96381331648171      1.42234462897996      0.29025969355932
  H   -0.49230022597989      1.59868609388677      1.02905425215175
  N   -1.33661111845367     -0.82854563596811     -0.99190352324588
  H   -1.94514542752988     -0.52379502130160     -1.73787885717238
  H   -1.89552788218168     -1.18496630391177     -0.22514682902112
