15
Coordinates from ORCA-job run
  C   0.82163811010192     -0.33837446843905      0.00475991930538
  C   -0.50869878460469      0.33312200017399     -0.40764711090008
  Br  1.37499392444793     -1.46833771514997     -1.63847501259165
  H   -0.29495641153848      0.86327039876420     -1.34879633913020
  C   0.63591460268116     -1.32907199733062      1.06422030315517
  N   0.52351723398735     -2.08312815855375      1.95853919597721
  N   1.79306080360875      0.59359593351826      0.37281575812105
  H   1.80088805637323      1.41562939323577     -0.21398993208577
  H   2.71498361937323      0.19936434095772      0.49610473200317
  N   -0.84619553001342      1.33717098744451      0.57397057200063
  H   -1.62735534553610      1.89030120367915      0.24156676372689
  H   -1.12656130461980      0.88209822306826      1.43683876792021
  N   -1.52918845305228     -0.69624232864723     -0.52749302885336
  H   -2.41853812040240     -0.25815423516822     -0.73354009200732
  H   -1.31350240080642     -1.34024357755302     -1.27987449664132
