15
Coordinates from ORCA-job run
  C   0.87688556878740     -0.34215477814586     -0.13989053538212
  C   -0.56308900547814      0.02040547585990     -0.57025235792964
  Br  2.07444549023939     -0.32448836567788     -1.68006922741166
  H   -0.86509010253320     -0.68195453464356     -1.35795224635231
  C   0.87950163700279     -1.72599855599484      0.36606099264925
  N   0.83338536544677     -2.80857099469005      0.82381321437617
  N   1.32246105751282      0.63599155393199      0.82020018755051
  H   2.26181201368488      0.43113292663433      1.13856800842244
  H   0.67487394681341      0.60434811455265      1.60290652751772
  N   -0.56188837530430      1.34141506648998     -1.12280270856550
  H   -0.24398395613925      2.01041622036129     -0.43364972365510
  H   -1.47469483193422      1.59626928273463     -1.47478168813691
  N   -1.36863650279713     -0.10602354221018      0.65657152480200
  H   -1.62193908535284     -1.07427167879922      0.82569902175789
  H   -2.22404321994835      0.42448380959682      0.54657901035727
