15
Coordinates from ORCA-job run
  C   0.85481413291986     -0.39325184532829     -0.04729793080300
  C   -0.56027875100780      0.23685511355020      0.06073545374709
  Br  1.27010784140593     -0.68057511147351     -1.96608125437356
  H   -0.69472041682331      0.36182010419164      1.14907457824374
  C   0.84457832485906     -1.71313704359439      0.58212566919614
  N   0.76938310789479     -2.74718653543874      1.13592332052202
  N   1.87891896930437      0.42399515561804      0.52522281287279
  H   1.95493197993637      0.27116646162788      1.52342249953428
  H   1.64262452035652      1.39207153181182      0.32875997509563
  N   -1.56461409527178     -0.59690213069232     -0.56725096101587
  H   -2.48446911501744     -0.21631914603297     -0.37933510553655
  H   -1.54090909145656     -1.54576283926435     -0.20907550316744
  N   -0.50283806905321      1.56401014259385     -0.50621709638623
  H   -0.63724305340999      1.49387983164644     -1.50912773161446
  H   -1.23028628463683      2.15133631078469     -0.11987872631458
