17

C	-0.284554	-0.085648	-1.505779
C	0.0	0.0	0.0
Cl	-2.071917	-0.658252	-1.774487
H	1.097263	0.0	0.0
N	-0.099937	1.175658	-2.127454
H	-0.220201	1.103762	-3.130698
H	-0.732803	1.877291	-1.761762
N	0.533815	-1.130287	-2.035156
H	1.501936	-0.925071	-1.776845
H	0.450992	-1.171557	-3.044532
C	-0.45707	-1.21972	0.797233
H	0.034226	-1.209061	1.772382
H	-1.539018	-1.233379	0.934855
H	-0.150517	-2.117285	0.260683
C	-0.520039	1.234753	0.566395
N	-0.987765	2.215296	1.014537
Cl	3.339327	0.0	0.0
