17

C	-0.34265	0.098444	-1.49486
C	0.0	0.0	0.0
Cl	0.019121	-1.688437	-2.234422
H	1.095611	0.0	0.0
N	-1.706122	0.382695	-1.757441
H	-2.280851	-0.403803	-1.485504
H	-1.849789	0.552534	-2.745512
N	0.522452	1.022586	-2.087655
H	1.481428	0.870608	-1.774182
H	0.479556	1.001133	-3.098267
C	-0.545205	-1.198259	0.769646
H	-0.278483	-1.08955	1.822584
H	-1.635728	-1.264984	0.70101
H	-0.101056	-2.117864	0.394966
C	-0.445636	1.242759	0.634246
N	-0.78983	2.215682	1.195253
Cl	3.338324	0.0	0.0
