17

C	-0.212077	0.000923	-1.524341
C	0.0	0.0	0.0
Cl	-1.993455	-0.080429	-1.914232
H	1.10028	0.0	0.0
N	0.315133	1.229482	-2.033413
H	1.236364	1.371116	-1.621105
H	0.426603	1.125509	-3.036158
N	0.393823	-1.139469	-2.184655
H	1.376093	-1.146315	-1.905892
H	-0.033078	-2.004887	-1.875333
C	-0.496242	-1.242735	0.72865
H	-0.23815	-1.167533	1.7864
H	0.000417	-2.131454	0.336297
H	-1.578481	-1.35634	0.634812
C	-0.518097	1.209383	0.626167
N	-0.929274	2.152831	1.193132
Cl	3.304791	0.0	0.0
