17

C	-0.381214	-0.032226	-1.49615
C	0.0	0.0	0.0
Cl	0.086983	1.615813	-2.182647
H	1.097635	0.0	0.0
N	0.377718	-0.983681	-2.261149
H	1.367796	-0.824724	-2.079552
H	0.137258	-1.911057	-1.928758
N	-1.765436	-0.308151	-1.682613
H	-2.325449	0.393564	-1.213238
H	-1.966081	-0.280835	-2.675538
C	-0.431957	-1.278845	0.728453
H	-0.051012	-1.246906	1.751085
H	-1.516377	-1.397237	0.744971
H	0.015426	-2.148862	0.244731
C	-0.564924	1.155577	0.683046
N	-1.090233	2.041972	1.248584
Cl	3.330884	0.0	0.0
