17

C	-0.440576	0.119613	-1.477367
C	0.0	0.0	0.0
Cl	-0.050547	-1.516521	-2.285496
H	1.092754	0.0	0.0
N	-1.848559	0.315408	-1.740779
H	-2.378084	-0.473619	-1.390638
H	-2.138366	1.157068	-1.2518
N	0.273332	1.190883	-2.042615
H	0.089005	1.260002	-3.034768
H	1.269686	1.110032	-1.851996
C	-0.500253	-1.226123	0.760319
H	-0.085689	-2.13236	0.323051
H	-1.593639	-1.287911	0.763133
H	-0.158801	-1.161598	1.795548
C	-0.482627	1.206604	0.671595
N	-0.961878	2.130504	1.216236
Cl	3.327824	0.0	0.0
