15

C	-0.445015	0.029493	-1.417414
C	0.0	0.0	0.0
F	0.096988	0.973373	-2.1654
H	1.089049	0.0	0.0
H	-0.313984	-0.910366	0.497565
N	-0.118762	-1.320742	-2.085448
O	0.292586	-1.269981	-3.235991
O	-0.337374	-2.327418	-1.422801
N	-1.974036	0.121635	-1.591625
O	-2.385618	0.759551	-2.551274
O	-2.641551	-0.496919	-0.771762
N	-0.507573	1.129246	0.741047
O	-0.916623	2.121525	0.114443
O	-0.424657	1.060677	1.971987
H	2.52238	0.0	0.0
