15

C	-0.472855	0.001539	-1.409607
C	0.0	0.0	0.0
F	-0.033383	-0.997236	-2.155027
H	1.089065	0.0	0.0
H	-0.299889	0.907174	0.514061
N	-2.005127	0.056453	-1.55646
O	-2.496831	-0.558061	-2.493018
O	-2.594545	0.751959	-0.737959
N	-0.022769	1.307432	-2.092265
O	-0.152919	2.334319	-1.438606
O	0.38823	1.206884	-3.23902
N	-0.517333	-1.13408	0.736249
O	-1.116997	-2.032214	0.120875
O	-0.267961	-1.155799	1.944493
H	2.535409	0.0	0.0
