15

C	-0.442547	-0.085614	-1.415135
C	0.0	0.0	0.0
F	0.141489	-1.022455	-2.144355
H	1.097057	0.0	0.0
H	-0.333028	0.917174	0.472675
N	-1.965453	-0.244697	-1.608991
O	-2.321218	-0.627703	-2.719435
O	-2.686532	0.067791	-0.672929
N	-0.169796	1.263434	-2.100411
O	-0.695887	2.237742	-1.574004
O	0.520458	1.247226	-3.10696
N	-0.462634	-1.121456	0.778174
O	-0.418293	-0.998949	2.00758
O	-0.76838	-2.168566	0.182222
H	2.500987	0.0	0.0
