15

C	-0.5009	0.110789	-1.396996
C	0.0	0.0	0.0
F	0.161605	-0.751974	-2.182784
H	1.102464	0.0	0.0
H	-0.278956	-0.974123	0.401036
N	-1.993984	-0.229014	-1.543644
O	-2.730006	0.194121	-0.663834
O	-2.321125	-0.897328	-2.51547
N	-0.341935	1.481431	-2.054807
O	0.811821	1.859626	-2.159945
O	-1.351087	2.031026	-2.480037
N	-0.466379	1.014583	0.898823
O	-0.605324	2.169792	0.461061
O	-0.558147	0.702514	2.094912
H	2.45813	0.0	0.0
