15

C	-0.446498	-0.05547	-1.414908
C	0.0	0.0	0.0
F	0.134995	0.810929	-2.227455
H	1.10492	0.0	0.0
H	-0.319068	-0.869656	0.563896
N	-0.17127	-1.461843	-1.974496
O	0.443877	-1.527215	-3.02767
O	-0.623393	-2.394162	-1.319499
N	-1.970643	0.086028	-1.614518
O	-2.682313	-0.282375	-0.691142
O	-2.335926	0.510013	-2.702999
N	-0.475799	1.188406	0.659486
O	-0.872643	2.137284	-0.037892
O	-0.366251	1.21882	1.890546
H	2.492393	0.0	0.0
