15
Coordinates from ORCA-job run
  C   1.04868536042623     -0.05431046339432     -0.38083033988863
  C   -0.48821604410239     -0.23910239357237     -0.28282711668635
  H   1.29765400403434      0.34876418932717     -1.37060872788970
  H   -0.76262702816656     -0.88051784398373     -1.13583915496185
  C   1.71404934152794     -1.35401444097557     -0.23928072584856
  N   2.18110021446494     -2.42694738589082     -0.14440854248015
  C   1.53270119985997      0.88661536914438      0.63471470085277
  N   1.90529564950761      1.68189791434213      1.41296791568056
  C   -1.19168034513993      1.10133329029518     -0.41655515754650
  H   -2.27402593609637      0.95275162803143     -0.45291795633872
  H   -0.89507175941503      1.61826539502427     -1.33219267523516
  H   -0.95904468921246      1.73582021999935      0.44136008397738
  N   -0.78216817876547     -0.82915100712540      1.01123433748746
  H   -1.76391687245250     -0.72386316447518      1.23420154513148
  H   -0.56273491647029     -1.81854130674651      1.02198181374597
