15
Coordinates from ORCA-job run
  C   1.04975293841050     -0.44289745723359      0.10420280215859
  C   -0.49880670547594     -0.42666350167716     -0.02585572885621
  H   1.33782663614419     -1.34817094752579      0.65283568907271
  H   -0.75348188079450     -1.27822002316741     -0.67513581313253
  C   1.52325577698747      0.71762700631188      0.86531415772842
  N   1.89798416973270      1.65829662555177      1.45858506183903
  C   1.68597305203857     -0.49097539752422     -1.21660369182641
  N   2.14637972899009     -0.54538256147997     -2.29515432620818
  C   -0.98400587400527      0.85823143469131     -0.67409649669948
  H   -0.77091993615404      1.71075867971019     -0.02498559392165
  H   -0.50806748959559      1.02139708835543     -1.64289256650881
  H   -2.06380748283447      0.80764399139850     -0.83631052392972
  N   -1.03244173819379     -0.54374623633697      1.32218394028292
  H   -1.05248941865910     -1.50967090819884      1.62572782946321
  H   -1.97815177659081     -0.18622779287514      1.36218526053814
