15
Coordinates from ORCA-job run
  C   1.03618155443833     -0.01892050434234      0.22415061585531
  C   -0.44458973261123     -0.15746932908955     -0.21734337051980
  H   1.03311270348616      0.24308737215798      1.28898215299398
  H   -0.43954995342219     -0.39238618410378     -1.29288946464885
  C   1.72881020118873      1.02812199209080     -0.53243958971513
  N   2.24177049945718      1.88508466956929     -1.14935745867803
  C   1.72939202517958     -1.30202031921724      0.06905345886151
  N   2.22592922876591     -2.35669820664249     -0.07020804798055
  C   -1.18427233061260      1.14965182628569      0.01196422127610
  H   -0.73011584778803      1.97258536012332     -0.54235142395044
  H   -2.22082300492031      1.05540958363070     -0.32221480280616
  H   -1.18974342303483      1.39169469165038      1.07789308965916
  N   -1.02520421061097     -1.20457088033963      0.61143611188841
  H   -2.03534577711260     -1.17454024371560      0.54637739153738
  H   -0.72555193240314     -2.12102982805753      0.29794711622711
