15
Coordinates from ORCA-job run
  C   1.05327922036070     -0.41999641111648      0.15621028465451
  C   -0.48870789285625     -0.43740250703067     -0.03725049300972
  H   1.33581104555482     -1.30769865451328      0.73552357254683
  H   -0.70019634831047     -1.30661528817882     -0.67863566122767
  C   1.47201098244482      0.76485722931779      0.91201991013406
  N   1.80188181790487      1.72455701735089      1.50151632465393
  C   1.74425276440446     -0.48153518085384     -1.13609888875108
  N   2.24855290477295     -0.54891588047064     -2.19405480008905
  C   -0.97115457579758      0.82388216869211     -0.73235938524536
  H   -2.04295951796055      0.74959451454299     -0.93418259063682
  H   -0.46123863185513      0.97432755162481     -1.68594441941277
  H   -0.79830107530750      1.69451338158456     -0.09532892597962
  N   -1.07530517414366     -0.53799292200332      1.28959456328361
  H   -2.02677904837993     -0.19367774746983      1.28608768973356
  H   -1.09214647083155     -1.49789727147627      1.61190281934559
