15

C	-0.485347	-0.042998	-1.437261
C	0.0	0.0	0.0
F	-1.835555	-0.247633	-1.506906
H	1.094587	0.0	0.0
H	0.028285	-0.802292	-2.027379
N	-0.20525	1.273567	-2.119083
O	0.883448	1.37056	-2.670165
O	-1.074935	2.138111	-2.053506
C	-0.451277	-1.238693	0.634002
N	-0.842186	-2.2137	1.158352
C	-0.498409	1.218909	0.780724
H	-1.583005	1.325639	0.721656
H	-0.025673	2.121987	0.393652
H	-0.201836	1.112495	1.824728
Cl	3.284474	0.0	0.0
