15

C	-0.516203	0.106183	-1.42431
C	0.0	0.0	0.0
F	-0.034889	1.229299	-2.012984
H	1.095618	0.0	0.0
H	-1.607628	0.115007	-1.482517
N	-0.098065	-1.080214	-2.262539
O	0.893143	-0.973056	-2.966896
O	-0.823995	-2.065793	-2.149887
C	-0.51016	-1.205788	0.643195
N	-0.972112	-2.133411	1.196944
C	-0.436719	1.238855	0.793026
H	-0.046194	1.164929	1.80815
H	-0.007794	2.127854	0.331323
H	-1.526132	1.333228	0.83745
Cl	3.270818	0.0	0.0
