15

C	-0.364573	0.013916	-1.47134
C	0.0	0.0	0.0
F	0.038592	-1.118637	-2.090377
H	1.096627	0.0	0.0
H	0.060989	0.885416	-1.97044
N	-1.863066	0.121028	-1.669955
O	-2.32389	1.2618	-1.634936
O	-2.503095	-0.913627	-1.816496
C	-0.49947	-1.209402	0.646423
N	-0.886295	-2.176819	1.188659
C	-0.445411	1.259484	0.746916
H	-1.530074	1.332751	0.841757
H	-0.075086	2.144275	0.225581
H	0.003472	1.24622	1.74098
Cl	3.271649	0.0	0.0
