15

C	-0.531112	0.021745	-1.424051
C	0.0	0.0	0.0
F	-0.164915	1.168112	-2.048278
H	1.095685	0.0	0.0
H	-1.619489	-0.07636	-1.472316
N	-0.007058	-1.139835	-2.241738
O	0.848576	-0.921107	-3.083383
O	-0.537782	-2.220182	-1.984917
C	-0.504343	-1.165542	0.71832
N	-0.961133	-2.053567	1.334716
C	-0.43483	1.280541	0.726057
H	-0.057765	1.250704	1.749264
H	-1.524231	1.388364	0.750995
H	0.00787	2.142368	0.228359
Cl	3.281621	0.0	0.0
