15

C	-0.355095	0.045725	-1.473028
C	0.0	0.0	0.0
F	-0.079257	-1.128175	-2.086866
H	1.096648	0.0	0.0
H	0.166298	0.860714	-1.973875
N	-1.829953	0.318296	-1.670317
O	-2.594225	-0.638766	-1.698285
O	-2.149033	1.503952	-1.744822
C	-0.520231	-1.209388	0.627591
N	-0.948487	-2.150004	1.185111
C	-0.441723	1.25442	0.757865
H	-0.062311	2.142718	0.249715
H	-1.527169	1.332903	0.844947
H	-0.002894	1.226344	1.755866
Cl	3.254932	0.0	0.0
