15

C	-0.359584	0.021928	-1.471853
C	0.0	0.0	0.0
F	-0.0703	-1.157336	-2.070969
H	1.096576	0.0	0.0
H	0.151915	0.835894	-1.985182
N	-1.838023	0.274043	-1.66675
O	-2.172872	1.456259	-1.74212
O	-2.589533	-0.694453	-1.691952
C	-0.51654	-1.201538	0.645774
N	-0.94028	-2.136369	1.216442
C	-0.443003	1.263873	0.741076
H	-0.065619	2.145861	0.220573
H	-1.528365	1.341803	0.828854
H	-0.002816	1.249682	1.738733
Cl	3.254022	0.0	0.0
