15

C	-0.483885	-0.043785	-1.437344
C	0.0	0.0	0.0
F	-1.837223	-0.227591	-1.508819
H	1.094575	0.0	0.0
H	0.019324	-0.814987	-2.020194
N	-0.182731	1.261655	-2.133379
O	0.893894	1.326372	-2.714778
O	-1.028208	2.148745	-2.052013
C	-0.450765	-1.239665	0.632496
N	-0.836257	-2.218592	1.154332
C	-0.499266	1.217366	0.782061
H	-0.028899	2.122232	0.396515
H	-1.584169	1.322476	0.723249
H	-0.202178	1.109127	1.825939
Cl	3.278315	0.0	0.0
