15

C	-0.359307	0.011124	-1.472135
C	0.0	0.0	0.0
F	-0.065285	-1.170319	-2.063604
H	1.096659	0.0	0.0
H	0.147893	0.824324	-1.991267
N	-1.838667	0.254708	-1.668813
O	-2.584716	-0.717211	-1.688337
O	-2.180046	1.434077	-1.751061
C	-0.514984	-1.197246	0.655222
N	-0.934798	-2.130023	1.232264
C	-0.443218	1.269133	0.732193
H	-0.00139	1.263038	1.729173
H	-0.06759	2.147627	0.204328
H	-1.528564	1.346593	0.821139
Cl	3.256334	0.0	0.0
