15

C	-0.518424	0.019069	-1.429781
C	0.0	0.0	0.0
F	-0.242282	1.207972	-2.021571
H	1.095691	0.0	0.0
H	-1.595441	-0.163735	-1.493534
N	0.10823	-1.07613	-2.268135
O	0.841151	-0.758102	-3.190884
O	-0.226565	-2.212186	-1.945158
C	-0.508518	-1.167528	0.713953
N	-0.972662	-2.04573	1.341231
C	-0.444398	1.275533	0.728678
H	-0.082792	1.236633	1.756727
H	-1.533662	1.38335	0.739563
H	0.004682	2.141255	0.243873
Cl	3.27711	0.0	0.0
