17
Coordinates from ORCA-job run
  C   0.90515816716971      0.26302055029150     -0.48655112644277
  C   -0.33063416387542      0.28366598096862      0.41442515891209
  Cl  0.43812899760037      0.18161500504983     -2.22659950207472
  H   0.07808832775027      0.38391852199874      1.43069440903545
  H   1.41606759987446      1.22472505575717     -0.38536988578911
  C   1.87804501760658     -0.86409874100164     -0.19154306187552
  H   2.78677911036457     -0.75044137930008     -0.78471764132357
  H   2.15111664703194     -0.84855652797579      0.86794013372559
  H   1.44166700843159     -1.83502925532791     -0.42758583292941
  C   -1.14880216847064     -1.00321029001108      0.35715851504849
  H   -1.52135692762516     -1.18119204402965     -0.65406565430670
  H   -0.57103115514059     -1.87564067251941      0.66853005831851
  H   -2.01147559085817     -0.92565103156096      1.02363856079575
  C   -1.20821432789604      1.50402098692653      0.14733802225823
  H   -1.69215684138794      1.43116115752682     -0.82860928257451
  H   -0.62303303705362      2.42793667291588      0.16667123832176
  H   -1.98934666352191      1.58375601029142      0.90764589090043
