17
Coordinates from ORCA-job run
  C   0.98919698029284      0.24293472657391     -0.23612861963434
  C   -0.53895246038998      0.23695812854517     -0.19315229269547
  Cl  1.55434419877706      1.48779294827755     -1.41427530979551
  H   -0.88871185963088      0.08707875884499     -1.22271109146153
  H   1.37330317719443      0.57600584420815      0.73358989312911
  C   1.61822474750201     -1.08487995201369     -0.61880145634940
  H   1.43174356686823     -1.83480699181509      0.15226055355862
  H   2.69781048897850     -0.97725637341752     -0.73158110350317
  H   1.20872398586243     -1.44230512116389     -1.56678313910603
  C   -1.09566855084310      1.56091104042150      0.32616921786313
  H   -2.18837461916026      1.54345045700116      0.31772441892615
  H   -0.76689326474100      2.40681315913441     -0.27763718703556
  H   -0.77275962767251      1.73085336616129      1.35862569168400
  C   -1.04985064975329     -0.91673313326181      0.67251739365625
  H   -2.13451786823285     -0.84664193712414      0.78475445387093
  H   -0.82604980105943     -1.89332538199146      0.24103351052688
  H   -0.61156844399221     -0.87584953838050      1.67539506636593
