17

C	-0.375057	-0.134133	-1.470552
C	0.0	0.0	0.0
F	-1.743757	-0.455848	-1.613686
H	1.09128	0.0	0.0
C	-0.198854	1.197349	-2.090144
N	-0.022835	2.192289	-2.689308
C	0.489692	-1.131668	-2.222677
H	1.519092	-0.960695	-1.884644
H	0.193843	-2.146649	-1.9625
H	0.39312	-0.982726	-3.300122
N	-0.440512	-1.24745	0.733689
O	-0.062668	-2.340229	0.314089
O	-1.139129	-1.105992	1.742618
N	-0.524944	1.178358	0.59716
H	0.10456	1.479878	1.325425
H	-1.437371	1.014325	1.003211
F	2.564373	0.0	0.0
