17

C	-0.532697	-0.057907	-1.437195
C	0.0	0.0	0.0
F	-0.12919	1.136787	-2.034003
H	1.100911	0.0	0.0
C	0.069229	-1.128916	-2.25383
N	0.474637	-1.919048	-3.022059
C	-2.046611	-0.10566	-1.52363
H	-2.42145	-1.061743	-1.159682
H	-2.361734	0.030823	-2.559763
H	-2.436342	0.712754	-0.91794
N	-0.43727	-1.197497	0.739873
O	-0.676576	-1.094794	1.948142
O	-0.504244	-2.26544	0.123456
N	-0.435181	1.215252	0.646908
H	0.409993	1.680181	0.9633
H	-0.968225	0.977656	1.471858
F	2.502946	0.0	0.0
