17

C	-0.397247	0.043508	-1.479667
C	0.0	0.0	0.0
F	-0.205972	-1.198387	-2.076349
H	1.090931	0.0	0.0
C	-1.833168	0.359432	-1.641297
N	-2.973132	0.607795	-1.771141
C	0.508711	1.048613	-2.16348
H	1.522547	0.817507	-1.816415
H	0.413389	0.95182	-3.247351
H	0.246268	2.05838	-1.850586
N	-0.546157	-1.257809	0.625333
O	0.029925	-2.316092	0.390154
O	-1.55458	-1.156012	1.336545
N	-0.46789	1.189774	0.638646
H	0.176613	1.421826	1.383697
H	-1.396502	1.054504	1.021168
F	2.59396	0.0	0.0
