17

C	-0.426586	-0.046865	-1.482268
C	0.0	0.0	0.0
F	-0.277906	1.272257	-1.950332
H	1.107954	0.0	0.0
C	0.469689	-0.865364	-2.317676
N	1.071077	-1.488913	-3.110226
C	-1.872275	-0.431667	-1.749639
H	-2.110159	-0.232038	-2.796692
H	-2.029356	-1.485875	-1.538334
H	-2.535404	0.167737	-1.121399
N	-0.405776	-1.274863	0.652749
O	-0.345908	-2.290329	-0.055518
O	-0.691174	-1.291454	1.847006
N	-0.466364	1.13302	0.719355
H	0.258785	1.83831	0.689144
H	-1.331249	1.519372	0.359396
F	2.508279	0.0	0.0
