15

C	0.0	0.0	0.0
C	-0.535615	-0.131285	-1.410579
Cl	1.770763	0.0	0.0
H	-1.596907	0.131334	-1.346313
H	-0.013072	0.606723	-2.022407
N	-0.384538	1.36299	0.602399
O	-0.452956	2.294744	-0.184578
O	-0.501333	1.414718	1.817705
C	-0.435779	-1.056954	0.908777
N	-0.652915	-1.986693	1.593887
C	-0.386096	-1.543817	-1.957675
H	0.645764	-1.903804	-1.91453
H	-1.028392	-2.228873	-1.40139
H	-0.709861	-1.560347	-3.001029
Br	-3.655071	0.0	0.0
