15

C	0.0	0.0	0.0
C	-0.532362	-0.168045	-1.408844
Cl	1.770193	0.0	0.0
H	7.1e-05	0.545023	-2.041373
H	-1.590972	0.107004	-1.358257
N	-0.386353	1.377594	0.566063
O	-0.448424	2.289154	-0.245111
O	-0.50356	1.461306	1.779219
C	-0.43825	-1.033497	0.934547
N	-0.634347	-1.945364	1.649648
C	-0.398307	-1.598636	-1.910392
H	0.626921	-1.973565	-1.843494
H	-1.057942	-2.255558	-1.340312
H	-0.710254	-1.643373	-2.956369
Br	-3.64324	0.0	0.0
