15

C	0.0	0.0	0.0
C	-0.527669	0.140546	-1.41443
Cl	1.76681	0.0	0.0
H	-1.586126	0.399157	-1.310587
H	0.008482	0.971184	-1.877433
N	-0.391545	1.223701	0.848372
O	-0.439784	2.288935	0.251973
O	-0.531009	1.043917	2.048457
C	-0.438083	-1.210891	0.690077
N	-0.627694	-2.228987	1.245536
C	-0.390097	-1.150046	-2.209137
H	-0.699098	-0.971834	-3.241781
H	0.635665	-1.52898	-2.220982
H	-1.050085	-1.91403	-1.794076
Br	-3.629716	0.0	0.0
