19

C	0.0	0.0	0.0
C	-0.260166	-0.045843	-1.556545
Br	1.976107	0.0	0.0
H	0.485912	0.619684	-2.003196
C	-0.550926	1.292898	0.56802
H	-0.208556	2.16521	0.003944
H	-1.645951	1.181444	0.504159
H	-0.249517	1.40846	1.613016
C	-0.592893	-1.183682	0.729003
H	-0.35724	-1.128812	1.795598
H	-1.682688	-1.06985	0.588131
H	-0.234935	-2.136305	0.333578
C	-1.63716	0.404608	-2.064836
H	-1.725125	0.124087	-3.121084
H	-1.688744	1.495171	-1.998099
H	-2.460304	0.023454	-1.433887
C	0.053191	-1.382031	-2.074722
N	0.285107	-2.445654	-2.516891
F	-3.294897	0.0	0.0
