12

C	-0.533466	-0.004374	-1.430955
C	0.0	0.0	0.0
Br	-0.03889	1.594902	-2.407924
H	1.094042	0.0	0.0
H	-1.623624	-0.048615	-1.442605
H	-0.118918	-0.850105	-1.978272
C	-0.44209	-1.26969	0.607623
N	-0.873912	-2.253774	1.084636
N	-0.454946	1.156754	0.763121
H	-1.288209	0.945756	1.297005
H	0.282589	1.427232	1.401361
Cl	3.332211	0.0	0.0
