12

C	-0.536807	-0.025735	-1.424905
C	0.0	0.0	0.0
Br	-0.257688	-1.725527	-2.328195
H	1.099505	0.0	0.0
H	-1.610102	0.168618	-1.436635
H	-0.010559	0.736346	-1.99587
C	-0.503142	-1.119693	0.804047
N	-0.956366	-1.958373	1.491703
N	-0.390513	1.29979	0.570167
H	0.38902	1.648105	1.113436
H	-1.191431	1.204987	1.178748
Cl	3.321621	0.0	0.0
