12

C	-0.521803	0.137486	-1.425349
C	0.0	0.0	0.0
Br	-0.272569	-1.461845	-2.500866
H	1.093702	0.0	0.0
H	0.0316	0.940749	-1.906577
H	-1.589694	0.359504	-1.428338
C	-0.512483	-1.203318	0.667884
N	-0.97796	-2.098673	1.270303
N	-0.393586	1.227588	0.705859
H	-1.250687	1.089501	1.226404
H	0.344401	1.465004	1.35707
Cl	3.32011	0.0	0.0
