12

C	-0.51589	0.09104	-1.430231
C	0.0	0.0	0.0
Br	-0.202629	-1.523536	-2.465314
H	1.093717	0.0	0.0
H	0.010852	0.904625	-1.924313
H	-1.591053	0.27278	-1.446971
C	-0.50541	-1.192462	0.695954
N	-0.962122	-2.077618	1.31989
N	-0.406323	1.24096	0.671099
H	-1.29448	1.121405	1.143032
H	0.298284	1.473268	1.360949
Cl	3.347095	0.0	0.0
