12

C	-0.475699	0.058363	-1.451813
C	0.0	0.0	0.0
Br	-0.086575	-1.548018	-2.476441
H	1.094713	0.0	0.0
H	0.039052	0.879648	-1.948757
H	-1.557587	0.201022	-1.50385
C	-0.542537	-1.177628	0.686785
N	-1.046889	-2.091208	1.224904
N	-0.395504	1.205773	0.72777
H	0.295354	1.925634	0.55818
H	-1.310848	1.533079	0.439001
Cl	3.322346	0.0	0.0
