12

C	-0.373975	0.020827	-1.465775
C	0.0	0.0	0.0
Br	-2.313192	0.067622	-1.750255
H	1.097039	0.0	0.0
H	-0.002874	-0.860907	-1.986178
H	0.024194	0.929883	-1.910444
C	-0.46847	-1.232647	0.656591
N	-0.839878	-2.193748	1.221669
N	-0.437486	1.217047	0.670825
H	-1.408576	1.139466	0.950452
H	0.13078	1.351267	1.499087
Cl	3.321926	0.0	0.0
