16

C	-0.371666	-0.058357	-1.459517
C	0.0	0.0	0.0
F	0.00314	1.074782	-2.099884
H	1.097188	0.0	0.0
C	0.198141	-1.225702	-2.151271
N	0.6072	-2.161587	-2.731996
N	-1.895086	-0.162207	-1.624638
O	-2.508395	0.87672	-1.831171
O	-2.378072	-1.27987	-1.457293
C	-0.377554	-1.237419	0.80793
H	0.056964	-2.123222	0.338572
H	-1.45537	-1.377127	0.917543
H	0.080919	-1.136055	1.794575
C	-0.509719	1.220499	0.589873
N	-0.923618	2.193689	1.106418
H	2.550914	0.0	0.0
