16

C	-0.462693	-0.042954	-1.441975
C	0.0	0.0	0.0
F	-0.056567	-1.194577	-2.030603
H	1.096668	0.0	0.0
C	-1.923686	0.068432	-1.603808
N	-3.094269	0.097019	-1.706409
N	0.154076	1.116169	-2.247945
O	0.982918	0.837012	-3.093996
O	-0.274567	2.225374	-1.952488
C	-0.400809	-1.282666	0.731461
H	-1.484515	-1.424367	0.786636
H	0.063595	-2.135206	0.235202
H	0.005514	-1.228973	1.743502
C	-0.508039	1.166545	0.694458
N	-0.925899	2.068856	1.322922
H	2.612164	0.0	0.0
