16

C	-0.45571	-0.032175	-1.445545
C	0.0	0.0	0.0
F	-0.070916	-1.191618	-2.033009
H	1.096611	0.0	0.0
C	-1.912217	0.112812	-1.616117
N	-3.081797	0.168132	-1.720585
N	0.194286	1.112949	-2.243611
O	0.992842	0.812938	-3.113094
O	-0.183063	2.233901	-1.924106
C	-0.40478	-1.285471	0.723183
H	-1.48838	-1.430863	0.768105
H	0.067131	-2.135076	0.229048
H	-0.009004	-1.234453	1.739298
C	-0.508166	1.163593	0.699559
N	-0.924026	2.058508	1.340209
H	2.613327	0.0	0.0
