16

C	-0.364715	-0.002872	-1.459606
C	0.0	0.0	0.0
F	0.01408	1.154053	-2.056347
H	1.10757	0.0	0.0
C	0.208782	-1.144469	-2.192729
N	0.630957	-2.036582	-2.829125
N	-1.88943	-0.097957	-1.637808
O	-2.502189	0.949775	-1.800143
O	-2.373915	-1.222583	-1.522506
C	-0.370091	-1.272522	0.753172
H	-1.446019	-1.435392	0.840888
H	0.071731	-1.204018	1.749905
H	0.087193	-2.131227	0.256047
C	-0.508966	1.194276	0.638006
N	-0.885017	2.15284	1.208452
H	2.529219	0.0	0.0
