16

C	-0.446186	0.084935	-1.445722
C	0.0	0.0	0.0
F	-0.106892	-1.045229	-2.11226
H	1.108016	0.0	0.0
C	-1.894937	0.303593	-1.61192
N	-3.060222	0.422212	-1.714938
N	0.254641	1.255541	-2.165233
O	0.04317	2.356255	-1.676114
O	0.914786	0.992186	-3.156134
C	-0.400308	-1.342791	0.614223
H	-0.025713	-1.36435	1.63934
H	0.092749	-2.146863	0.066508
H	-1.482717	-1.505879	0.627115
C	-0.518325	1.09527	0.793871
N	-0.927825	1.929997	1.514682
H	2.596431	0.0	0.0
