16

C	-0.36528	0.275265	-1.43408
C	0.0	0.0	0.0
F	-0.002896	1.531213	-1.793197
H	1.102902	0.0	0.0
C	0.222877	-0.691585	-2.377052
N	0.65286	-1.427553	-3.185684
N	-1.88842	0.194913	-1.629848
O	-2.515149	1.246739	-1.588304
O	-2.357303	-0.937744	-1.733896
C	-0.370766	-1.392867	0.497752
H	-1.447082	-1.563694	0.564867
H	0.082226	-1.518689	1.483753
H	0.074345	-2.142497	-0.161009
C	-0.510589	1.049926	0.854607
N	-0.889525	1.877788	1.600617
H	2.535575	0.0	0.0
