16

C	-0.341227	-0.23323	-1.448035
C	0.0	0.0	0.0
F	0.062563	0.815366	-2.209939
H	1.107594	0.0	0.0
C	0.241944	-1.474984	-1.982628
N	0.674644	-2.453135	-2.468113
N	-1.858043	-0.350584	-1.645346
O	-2.455683	0.648034	-2.023314
O	-2.354871	-1.430712	-1.333053
C	-0.382461	-1.136651	0.939637
H	-1.459659	-1.265343	1.057433
H	0.069664	-0.926415	1.911314
H	0.054345	-2.068546	0.574817
C	-0.513911	1.281301	0.428435
N	-0.900648	2.319639	0.823614
H	2.524679	0.0	0.0
