12

C	-0.426882	0.045669	-1.447313
C	0.0	0.0	0.0
Cl	-2.194581	0.05257	-1.670914
H	1.094967	0.0	0.0
H	-0.019248	0.902506	-1.97849
H	-0.356544	-0.921146	0.463761
N	0.098998	-1.168823	-2.1733
O	-0.010089	-2.25024	-1.608285
O	0.556327	-0.972947	-3.294462
C	-0.503616	1.160128	0.720012
N	-0.925168	2.092398	1.295411
Cl	3.263707	0.0	0.0
