12

C	-0.476813	-0.075708	-1.426989
C	0.0	0.0	0.0
Cl	-2.232631	0.180815	-1.581353
H	1.090633	0.0	0.0
H	0.018866	0.680053	-2.03438
H	-0.288715	0.990328	0.36798
N	-0.155866	-1.391507	-2.105421
O	0.201504	-2.328374	-1.405011
O	-0.296384	-1.403233	-3.324519
C	-0.587381	-0.992474	0.888442
N	-1.09559	-1.736494	1.640002
Cl	3.27855	0.0	0.0
