12

C	-0.447518	-0.07803	-1.44782
C	0.0	0.0	0.0
Cl	-0.056447	1.361686	-2.363956
H	1.092519	0.0	0.0
H	0.020083	-0.93801	-1.923958
H	-0.316056	-0.920696	0.500204
N	-1.939699	-0.363504	-1.496412
O	-2.731658	0.541224	-1.720838
O	-2.229055	-1.530599	-1.238055
C	-0.562044	1.147099	0.698402
N	-1.036524	2.051846	1.27648
Cl	3.27591	0.0	0.0
