12

C	-0.428082	0.041877	-1.446747
C	0.0	0.0	0.0
Cl	-2.196128	0.039352	-1.667711
H	1.094978	0.0	0.0
H	-0.02596	0.900398	-1.979294
H	-0.355396	-0.920389	0.466091
N	0.103606	-1.170364	-2.17209
O	-0.00125	-2.251846	-1.606547
O	0.561294	-0.973004	-3.292986
C	-0.504065	1.161315	0.717609
N	-0.924453	2.095044	1.291458
Cl	3.264503	0.0	0.0
