14

C	0.0	0.0	0.0
C	-0.415619	0.157527	-1.47588
Br	1.958836	0.0	0.0
H	0.094114	1.043537	-1.862311
C	-0.398124	1.197441	0.744823
N	-0.524914	2.18889	1.363914
C	-0.430492	-1.206934	0.706369
N	-0.577559	-2.156272	1.38333
C	-1.863478	0.262613	-1.776204
N	-2.60382	0.467643	-2.680117
N	0.139853	-0.976129	-2.301736
O	0.021126	-2.111587	-1.855594
O	0.640477	-0.67065	-3.379058
F	-2.3942	0.0	0.0
