14

C	0.0	0.0	0.0
C	-0.520278	-0.006476	-1.525762
Br	1.95188	0.0	0.0
H	-1.598072	-0.222183	-1.52996
C	-0.448805	1.191543	0.734762
N	-0.817444	2.146697	1.315464
C	-0.410008	-1.245487	0.661057
N	-0.76895	-2.248899	1.160436
C	0.099282	-0.989869	-2.353231
N	0.487255	-1.860382	-3.039172
N	-0.47223	1.375527	-2.086684
O	0.616698	1.934625	-2.101042
O	-1.559605	1.891901	-2.34172
F	-1.888163	0.0	0.0
