13

C	0.0	0.0	0.0
C	-0.466873	-0.432876	-1.413116
Br	1.930406	0.0	0.0
H	0.389782	-0.774807	-1.998057
H	-0.374182	0.976928	0.283815
H	-1.163701	-1.252423	-1.26905
N	-0.410343	-0.924413	1.103918
O	-0.569828	-0.417913	2.2094
O	-0.460447	-2.123582	0.856318
N	-1.178071	0.620543	-2.11859
H	-0.606076	1.459746	-2.132249
H	-1.974206	0.739804	-1.471693
F	-2.503855	0.0	0.0
