13

C	0.0	0.0	0.0
C	-0.492272	-0.095937	-1.435186
Br	1.918459	0.0	0.0
H	-0.21922	0.859572	-1.899004
H	-0.383758	0.888078	0.486272
H	-1.587504	-0.144001	-1.279622
N	-0.464215	-1.136457	0.865258
O	-0.646227	-2.229211	0.339711
O	-0.541026	-0.910477	2.066855
N	0.136782	-1.176776	-2.208406
H	-0.295852	-2.039921	-1.902803
H	-0.1284	-1.04106	-3.177321
F	-2.642798	0.0	0.0
