14

C	-0.548796	0.078061	-1.403853
C	0.0	0.0	0.0
F	-0.308162	-1.099535	-2.046853
H	1.091625	0.0	0.0
H	-1.614647	0.302937	-1.464821
N	0.120729	1.157599	-2.235528
O	-0.253352	1.184792	-3.408589
O	0.940609	1.898758	-1.714297
C	-0.448827	-1.222383	0.636239
N	-0.811899	-2.222574	1.136047
N	-0.476125	1.146369	0.802504
O	-1.084676	2.047935	0.215454
O	-0.218443	1.139145	2.001691
F	2.42233	0.0	0.0
