14

C	-0.43923	0.085216	-1.451125
C	0.0	0.0	0.0
F	-0.644449	-1.147693	-1.979399
H	1.091652	0.0	0.0
H	-1.325202	0.70245	-1.602696
N	0.657803	0.763451	-2.25837
O	1.102715	0.182613	-3.23904
O	0.950301	1.885465	-1.871566
C	-0.470009	-1.208232	0.639902
N	-0.849956	-2.186666	1.16845
N	-0.464741	1.16453	0.793984
O	-0.160838	1.162984	1.983147
O	-1.087068	2.065802	0.231365
F	2.423569	0.0	0.0
