14

C	-0.602381	0.004141	-1.384987
C	0.0	0.0	0.0
F	-0.284317	-1.168357	-2.01183
H	1.092651	0.0	0.0
H	-1.685588	0.130775	-1.404645
N	-0.07806	1.100953	-2.284174
O	-0.790161	1.326141	-3.26453
O	0.991503	1.6308	-2.025681
C	-0.430101	-1.196171	0.698415
N	-0.792292	-2.171619	1.244539
N	-0.458015	1.184362	0.749608
O	-0.295913	1.191117	1.965326
O	-0.940299	2.11792	0.095206
F	2.416524	0.0	0.0
