14

C	-0.42625	0.00069	-1.439643
C	0.0	0.0	0.0
F	0.355182	0.759416	-2.231688
H	1.095894	0.0	0.0
H	-0.431814	-1.024382	-1.821578
N	-1.866606	0.482837	-1.626666
O	-2.671431	0.082685	-0.792567
O	-2.120101	1.163185	-2.610156
C	-0.475204	-1.163952	0.712158
N	-0.809965	-2.153763	1.250491
N	-0.39049	1.24032	0.698764
O	-0.431043	1.218104	1.925433
O	-0.576564	2.236544	-0.001589
F	2.415323	0.0	0.0
