14

C	-0.414448	0.021614	-1.441991
C	0.0	0.0	0.0
F	-1.770462	0.078802	-1.61851
H	1.091798	0.0	0.0
H	0.060105	0.847736	-1.961906
N	0.067722	-1.2379	-2.117103
O	-0.64492	-2.23191	-2.015985
O	1.130427	-1.155741	-2.722326
C	-0.553717	-1.095559	0.761026
N	-0.949799	-2.02614	1.360328
N	-0.361006	1.299367	0.619623
O	-0.629481	1.312032	1.818978
O	-0.292079	2.298974	-0.096272
F	2.418284	0.0	0.0
