14

C	-0.340701	-0.002327	-1.455528
C	0.0	0.0	0.0
F	-1.691872	-0.022017	-1.716755
H	1.092339	0.0	0.0
H	0.103143	0.856703	-1.948152
N	0.212491	-1.219077	-2.158792
O	0.530684	-2.20352	-1.502862
O	0.251489	-1.124167	-3.384937
C	-0.594571	-1.066037	0.771847
N	-1.073789	-1.941748	1.392277
N	-0.359349	1.317294	0.584283
O	-0.605846	1.361277	1.786692
O	-0.307917	2.300514	-0.156074
F	2.422556	0.0	0.0
