14

C	-0.350895	0.020778	-1.458433
C	0.0	0.0	0.0
F	-1.694941	0.09496	-1.703912
H	1.09432	0.0	0.0
H	0.162521	0.83842	-1.955506
N	0.139657	-1.248275	-2.111346
O	-0.548186	-2.252588	-1.95105
O	1.172616	-1.166751	-2.766611
C	-0.573828	-1.090218	0.753061
N	-0.998956	-1.987995	1.381716
N	-0.376723	1.305132	0.596553
O	-0.223223	2.30203	-0.110792
O	-0.749169	1.326448	1.767209
F	2.416665	0.0	0.0
