14

C	-0.397477	-0.006267	-1.451501
C	0.0	0.0	0.0
F	0.073652	1.104454	-2.061669
H	1.09269	0.0	0.0
H	-0.011553	-0.902696	-1.938369
N	-1.90508	-0.038915	-1.683266
O	-2.453919	0.968181	-2.110332
O	-2.442908	-1.109036	-1.416933
C	-0.511443	-1.130685	0.744495
N	-0.861368	-2.041655	1.399679
N	-0.516239	1.263375	0.639083
O	0.303515	2.113011	0.965951
O	-1.73799	1.357058	0.784366
F	2.455357	0.0	0.0
