16

C	-0.357929	0.016291	-1.479794
C	0.0	0.0	0.0
Cl	-2.145763	0.175984	-1.774767
H	1.098661	0.0	0.0
H	0.090716	0.894508	-1.950218
C	0.091426	-1.177213	-2.193576
N	0.419417	-2.146657	-2.769445
C	-0.498248	-1.244724	0.717436
H	-0.131495	-1.235053	1.746687
H	-1.59206	-1.28977	0.739284
H	-0.117062	-2.152922	0.24472
C	-0.448573	1.28301	0.687783
H	-0.08389	2.163402	0.150727
H	-0.020115	1.315089	1.692265
H	-1.537727	1.347486	0.769661
Br	3.539935	0.0	0.0
