16

C	-0.428715	-0.013249	-1.466625
C	0.0	0.0	0.0
Cl	0.118744	1.438728	-2.367199
H	1.096371	0.0	0.0
H	0.048045	-0.861071	-1.964815
C	-1.881565	-0.127852	-1.618989
N	-3.048281	-0.236613	-1.707187
C	-0.449333	-1.30669	0.652361
H	-0.081486	-2.173177	0.094818
H	-0.022504	-1.366456	1.65627
H	-1.539813	-1.376135	0.732972
C	-0.521068	1.209833	0.759206
H	-0.156278	2.140062	0.321708
H	-0.158799	1.168146	1.789229
H	-1.617122	1.233498	0.779586
Br	3.608689	0.0	0.0
