16

C	-0.354441	0.011965	-1.481121
C	0.0	0.0	0.0
Cl	-2.136134	0.227977	-1.787862
H	1.098683	0.0	0.0
H	0.125723	0.869871	-1.959619
C	0.057321	-1.204896	-2.180404
N	0.36127	-2.180267	-2.761042
C	-0.50535	-1.239612	0.721028
H	-0.148392	-1.223411	1.75357
H	-0.120936	-2.151416	0.257822
H	-1.599488	-1.283309	0.732862
C	-0.441342	1.289093	0.681847
H	-0.000283	1.32954	1.680771
H	-0.083691	2.165279	0.133221
H	-1.529426	1.354211	0.776426
Br	3.560025	0.0	0.0
