17

C	0.0	0.0	0.0
C	-0.281408	0.3278	-1.483405
Br	1.991959	0.0	0.0
H	0.178372	1.297332	-1.707447
H	0.266256	-0.410626	-2.081418
C	-0.506677	1.062849	0.951167
H	-0.116966	2.045792	0.682986
H	-0.207071	0.821662	1.972469
H	-1.601151	1.079602	0.897285
N	-0.469336	-1.284189	0.437063
H	-0.350657	-1.96948	-0.301227
H	-1.466313	-1.205017	0.631825
C	-1.743796	0.329201	-1.9043
H	-2.353747	1.04747	-1.36272
H	-2.225942	-0.633948	-1.744959
H	-1.798069	0.565974	-2.9721
Br	-4.604217	0.0	0.0
