17

C	0.0	0.0	0.0
C	-0.468877	0.313568	-1.417879
Br	1.983093	0.0	0.0
H	-1.556737	0.179522	-1.396317
H	-0.050382	-0.454931	-2.074335
C	-0.429809	1.052025	1.012969
H	-0.098602	0.762907	2.014718
H	-1.523821	1.084519	0.99069
H	-0.019847	2.03868	0.788402
N	-0.448064	-1.333974	0.321601
H	-1.465024	-1.31689	0.203638
H	-0.268025	-1.515808	1.304368
C	-0.151815	1.708526	-1.939124
H	-0.699797	2.471481	-1.382506
H	-0.46146	1.788585	-2.984654
H	0.916461	1.932439	-1.884036
Br	-3.915347	0.0	0.0
