17
Coordinates from ORCA-job run
  C   0.92367851908877     -0.35818669736695     -0.40046390859842
  C   -0.51897629865404     -0.39413560678864      0.08291317710896
  F   1.15052717972719     -1.36543992001835     -1.28825740316405
  H   -0.64818621819654     -1.41583941519150      0.46048431895040
  N   1.84056378933512     -0.62005563492847      0.79678223507030
  O   2.36635020017358      0.35505384454840      1.32022522302168
  O   1.90403729365142     -1.78600928974291      1.15826240002493
  C   1.30141361628342      0.92046987408678     -1.00940996546677
  N   1.53017488127975      1.94188862121567     -1.54262133138844
  C   -1.45980583846962     -0.16515808777808     -1.09807399062242
  H   -2.49073976339621     -0.32538269374591     -0.77581821124552
  H   -1.25057477758953     -0.85317405618260     -1.91828844700648
  H   -1.37910366952356      0.85939559338090     -1.47060201246968
  C   -0.76002775942849      0.60887160420380      1.20763234174007
  H   -1.81457351276088      0.58461307541469      1.48883823768944
  H   -0.52145926002045      1.62644934713259      0.88726120728122
  H   -0.17329838149991      0.38563944176055      2.10013612907479
