17
Coordinates from ORCA-job run
  C   0.91648361674735     -0.36303048905468     -0.41323736540054
  C   -0.52171405392323     -0.39020694127773      0.08433358102810
  F   1.12516922391506     -1.36422375949119     -1.31241851644982
  H   -0.65717625979984     -1.41453918873858      0.45241155044435
  N   1.84259255425246     -0.64357412555059      0.77194934238254
  O   1.89558477308171     -1.81271303036501      1.12475252552362
  O   2.38495153602242      0.32150582453916      1.29706801118862
  C   1.29848233280261      0.91773099148934     -1.01522668127682
  N   1.53046183656623      1.94093171590546     -1.54359882551240
  C   -1.47199358636472     -0.13926925170812     -1.08444186719658
  H   -2.50120096764798     -0.29422657999228     -0.75406254253360
  H   -1.38574218284047      0.88868733311913     -1.44614821750220
  H   -1.27675809529547     -0.81965403239891     -1.91450775519537
  C   -0.74124513450342      0.60275293742599      1.22219887441381
  H   -0.49991725966445      1.62207193297365      0.90925371940575
  H   -0.14475262411866      0.36606774732685      2.10469517472920
  H   -1.79222570922960      0.58268891579752      1.51697899195136
