17
Coordinates from ORCA-job run
  C   0.93835438145634     -0.01370064102698     -0.60676644954426
  C   -0.53765429924184      0.29523027314229     -0.35825371651325
  F   1.09847829449894     -0.53341574622515     -1.85171626118176
  H   -0.80274286652602      0.92471684846847     -1.21754584051206
  N   1.41016277481387     -1.07957236776811      0.38639333660517
  O   1.44952561720582     -2.23139555093880     -0.01572123323846
  O   1.64702790552406     -0.67167731850491      1.51756111432601
  C   1.81446693927451      1.15209892706759     -0.45598492101603
  N   2.48400273749288      2.11438161601681     -0.38183946161057
  C   -0.78501160256327      1.08576263791530      0.92311844742943
  H   -0.20527164260792      2.01028193889735      0.95477613945423
  H   -0.53912848162191      0.49741326612049      1.80802681926231
  H   -1.84341763485371      1.35034385598926      0.97386752437443
  C   -1.36640290279091     -0.98716363196901     -0.41247979224837
  H   -1.20882920685006     -1.59706625524886      0.48059192921596
  H   -2.42605074795523     -0.72730785249113     -0.45414712805663
  H   -1.12650926525554     -1.58992999944460     -1.28888050674612
