17
Coordinates from ORCA-job run
  C   0.94397859285305     -0.02351835721226     -0.59733201898735
  C   -0.53229103901163      0.29699557117082     -0.36521303385936
  F   1.11277136213174     -0.55100172733679     -1.83792742435110
  H   -0.78450634831931      0.92290883730081     -1.23098143677886
  N   1.39853329344934     -1.08740618743948      0.40612168663663
  O   1.62710119752406     -0.67497887804992      1.53732917899868
  O   1.43383298444973     -2.24159947720175      0.01053706297016
  C   1.82710233802544      1.13662881542999     -0.44421225862892
  N   2.50296634048524      2.09427636870175     -0.36731125485552
  C   -0.78646976907076      1.09672095185340      0.90907772519695
  H   -0.20151762222196      2.01793765851355      0.94003034067895
  H   -1.84364697362857      1.36777580164595      0.94905003839758
  H   -0.55197681132195      0.51249790246760      1.79977015785722
  C   -1.36931529455892     -0.97998160588957     -0.42062951932105
  H   -2.42673881070392     -0.71277196893736     -0.47062944696320
  H   -1.12753447866715     -1.58757875740965     -1.29336578431475
  H   -1.22228896141445     -1.58790494760706      0.47568598732395
