17
Coordinates from ORCA-job run
  C   0.93872257614135     -0.27348923542233     -0.21161911165867
  C   -0.46603284988667      0.30189076649599     -0.06506275121846
  F   0.93884071500519     -1.61752721718489     -0.02956831772947
  H   -0.36905681612642      1.37786051340296     -0.24399217809957
  N   1.82224362205112      0.33925016004113      0.88117343196362
  O   2.17803312629761     -0.39136256758567      1.79092241861702
  O   2.03390977353223      1.53775829738799      0.74986543098708
  C   1.55934518695878      0.04611686488931     -1.50183857227752
  N   2.01435992778832      0.29146302412529     -2.55656440258420
  C   -0.99184850457617      0.06568391645786      1.34973099051841
  H   -2.02272705933445      0.41891814667919      1.41356370640768
  H   -0.41230223943475      0.60453485588819      2.10195115271079
  H   -0.97947888657638     -0.99717027477344      1.59909075506960
  C   -1.38034638978543     -0.31270000243751     -1.12322251045811
  H   -1.01507118914427     -0.12799140905763     -2.13606711854102
  H   -2.37657550245449      0.12655239190826     -1.04209344781176
  H   -1.47201549045555     -1.39078823081471     -0.97726947589545
