18
Coordinates from ORCA-job run
  C   0.74988636964914      0.24727931267871      0.69397185509645
  C   -0.74221717964826      0.17453632109420      0.29063567517917
  H   0.83618062826576     -0.15341022099319      1.71227007685869
  H   -1.28136076413842      0.80815767692493      1.00638342317678
  C   1.17273721709387      1.65009017102751      0.75670675132693
  N   1.49763149712192      2.77851082293507      0.78324012224250
  C   1.70084091234166     -0.53778558729889     -0.21723520471069
  H   2.72250200464203     -0.47760432896860      0.16279975734333
  H   1.41615845689684     -1.59034938511531     -0.25412638056232
  H   1.69712177964961     -0.13681364228903     -1.23161725524817
  C   -1.28007658194626     -1.24817796824182      0.42964542745530
  H   -1.07401805082249     -1.66128444504835      1.42146209799718
  H   -0.84580043654930     -1.91736489096828     -0.31737062681913
  H   -2.36325033692393     -1.25668483772448      0.28365064174441
  C   -0.99483561693981      0.72686825398198     -1.10987480810910
  H   -0.58841704275876      1.73475418188314     -1.22637482576953
  H   -2.06927383823740      0.77608136220149     -1.30455082952012
  H   -0.55280901769621      0.08519720392092     -1.87661589768169
