18
Coordinates from ORCA-job run
  C   0.84096178465462     -0.17996377834330      0.48424517448514
  C   -0.55025059200808     -0.46665666058817     -0.12130455922992
  H   1.01937735221459     -0.92792604148685      1.26739220695429
  H   -0.47619128120008     -1.46582137497090     -0.57170484522311
  C   0.84436288375548      1.13073995679393      1.14254368079077
  N   0.83451361091226      2.19312962835688      1.64348151055428
  C   1.98588987693950     -0.26256510504612     -0.53157816723720
  H   1.94361633446575     -1.21985860085349     -1.05729057069628
  H   2.95256236983976     -0.18742325003207     -0.02966305863112
  H   1.92509011413941      0.54172667234633     -1.26547791914781
  C   -0.92624914745059      0.53301989849464     -1.21165899343350
  H   -0.95016249176334      1.55139867655524     -0.81241585370558
  H   -1.92124860792228      0.30528814121810     -1.60260110924873
  H   -0.23051527823581      0.51037411186015     -2.05287516871786
  C   -1.61549059250055     -0.50676207759539      0.97163623263253
  H   -2.58225973247128     -0.80168232237390      0.55565850081956
  H   -1.73541663810763      0.47703416875798      1.43419954667865
  H   -1.35558996526173     -1.22205204309306      1.75741339235588
