18
Coordinates from ORCA-job run
  C   0.75834749114185      0.25036783846277      0.68126131758082
  C   -0.73832194117606      0.18186821966282      0.29568638912827
  H   0.85516514112129     -0.14329281417646      1.70145073111377
  H   -1.26564301713212      0.83077288422554      1.00636714712852
  C   1.18900609237263      1.65196356237103      0.73038734781775
  N   1.52284137366073      2.77728683423786      0.74863242454794
  C   1.69567492284178     -0.54413988842831     -0.23615317018351
  H   2.72006763018419     -0.49371261478756      0.13800242855256
  H   1.68975803627433     -0.14232153992334     -1.25034941365723
  H   1.40080400862303     -1.59410286907166     -0.27222850974566
  C   -1.28448688641351     -1.23433046290624      0.46490817409914
  H   -1.07723269630237     -1.62847713701404      1.46409445042440
  H   -2.36825169916984     -1.23887020976934      0.32309897735394
  H   -0.85721786762373     -1.92123826735643     -0.26982188712290
  C   -1.00167037509800      0.71210140762400     -1.11122353360633
  H   -2.07755324380049      0.76905209805764     -1.29494016581498
  H   -0.58649330672190      1.71339450203068     -1.24999381672319
  H   -0.57479366278181      0.05267845676102     -1.87117889089332
