18

C	0.0	0.0	0.0
C	-0.579746	0.037161	-1.4221
Cl	1.794488	0.0	0.0
H	-1.631854	-0.262858	-1.301148
C	-0.494547	1.180052	0.829375
H	-0.10485	2.113171	0.421675
H	-1.588367	1.166728	0.807409
H	-0.14265	1.067608	1.855873
C	-0.361793	-1.245596	0.694502
N	-0.586385	-2.199964	1.341487
N	0.08168	-1.027315	-2.247709
O	0.834008	-0.680689	-3.159505
O	-0.166095	-2.193332	-1.945799
C	-0.489757	1.383844	-2.100005
H	0.520406	1.79445	-2.072834
H	-1.189787	2.060449	-1.610553
H	-0.792243	1.285892	-3.142706
Cl	-3.657676	0.0	0.0
