18

C	0.0	0.0	0.0
C	-0.579237	0.008169	-1.423348
Cl	1.795017	0.0	0.0
H	-1.627472	-0.304218	-1.299458
C	-0.487637	1.20011	0.805295
H	-0.12933	1.109605	1.831904
H	-0.095156	2.122437	0.375521
H	-1.581372	1.19285	0.790271
C	-0.367685	-1.227045	0.723755
N	-0.571515	-2.164483	1.402053
N	0.100059	-1.058758	-2.23194
O	0.807901	-0.71706	-3.180098
O	-0.089017	-2.221117	-1.879588
C	-0.508779	1.346348	-2.12057
H	0.497632	1.768411	-2.102861
H	-0.813204	1.230317	-3.16057
H	-1.2155	2.020876	-1.63777
Cl	-3.639763	0.0	0.0
