18

C	0.0	0.0	0.0
C	-0.426912	0.164812	-1.479427
Cl	1.797153	0.0	0.0
H	-0.01645	-0.68221	-2.03132
C	-0.566254	1.014565	0.980146
H	-0.204174	0.783306	1.983338
H	-0.260873	2.020103	0.69956
H	-1.659219	0.941889	0.972286
C	-0.400977	-1.354032	0.395228
N	-0.678019	-2.453101	0.705349
N	0.26488	1.345612	-2.095811
O	0.069511	2.452913	-1.599156
O	0.954976	1.129846	-3.09129
C	-1.917884	0.307743	-1.690498
H	-2.128904	0.284892	-2.762519
H	-2.299591	1.237805	-1.273756
H	-2.487713	-0.486625	-1.206848
Cl	-4.72317	0.0	0.0
