18

C	0.0	0.0	0.0
C	-0.580816	-0.063088	-1.421345
Cl	1.794975	0.0	0.0
H	-1.632026	-0.358935	-1.281509
C	-0.491743	1.236188	0.745286
H	-0.101672	2.137702	0.271957
H	-0.136932	1.196136	1.776172
H	-1.58535	1.223335	0.726238
C	-0.363955	-1.193809	0.779288
N	-0.582734	-2.112232	1.478203
N	0.088852	-1.176681	-2.171902
O	-0.152336	-2.321019	-1.793005
O	0.84454	-0.887393	-3.101061
C	-0.494735	1.23607	-2.188562
H	-1.202178	1.939028	-1.750141
H	0.514013	1.652178	-2.182961
H	-0.788879	1.066158	-3.224303
Cl	-3.649649	0.0	0.0
