18

C	0.0	0.0	0.0
C	-0.376904	0.129979	-1.502273
Cl	1.793108	0.0	0.0
H	0.299124	-0.526177	-2.052428
C	-0.595512	1.016736	0.957304
H	-0.295952	0.761503	1.975024
H	-0.256925	2.022443	0.717305
H	-1.686288	0.963849	0.879772
C	-0.388508	-1.357053	0.405204
N	-0.637332	-2.462963	0.717285
N	-0.007783	1.498029	-1.99125
O	-0.661689	2.450112	-1.571301
O	0.904564	1.574408	-2.815235
C	-1.819351	-0.163692	-1.859441
H	-1.985321	0.172363	-2.887234
H	-1.996876	-1.238793	-1.80795
H	-2.5561	0.308219	-1.210445
Cl	-4.566081	0.0	0.0
