18

C	0.0	0.0	0.0
C	-0.417827	0.107698	-1.486438
Cl	1.796966	0.0	0.0
H	0.023649	-0.742674	-2.009004
C	-0.57157	1.042833	0.947294
H	-0.202053	0.847671	1.955478
H	-0.274499	2.040362	0.632938
H	-1.663246	0.965486	0.948894
C	-0.39622	-1.342961	0.438469
N	-0.678145	-2.431062	0.781831
N	0.246133	1.289361	-2.13425
O	0.943251	1.06175	-3.122133
O	0.020608	2.404708	-1.67062
C	-1.909084	0.20008	-1.716641
H	-2.452127	-0.622647	-1.2524
H	-2.096455	0.189073	-2.79473
H	-2.331645	1.109106	-1.295849
Cl	-4.69443	0.0	0.0
