7
Coordinates from ORCA-job run
  C   -1.04291478212845      0.13785467610290     -0.10639633705599
  C   0.19416289116937      0.19490781291538      0.41037268193837
  H   -1.87664620849054      0.59352888810719      0.41427086071773
  H   -1.24241844061683     -0.35815654631486     -1.04948445914356
  H   0.38672878847418      0.69475008816921      1.35446359817019
  C   1.32362865135719     -0.39212755146562     -0.24618086007481
  N   2.25745910023507     -0.87075736751421     -0.77604548455193
