7
Coordinates from ORCA-job run
  C   -1.04316303502399      0.13651434795181     -0.10570420528004
  C   0.19683043866730      0.20872645790507      0.40210808870395
  H   -1.87394639997384      0.60754316359614      0.40593634108517
  H   -1.24858723293153     -0.39031364005878     -1.03063638392010
  H   0.39478593590419      0.73660490667960      1.32967917797816
  C   1.32185424155464     -0.40135086333706     -0.24093236184370
  N   2.25222605180323     -0.89772437273678     -0.76045065672344
