7
Coordinates from ORCA-job run
  C   -1.02859370588948      0.18206825825779     -0.16487787647425
  C   0.10635765884624     -0.20676837955355      0.43654382107564
  H   -1.02286743954768      0.62896024053150     -1.15265289344942
  H   -1.98382571056357      0.05734047760621      0.33107050877849
  H   0.09545152325180     -0.65257397711310      1.42629023763451
  C   1.38810131273303     -0.06112164460299     -0.18640207328767
  N   2.44437636116965      0.05109502487413     -0.68997172427731
