7
Coordinates from ORCA-job run
  C   -1.01795139817515      0.25824015017804     -0.12054855691003
  C   0.17434763964010      0.05241881268756      0.46001005906565
  H   -1.17516344291865      0.07074686451857     -1.17659677188613
  H   -1.85694516645624      0.62031371714390      0.46132606515900
  H   0.32584645989711      0.24196871770854      1.51801404354490
  C   1.30745626212258     -0.42612906280159     -0.27422184652115
  N   2.24340964589026     -0.81755919943502     -0.86798299245223
