7
Coordinates from ORCA-job run
  C   -1.02849037476617      0.17854781217355     -0.16607865781706
  C   0.10601480608151     -0.21405360783097      0.43350962628763
  H   -1.02210730169679      0.63724304717237     -1.14836460704368
  H   -1.98461946338480      0.04339017303927      0.32513321207797
  H   0.09351660429337     -0.67282301138990      1.41706309097583
  C   1.38908193552825     -0.05143051471898     -0.18221680442276
  N   2.44660379394463      0.07912610155465     -0.67904586005793
