7
Coordinates from ORCA-job run
  C   -1.02535970954734      0.21559985596894     -0.14275642906171
  C   0.09692765787806     -0.30748662391512      0.37471932661769
  H   -1.99111618850543     -0.02384894357343      0.28603770408289
  H   -0.99957406614814      0.88826142293076     -0.99254713146851
  H   0.06419290453134     -0.97871582651376      1.22710047366452
  C   1.39290325327015     -0.01412023531106     -0.16074624013110
  N   2.46102614852137      0.22031035041366     -0.59180770370377
