7
Coordinates from ORCA-job run
  C   -1.02762576062681      0.21424728138136     -0.12533480855694
  C   0.10694708935587     -0.28166599574935      0.39209298577126
  H   -1.98147936386578      0.01029493800134      0.34629504457753
  H   -1.02307847433289      0.82649383981599     -1.01983604722957
  H   0.09701890560052     -0.89430038819413      1.28814247190886
  C   1.38724001730388     -0.03540040408370     -0.20145394299036
  N   2.44297758656521      0.16033072882850     -0.67990570348077
