16

C	0.0	0.0	0.0
C	-0.544698	0.105331	-1.430012
F	1.366687	0.0	0.0
H	-1.602915	-0.188556	-1.388061
N	-0.479457	1.131819	0.739105
H	-1.506521	1.098215	0.688178
H	-0.219295	1.010885	1.712555
C	-0.363784	-1.294514	0.644999
N	-0.562946	-2.261905	1.280721
N	0.100926	-0.924567	-2.337726
O	-0.006055	-0.712677	-3.541055
O	0.609108	-1.925238	-1.835991
N	-0.314086	1.410203	-1.973609
H	-0.200498	2.054913	-1.200063
H	-1.117529	1.694633	-2.515899
Br	-3.660759	0.0	0.0
