16

C	0.0	0.0	0.0
C	-0.454191	-0.203519	-1.455201
F	1.387697	0.0	0.0
H	-1.54937	-0.221872	-1.477233
N	-0.514595	1.215775	0.508332
H	-1.501132	1.278516	0.238128
H	-0.493215	1.186519	1.521359
C	-0.329301	-1.195646	0.825994
N	-0.468919	-2.111301	1.549132
N	-0.023212	-1.620648	-1.878456
O	-0.839524	-2.526102	-1.733062
O	1.106683	-1.746713	-2.352592
N	0.120864	0.801822	-2.267332
H	1.129756	0.739898	-2.234079
H	-0.197616	0.735032	-3.222966
Br	-3.704981	0.0	0.0
