16

C	0.0	0.0	0.0
C	-0.421645	-0.123939	-1.475205
F	1.422285	0.0	0.0
H	-1.501936	-0.308492	-1.472108
N	-0.477885	1.178377	0.617844
H	-0.452045	1.910894	-0.085372
H	-1.463327	1.019812	0.84581
C	-0.362195	-1.178796	0.813324
N	-0.522039	-2.078962	1.549288
N	0.241677	-1.357301	-2.078247
O	1.174576	-1.18444	-2.863563
O	-0.195048	-2.448193	-1.725072
N	-0.082604	1.069254	-2.172146
H	0.895051	1.048765	-2.434242
H	-0.651511	1.166212	-3.001268
Br	-3.626097	0.0	0.0
