16

C	0.0	0.0	0.0
C	-0.550229	-0.255035	-1.442563
F	1.374131	0.0	0.0
H	-1.386765	-0.948127	-1.37147
N	-0.466728	1.258659	0.472784
H	-1.490841	1.229418	0.413891
H	-0.218773	1.349691	1.45306
C	-0.335627	-1.147976	0.891148
N	-0.495531	-2.011663	1.671222
N	0.559234	-1.00688	-2.150032
O	1.302789	-0.384564	-2.898156
O	0.656803	-2.201374	-1.871201
N	-0.946298	0.881299	-2.189922
H	-1.930092	1.032295	-1.985208
H	-0.424031	1.699921	-1.905734
Br	-3.599908	0.0	0.0
