16

C	0.0	0.0	0.0
C	-0.462393	0.223966	-1.452332
F	1.410292	0.0	0.0
H	0.300248	-0.192914	-2.118239
N	-0.583967	0.902124	0.896061
H	-0.540679	0.605904	1.858486
H	-0.250741	1.844758	0.75889
C	-0.343234	-1.384663	0.398855
N	-0.47628	-2.484741	0.786546
N	-0.354958	1.751128	-1.794963
O	0.472642	2.442994	-1.199939
O	-1.056975	2.136604	-2.721627
N	-1.714571	-0.340449	-1.676366
H	-2.463132	-0.082499	-1.016567
H	-2.035291	-0.209161	-2.624185
Br	-4.585402	0.0	0.0
