14

C	-0.537639	0.023729	-1.429882
C	0.0	0.0	0.0
Br	0.129442	-1.482603	-2.476414
H	1.098598	0.0	0.0
H	-0.171214	0.91498	-1.947655
C	-1.99706	-0.00095	-1.461225
N	-3.172424	-0.024319	-1.475317
N	-0.484766	-1.151551	0.710024
H	0.226903	-1.459098	1.360735
H	-1.344666	-0.937548	1.201435
N	-0.474196	1.265416	0.613149
H	0.119086	2.001366	0.231731
H	-0.189423	1.202402	1.588514
H	2.871418	0.0	0.0
