14

C	-0.632792	0.004935	-1.390156
C	0.0	0.0	0.0
Br	0.028397	1.47367	-2.486816
H	1.099053	0.0	0.0
H	-1.705344	0.178088	-1.274767
C	-0.438535	-1.241459	-2.124302
N	-0.280709	-2.243651	-2.717252
N	-0.491949	-1.226062	0.673496
H	-0.027541	-2.014846	0.224154
H	-0.064578	-1.186558	1.598581
N	-0.446778	1.178144	0.712224
H	0.323957	1.508294	1.283136
H	-1.238084	0.944044	1.304319
H	2.872118	0.0	0.0
