14

C	-0.438991	0.107344	-1.440596
C	0.0	0.0	0.0
Br	-2.40641	-0.085929	-1.673756
H	1.108549	0.0	0.0
H	-0.015699	-0.738431	-1.982251
C	-0.055548	1.361594	-2.079053
N	0.242422	2.377352	-2.590547
N	-0.390422	-1.29295	0.522782
H	-1.224584	-1.17178	1.087136
H	0.367073	-1.622332	1.112137
N	-0.519142	1.102622	0.819606
H	-0.461213	1.969138	0.289197
H	0.161663	1.213168	1.568845
H	2.802435	0.0	0.0
