14

C	-0.518782	0.03629	-1.433821
C	0.0	0.0	0.0
Br	-0.091305	-1.586428	-2.462033
H	1.100246	0.0	0.0
H	0.004816	0.845588	-1.94286
C	-1.960483	0.250047	-1.501363
N	-3.119731	0.436463	-1.551741
N	-0.575517	-1.127131	0.741658
H	-0.331279	-1.98118	0.246911
H	-0.042591	-1.170225	1.609035
N	-0.40064	1.268559	0.582742
H	-1.234946	1.131863	1.14124
H	0.359088	1.600119	1.165633
H	2.8818	0.0	0.0
