14

C	-0.564842	0.048158	-1.419707
C	0.0	0.0	0.0
Br	0.025708	1.639768	-2.397401
H	1.094209	0.0	0.0
H	-1.652251	0.153853	-1.358346
C	-0.246819	-1.128436	-2.222922
N	-0.04352	-2.083329	-2.876314
N	-0.417393	-1.2473	0.651831
H	0.436484	-1.759492	0.855212
H	-0.980223	-1.836176	0.049655
N	-0.51396	1.161945	0.725507
H	-0.950015	0.79398	1.562419
H	0.292424	1.707262	1.01583
H	2.839041	0.0	0.0
