8
Coordinates from ORCA-job run
  C   -1.16526974042111      0.07538643496862     -0.39242861542797
  C   -0.11848335779996      0.31917002091088      0.39023729566393
  H   -2.12193271536102      0.53174121005918     -0.17179896819467
  H   -1.07557928030652     -0.57529878659867     -1.25294707968903
  H   -0.09832628906061      0.94964282917142      1.26886158779741
  N   1.18890686964048     -0.28571123753118      0.11297521483234
  O   1.30513395294960     -1.02495815374029     -0.85837450925645
  O   2.08555056035914      0.01002768276005      0.90347507427443
