8
Coordinates from ORCA-job run
  C   -1.22918826698594     -0.00017141115357     -0.08451985688079
  C   -0.00896693059331      0.51763306892336      0.02039084578409
  H   -1.37274063261959     -1.07182735916819     -0.13789218345426
  H   -2.09136508163735      0.65363792491782     -0.11874138623619
  H   0.24773904861457      1.56668114518483      0.07924963737449
  N   1.17618063301803     -0.34577458531324      0.06738692737014
  O   1.02560400876842     -1.56124328621880      0.00963300546711
  O   2.25373722143518      0.24206450282780      0.16449301057541
