8
Coordinates from ORCA-job run
  C   -1.16481613620429      0.06519677822056     -0.39638258142081
  C   -0.11844034861846      0.33221215030545      0.37941915583641
  H   -2.12071919207590      0.53043294900077     -0.19170434113181
  H   -1.07450348055120     -0.61317596997943     -1.23517978408471
  H   -0.09787616881769      0.98974911652144      1.23796372490828
  N   1.18812043944616     -0.28403254360747      0.12354362275402
  O   1.30291354265139     -1.05816058672765     -0.82035489470019
  O   2.08532134417000      0.03877810626631      0.90269509783881
