18

C	0.0	0.0	0.0
C	-0.333197	0.166966	-1.531088
F	1.407972	0.0	0.0
H	0.59374	-0.180545	-1.999314
N	-0.471593	1.100052	0.793685
H	-0.259362	0.884149	1.764807
H	-1.495663	0.996463	0.678424
N	-0.431602	-1.315148	0.422723
H	-0.148985	-1.427099	1.394331
H	-1.455254	-1.196642	0.412838
C	-0.540921	1.625057	-1.90858
H	-1.481866	1.984669	-1.487517
H	-0.594413	1.698657	-2.998427
H	0.271018	2.2523	-1.533255
N	-1.413756	-0.633602	-2.085043
H	-1.173716	-1.603802	-1.91492
H	-2.226025	-0.432173	-1.484318
F	-2.879384	0.0	0.0
