18

C	0.0	0.0	0.0
C	-0.403413	-0.104955	-1.478905
F	1.399668	0.0	0.0
H	-1.492849	-0.005111	-1.440746
N	-0.448063	1.224317	0.61342
H	-0.241135	1.966893	-0.050154
H	-1.472061	1.081536	0.581487
N	-0.494304	-1.144273	0.711232
H	-0.324707	-0.94066	1.693553
H	-1.518311	-1.025324	0.566636
C	0.003287	-1.43801	-2.099956
H	-0.457465	-2.271356	-1.568457
H	-0.298429	-1.474494	-3.154372
H	1.090538	-1.562597	-2.046497
N	0.167735	1.054257	-2.185913
H	1.163564	0.893025	-2.298404
H	-0.238403	1.097157	-3.113747
F	-2.857263	0.0	0.0
