18

C	0.0	0.0	0.0
C	-0.435812	-0.008236	-1.476552
F	1.380379	0.0	0.0
H	-1.526143	-0.074893	-1.420319
N	-0.476989	1.231004	0.598893
H	-1.502486	1.078272	0.531242
H	-0.225264	1.211039	1.583985
N	-0.479248	-1.212811	0.620384
H	-0.247662	-1.158762	1.609802
H	-1.504186	-1.073807	0.537217
C	0.150616	-1.194491	-2.224985
H	-0.158219	-2.1362	-1.76963
H	-0.186078	-1.173034	-3.267667
H	1.240741	-1.128155	-2.220879
N	0.020194	1.24277	-2.122288
H	-0.688445	1.499332	-2.802105
H	-0.014545	1.953832	-1.396812
F	-2.864764	0.0	0.0
