18

C	0.0	0.0	0.0
C	-0.386117	0.013615	-1.533125
F	1.404975	0.0	0.0
H	0.569932	-0.136288	-2.049373
N	-0.432011	1.11475	0.808263
H	-1.456532	1.026259	0.748376
H	-0.170551	1.980345	0.348571
N	-0.443866	-1.228749	0.598472
H	-1.467715	-1.130002	0.54612
H	-0.194797	-1.146773	1.580439
C	-0.994645	1.338125	-1.981201
H	-0.344326	2.197173	-1.78827
H	-1.183759	1.283801	-3.056088
H	-1.945498	1.454167	-1.458024
N	-1.302638	-1.040821	-1.966031
H	-2.151063	-0.848698	-1.418419
H	-0.93291	-1.913124	-1.602483
F	-2.864042	0.0	0.0
