18

C	0.0	0.0	0.0
C	-0.387154	0.195791	-1.472927
F	1.423335	0.0	0.0
H	-1.476357	0.293352	-1.429231
N	-0.436865	1.079057	0.843576
H	-1.461089	0.954749	0.787912
H	-0.22065	1.938319	0.3456
N	-0.497275	-1.258476	0.463711
H	-1.521246	-1.104277	0.345994
H	-0.327398	-1.259364	1.467072
C	0.019102	-0.988972	-2.34315
H	1.10374	-1.134018	-2.299963
H	-0.45786	-1.906012	-1.997472
H	-0.266976	-0.808712	-3.386565
N	0.196655	1.468878	-1.926683
H	-0.181137	1.687231	-2.841566
H	1.196128	1.329965	-2.037044
F	-2.848946	0.0	0.0
