18

C	0.0	0.0	0.0
C	-0.214166	-0.324313	-1.531937
F	1.39504	0.0	0.0
H	0.293917	-1.295067	-1.61714
N	-0.494181	1.314899	0.321565
H	-1.51487	1.166294	0.239133
H	-0.310252	1.480332	1.309044
N	-0.48795	-1.082556	0.813721
H	-0.274581	-0.854394	1.782956
H	-1.509353	-0.970891	0.7066
C	0.548083	0.692782	-2.383395
H	0.088925	1.676162	-2.260037
H	0.465489	0.393636	-3.432189
H	1.599551	0.771346	-2.115595
N	-1.552355	-0.451174	-2.095482
H	-2.231572	-0.544085	-1.323773
H	-1.792964	0.457735	-2.480188
F	-2.97507	0.0	0.0
