15

C	-0.626177	-0.035649	-1.369098
C	0.0	0.0	0.0
F	-2.011859	0.005929	-1.238934
H	1.087854	0.0	0.0
H	-0.318759	-0.907128	0.517628
N	-0.291199	1.157992	-2.255836
O	0.636547	1.881025	-1.933721
O	-0.964162	1.232279	-3.282753
N	-0.188312	-1.15296	-2.091841
H	-0.731401	-1.274641	-2.936574
H	-0.148659	-1.991674	-1.53525
N	-0.513384	1.107112	0.844908
O	-0.99765	2.096444	0.304863
O	-0.405763	0.945216	2.056772
Cl	3.290127	0.0	0.0
