15

C	-0.649481	0.003824	-1.364078
C	0.0	0.0	0.0
F	-0.26086	1.18913	-1.986928
H	1.087697	0.0	0.0
H	-0.345311	0.887382	0.5316
N	-0.10674	-1.06378	-2.313509
O	-0.891705	-1.477998	-3.167952
O	1.075271	-1.342893	-2.21334
N	-2.039098	-0.158082	-1.292034
H	-2.443353	-0.26086	-2.212334
H	-2.464522	0.597626	-0.773007
N	-0.495513	-1.167734	0.768076
O	-1.015684	-0.951455	1.862465
O	-0.354485	-2.273688	0.256664
Cl	3.378648	0.0	0.0
