15

C	-0.573042	0.002785	-1.397609
C	0.0	0.0	0.0
F	0.07876	0.965985	-2.113139
H	1.085687	0.0	0.0
H	-0.33486	0.915164	0.492393
N	-0.183724	-1.301108	-2.146759
O	0.633035	-2.051021	-1.637517
O	-0.733029	-1.45369	-3.2366
N	-1.955427	0.256467	-1.482761
H	-2.443644	-0.424853	-0.91691
H	-2.24316	0.163996	-2.450004
N	-0.496733	-1.121205	0.83665
O	-1.441694	-1.802184	0.417704
O	0.043385	-1.279842	1.920328
Cl	3.316431	0.0	0.0
