14

C	-0.25954	-0.064536	-1.509381
C	0.0	0.0	0.0
F	0.008737	1.213649	-2.011102
H	1.094048	0.0	0.0
H	-0.419543	0.921659	0.408732
C	0.713155	-1.036962	-2.149038
H	0.681787	-0.94354	-3.237337
H	1.695657	-0.780117	-1.731177
H	0.461315	-2.061127	-1.863348
C	-1.666728	-0.346467	-1.86642
N	-2.782242	-0.574879	-2.157262
C	-0.523492	-1.163475	0.685781
N	-0.945138	-2.113234	1.236083
F	2.605389	0.0	0.0
