14

C	-0.247457	0.093012	-1.500872
C	0.0	0.0	0.0
F	-1.590028	0.369604	-1.818576
H	1.093778	0.0	0.0
H	-0.40639	-0.918816	0.428121
C	0.658168	1.156132	-2.093351
H	0.337024	2.130455	-1.716953
H	1.664889	0.939159	-1.716723
H	0.611226	1.155072	-3.184064
C	0.044325	-1.223989	-2.103546
N	0.246042	-2.278818	-2.578469
C	-0.531267	1.158623	0.689472
N	-0.953328	2.098151	1.255906
F	2.591001	0.0	0.0
