14

C	-0.428114	0.009837	-1.461462
C	0.0	0.0	0.0
F	-0.011358	-1.201326	-2.017917
H	1.093124	0.0	0.0
H	-0.362255	-0.934857	0.440961
C	-1.926307	0.110393	-1.699344
H	-2.41619	-0.713159	-1.174161
H	-2.143402	0.03443	-2.767297
H	-2.312213	1.056672	-1.317287
C	0.256061	1.092579	-2.201453
N	0.696604	1.974814	-2.83859
C	-0.553027	1.130417	0.714048
N	-1.007005	2.050479	1.289996
F	2.530009	0.0	0.0
