14

C	-0.273879	-0.05788	-1.503916
C	0.0	0.0	0.0
F	-0.062663	1.216669	-2.036091
H	1.093909	0.0	0.0
H	-0.329723	-0.935103	0.464065
C	0.730148	-1.005557	-2.141716
H	0.496959	-2.039268	-1.87124
H	1.705876	-0.734662	-1.713536
H	0.703634	-0.902203	-3.228535
C	-1.671369	-0.414479	-1.836103
N	-2.769316	-0.744343	-2.096755
C	-0.629145	1.128736	0.651637
N	-1.139683	2.03566	1.197316
F	2.610858	0.0	0.0
