14

C	-0.258773	-0.043135	-1.509693
C	0.0	0.0	0.0
F	0.016363	1.240306	-1.993905
H	1.093768	0.0	0.0
H	-0.418798	0.916452	0.421228
C	0.711534	-1.010605	-2.161289
H	0.454563	-2.038263	-1.893029
H	1.69411	-0.763477	-1.737127
H	0.683762	-0.899443	-3.247441
C	-1.666696	-0.314497	-1.872522
N	-2.781149	-0.537298	-2.170297
C	-0.524396	-1.172264	0.669427
N	-0.946039	-2.129717	1.20617
F	2.604266	0.0	0.0
