16

C	-0.447986	-0.05007	-1.46463
C	0.0	0.0	0.0
F	-1.830958	-0.282519	-1.49826
H	1.09525	0.0	0.0
C	-0.229917	1.245648	-2.132806
N	-0.066509	2.27141	-2.679579
C	0.26042	-1.165093	-2.201535
H	-0.084813	-1.204245	-3.237167
H	0.031547	-2.09965	-1.69173
H	1.338547	-0.991654	-2.162551
N	-0.405195	-1.238304	0.659555
H	0.274372	-1.448525	1.378713
H	-1.319915	-1.144198	1.080284
C	-0.518063	1.198602	0.672642
N	-0.972389	2.11464	1.252326
Cl	3.270417	0.0	0.0
