16

C	-0.412117	0.002144	-1.480544
C	0.0	0.0	0.0
F	0.089039	-1.151038	-2.056893
H	1.095308	0.0	0.0
C	-1.885189	-0.067301	-1.596513
N	-3.056194	-0.111899	-1.673384
C	0.164692	1.193536	-2.219858
H	1.24372	1.197727	-2.045782
H	-0.268231	2.127648	-1.858213
H	-0.039304	1.091319	-3.28743
N	-0.475184	-1.19804	0.67076
H	0.238209	-1.514313	1.315055
H	-1.334225	-1.027821	1.178113
C	-0.466932	1.241454	0.633725
N	-0.886215	2.192044	1.184095
Cl	3.286274	0.0	0.0
