16

C	-0.443448	-0.059319	-1.465582
C	0.0	0.0	0.0
F	-1.829348	-0.284787	-1.500585
H	1.095232	0.0	0.0
C	-0.218559	1.23219	-2.139853
N	-0.051994	2.264027	-2.675319
C	0.262167	-1.181052	-2.193676
H	0.025673	-2.113024	-1.681936
H	1.340503	-1.012207	-2.148058
H	-0.075273	-1.222506	-3.231013
N	-0.409487	-1.231991	0.666564
H	-1.331698	-1.136721	1.071033
H	0.259034	-1.431881	1.39988
C	-0.516489	1.204572	0.663895
N	-0.957463	2.119103	1.25611
Cl	3.270285	0.0	0.0
