16

C	-0.382894	-0.079627	-1.490075
C	0.0	0.0	0.0
F	-1.759751	-0.363181	-1.582633
H	1.096111	0.0	0.0
C	-0.177014	1.210861	-2.169532
N	-0.029932	2.240201	-2.716274
C	0.385961	-1.179198	-2.193195
H	1.458116	-0.993507	-2.084715
H	0.142215	-2.13636	-1.72838
H	0.105894	-1.215102	-3.247379
N	-0.418531	-1.172311	0.753942
H	0.325464	-1.853704	0.748083
H	-1.266246	-1.569528	0.374582
C	-0.556125	1.210924	0.611473
N	-1.03031	2.167988	1.100033
Cl	3.277871	0.0	0.0
