12
Coordinates from ORCA-job run
  C   -0.36827069585657     -0.02801036520153     -0.16726529716680
  C   0.96693468382506     -0.15521722014181     -0.24743353811364
  H   1.45585385346942     -0.96952481208759     -0.76657257530177
  C   -1.02153175028240      1.07223504111735      0.47897117943191
  N   -1.69128448529608      1.91448415456664      0.95552268506759
  C   -1.28448937842892     -1.05553453184187     -0.77545460456201
  H   -1.93068750887549     -0.58692901621770     -1.52154466766453
  H   -0.71739705103525     -1.85667728621915     -1.25069497784995
  H   -1.92843345580803     -1.48420776280748     -0.00404221799207
  N   1.91927043438381      0.81093273474592      0.28626144612960
  O   1.53751773258889      1.62245183539577      1.12391579434908
  O   3.06051762131556      0.71599722869144     -0.16766322632743
