12
Coordinates from ORCA-job run
  C   -0.48405378754482      0.33147095747309     -0.20944496996627
  C   0.76787611825883      0.75196334332718      0.06162785156833
  H   1.03790426215044      1.79021099984128      0.20827716621173
  C   -1.48115425996235      1.36400231398140     -0.22336432356227
  N   -2.32298669590605      2.18680473290357     -0.23901864672041
  C   -0.95526309504934     -1.07350379004442     -0.47316951853556
  H   -0.23139583505643     -1.63036829885293     -1.06528837092238
  H   -1.07812475554003     -1.60716550552653      0.47227140654051
  H   -1.91474843223003     -1.04981296923357     -0.98931914250796
  N   1.91774527505026     -0.13640621952143      0.11783430374556
  O   1.73385247732833     -1.33619227241111      0.32011686048353
  O   3.01034872850118      0.40899670806348     -0.03852261633480
