12
Coordinates from ORCA-job run
  C   -0.36753917715789     -0.03307376045397     -0.16067182881285
  C   0.96785124815952     -0.11615886826179     -0.28559621491668
  H   1.46369521642579     -0.90274717862905     -0.83998263288674
  C   -1.03897292587589      1.01933628207635      0.54381832080474
  N   -1.73237280613111      1.81026741752339      1.07181908143398
  C   -1.26865374915641     -1.07116518274853     -0.77380290195781
  H   -1.87122636019779     -1.54780676582310      0.00301141757428
  H   -1.95587705836645     -0.59965631663879     -1.48028397164721
  H   -0.69209572915278     -1.83570997891377     -1.29566759423580
  N   1.91269793408494      0.85265987966217      0.25673870187035
  O   1.50853657282845      1.70625167545690      1.04005385276302
  O   3.07295683453962      0.71780279675019     -0.13543622998928
