12
Coordinates from ORCA-job run
  C   -0.48298808278304      0.32373400673815     -0.08954385359412
  C   0.76593631981879      0.62057813490161      0.32089592371220
  H   1.03455121152103      1.53928310705596      0.82726789632462
  C   -1.48559383559153      1.28995295898253      0.25956574245522
  N   -2.33143376384230      2.06161912140320      0.53309180113822
  C   -0.94796868422267     -0.89473798997649     -0.84027663444137
  H   -1.14458301059164     -1.70818191789150     -0.13742582689416
  H   -0.19119423424564     -1.24574179101894     -1.53885877154558
  H   -1.86943847039784     -0.66753976891291     -1.37611436438612
  N   1.91533098240875     -0.23054383486739      0.05801305404086
  O   3.00231001255086      0.34673949325281      0.03658983143847
  O   1.73507155537522     -1.43616151966703     -0.11020479824824
