12
Coordinates from ORCA-job run
  C   -0.36475842977051      0.01280413183669     -0.23148870108959
  C   0.94651329572756     -0.23918204145550     -0.07906080309142
  H   1.37070967417710     -1.23233759960653     -0.15415042099767
  C   -0.94738095675965      1.31672514362257     -0.10841500427348
  N   -1.57119208572553      2.31181059041774     -0.03097558378144
  C   -1.33340205945888     -1.09550314219167     -0.54650084853657
  H   -0.82255455614165     -2.05568402767375     -0.62611652009997
  H   -2.09408911663345     -1.16068565783984      0.23509742260128
  H   -1.84619624844066     -0.88613195142965     -1.48828109110909
  N   1.95344393185885      0.76457397661631      0.24188199345745
  O   3.06675971667536      0.31160815852319      0.51319316417702
  O   1.64114683449147      1.95100241918043      0.21981639274345
