12
Coordinates from ORCA-job run
  C   -0.49258298689594      0.31479402406723     -0.24478033503379
  C   0.74813053966631      0.79650964790442     -0.05280112104817
  H   0.99677625922390      1.84557976197928      0.06116344669030
  C   -1.53596221124825      1.29518538510096     -0.33540093334689
  N   -2.39778938579333      2.08862571043664     -0.44908930325492
  C   -0.91554079400292     -1.12467018120668     -0.31651085123801
  H   -1.42951351616584     -1.32507913458725     -1.25742161901638
  H   -1.61990982609885     -1.32748987476365      0.49524623967980
  H   -0.06550149478508     -1.79686357172624     -0.23798297317929
  N   1.92748054242125     -0.05142890043870      0.05739053636274
  O   2.04679437758226     -1.02106381049711     -0.68698356821679
  O   2.73861849609648      0.30590094373109      0.91217048160141
