12
Coordinates from ORCA-job run
  C   -0.36859172407367     -0.01488657317827     -0.19946676220805
  C   0.96742757923903     -0.15807017101652     -0.17180342718961
  H   1.46871050129578     -1.08267913903933     -0.42797807216521
  C   -1.05088841324113      1.19807450179350      0.14441544084317
  N   -1.75321545808394      2.10865511432111      0.39500242189064
  C   -1.25999430731764     -1.15749365189045     -0.60674606549485
  H   -1.94997032526776     -1.39995159198814      0.20491666754945
  H   -0.67628529898023     -2.04491932131292     -0.85384317114086
  H   -1.85941910924279     -0.87215188876804     -1.47444162609649
  N   1.90903597000933      0.88571617574955      0.21464932292218
  O   3.08933112871744      0.53261837246144      0.24121872636438
  O   1.48385945694556      2.00608817286807      0.47807654472526
