12
Coordinates from ORCA-job run
  C   -0.49247337565231      0.26529288180820     -0.04537331517268
  C   0.76444258415011      0.74286428504049      0.06025018798175
  H   0.98655742074005      1.77266308900794      0.31102537784988
  C   -1.52122699814320      1.23450316159507      0.21336566365302
  N   -2.38891446721810      2.00188556337768      0.42280076400645
  C   -0.96187692287866     -1.10559593509407     -0.44981291988181
  H   -1.14204998425715     -1.12036236582576     -1.52870378669754
  H   -1.90698494426106     -1.33101916003126      0.04532569424161
  H   -0.22649683914159     -1.86541371085098     -0.20938115166549
  N   1.97602103215649     -0.01788915611735     -0.21919279946323
  O   1.94730053222422     -1.24580602974988     -0.18647815585015
  O   2.96570196228120      0.66987737683992     -0.47182555900182
