12
Coordinates from ORCA-job run
  C   -0.47133628416725      0.27260226507374      0.01225653450712
  C   0.78702177345034      0.51329195104478      0.42483263427304
  H   1.04398872245817      1.21582438433854      1.20767016691334
  C   -1.49474540758992      1.07429502522867      0.62234663220114
  N   -2.37909027294688      1.69653190407857      1.08660824386808
  C   -0.95433118393162     -0.72339453537530     -1.00494722771327
  H   -1.19881030558648     -0.19922620048886     -1.93184184767842
  H   -0.20648927330503     -1.47906120829247     -1.22907977683391
  H   -1.86575024825563     -1.19725531925786     -0.63540608882107
  N   1.94245189193667     -0.21212092197860     -0.08143668608601
  O   2.85438755420551     -0.37900274513741      0.72926245648713
  O   1.94270303373212     -0.57948459923380     -1.25526504111716
