12
Coordinates from ORCA-job run
  C   -0.48651269714641      0.26066070072919      0.02066134248096
  C   0.77100470945826      0.50388021201028      0.43981890421621
  H   1.02077770712703      1.18284102291461      1.24678765909568
  C   -1.50581322595825      1.04531589577164      0.65785471734523
  N   -2.35672058186649      1.69021821681499      1.15296910866186
  C   -0.94466133395834     -0.72264810612263     -1.02042323649114
  H   -1.00765946821367     -0.23223231647387     -1.99530322820849
  H   -0.26014605005911     -1.56155263292537     -1.12055603919930
  H   -1.93998550109432     -1.08326531649191     -0.75720430877822
  N   1.93209113034587     -0.18907481625549     -0.09833336296679
  O   1.89830645950854     -0.58833970446771     -1.26143534661549
  O   2.87931885185689     -0.30480315550373      0.67916379045948
