12
Coordinates from ORCA-job run
  C   -0.49651917628002      0.28576772807872     -0.04793409065387
  C   0.75877230144539      0.71278153200070      0.19194559662724
  H   0.99621347158682      1.64066155999783      0.69722305845815
  C   -1.53629840219087      1.19439598884627      0.34484044224053
  N   -2.41174577846001      1.91854880409986      0.65286858156235
  C   -0.93218931872556     -1.00319965429649     -0.68945592594566
  H   -0.97059085629291     -0.87953190082234     -1.77490999678408
  H   -1.92839257753782     -1.27043355060601     -0.33651089618134
  H   -0.23556194864239     -1.81164463317521     -0.47804739515088
  N   1.94180372709527     -0.06971178079705     -0.12910249036394
  O   1.88654367998215     -0.87475145414018     -1.05823079651667
  O   2.92796487801996      0.15811736081388      0.57131391270818
