12
Coordinates from ORCA-job run
  C   -0.47065690649777      0.35131134750195     -0.14283519845522
  C   0.81963776190224      0.72077752759746     -0.02009967173281
  H   1.14238937685348      1.73184496754444      0.19454504486184
  C   -1.42347481816646      1.42056838722583     -0.04748467473121
  N   -2.22926722792383      2.27589140046875      0.02247714333411
  C   -1.01984544561944     -1.02781615040031     -0.38948595375047
  H   -0.99969427541481     -1.24699249578390     -1.45980680208681
  H   -2.05142715030431     -1.08134711843030     -0.04205694906709
  H   -0.42341336858474     -1.78943660873659      0.10876270692706
  N   1.92698579003666     -0.21973141209615     -0.08112190436456
  O   2.94668721952988      0.13058527971563      0.51286224150459
  O   1.78307904418910     -1.26665512460680     -0.71175598243943
