12
Coordinates from ORCA-job run
  C   -0.36734732508107      0.02954201336679     -0.20611973813867
  C   0.94763531729362     -0.24769055787351     -0.21391055845395
  H   1.36002599933851     -1.14908586550188     -0.64896398061492
  C   -0.93171696648136      1.20558883800177      0.38796882483101
  N   -1.54209159993631      2.10786023168197      0.83342678341848
  C   -1.35956396515891     -0.91043501729222     -0.83665821622983
  H   -1.91438307007130     -0.39433304952004     -1.62374643196522
  H   -2.08286448234472     -1.24634286673975     -0.08977046658533
  H   -0.86165730971988     -1.78102087458954     -1.26498150187412
  N   1.97741620933703      0.59243029630392      0.38529695368210
  O   1.67210463726655      1.70511464982218      0.80277276446498
  O   3.10144255555785      0.08837220234030      0.41668556746547
