12
Coordinates from ORCA-job run
  C   -0.48926145987591      0.30248615075821     -0.05270915634628
  C   0.76192114796851      0.60331890915270      0.34776091321245
  H   1.01905365183639      1.48837488532087      0.91615301272570
  C   -1.50764706394042      1.21001458359275      0.39440469476740
  N   -2.36578802468112      1.93460638932169      0.74701358846954
  C   -0.94108169169602     -0.86836538072377     -0.88273688756881
  H   -1.88128525197660     -0.62743306146538     -1.37861714096105
  H   -1.09947611705113     -1.73723893590573     -0.23912258561790
  H   -0.19355833778086     -1.14499813873963     -1.62340939754358
  N   1.92610871485713     -0.19171966095528     -0.00864387620205
  O   1.77434732376269     -1.38656912518968     -0.26076228127280
  O   2.99566710857735      0.41752338483325     -0.01633088366261
