15

C	0.0	0.0	0.0
C	-0.317458	-0.46094	-1.456437
Cl	1.779712	0.0	0.0
H	0.062271	-1.48994	-1.456186
H	0.339795	0.118842	-2.10589
N	-0.320861	1.518584	0.180185
O	-0.392494	2.220892	-0.821987
O	-0.438001	1.912962	1.335992
N	-0.603238	-0.779187	0.98559
H	-0.406656	-0.38808	1.901112
H	-1.629431	-0.690377	0.809906
N	-1.654971	-0.41337	-1.987392
H	-2.357665	-0.529268	-1.232036
H	-1.831161	0.535455	-2.29639
H	-3.252902	0.0	0.0
