15

C	0.0	0.0	0.0
C	-0.258098	-0.120363	-1.505942
Cl	1.866186	0.0	0.0
H	0.216495	0.736335	-1.988761
H	-1.337423	-0.04868	-1.630825
N	-0.646396	1.185281	0.56986
O	-0.588072	2.221817	-0.163076
O	-0.607808	1.244507	1.839459
N	-0.368073	-1.160464	0.735374
H	0.163176	-1.942143	0.376917
H	-0.164743	-0.9721	1.710294
N	0.207753	-1.4231	-1.997247
H	-0.372539	-1.70617	-2.77553
H	1.158641	-1.339023	-2.330513
H	-2.171693	0.0	0.0
