15

C	0.0	0.0	0.0
C	-0.521492	0.460339	-1.389066
Cl	1.825119	0.0	0.0
H	-1.242331	1.254998	-1.190474
H	0.316025	0.867538	-1.95588
N	-0.220386	1.177141	1.038274
O	-0.329302	0.844287	2.213597
O	-0.203663	2.33069	0.627305
N	-0.580774	-1.177862	0.437282
H	-1.620291	-0.948442	0.357566
H	-0.349771	-1.322346	1.415178
N	-1.225333	-0.55441	-2.150522
H	-2.12089	-0.646875	-1.660215
H	-0.741167	-1.438476	-2.047027
H	-2.943049	0.0	0.0
