15

C	0.0	0.0	0.0
C	-0.270887	-0.027017	-1.509429
Cl	1.839786	0.0	0.0
H	-1.352157	0.048373	-1.618367
H	0.197175	0.859986	-1.942268
N	-0.664471	1.143049	0.64008
O	-0.603959	2.224676	-0.025958
O	-0.624698	1.124129	1.911639
N	-0.382645	-1.205898	0.657974
H	-0.189147	-1.078647	1.644552
H	0.15092	-1.96549	0.259531
N	0.194452	-1.295385	-2.085996
H	1.143272	-1.188373	-2.419887
H	-0.389646	-1.527511	-2.878096
H	-2.178096	0.0	0.0
