15

C	0.0	0.0	0.0
C	-0.269013	-0.057539	-1.508993
Cl	1.847426	0.0	0.0
H	0.199405	0.821594	-1.957277
H	-1.34969	0.014975	-1.621672
N	-0.657538	1.158078	0.617993
O	-0.598161	2.225921	-0.070206
O	-0.615221	1.16325	1.889079
N	-0.377533	-1.191365	0.6817
H	-0.15241	-1.063777	1.662209
H	0.128397	-1.963447	0.269241
N	0.196865	-1.337015	-2.058832
H	-0.381786	-1.581645	-2.851379
H	1.147698	-1.237529	-2.386138
H	-2.181894	0.0	0.0
