15

C	0.0	0.0	0.0
C	-0.278404	-0.06611	-1.509131
Cl	1.847112	0.0	0.0
H	0.274415	0.751413	-1.979205
H	-1.345966	0.109885	-1.628101
N	-0.633711	1.183722	0.595369
O	-0.567821	2.231882	-0.122228
O	-0.584712	1.220608	1.860882
N	-0.375368	-1.178751	0.701647
H	0.072908	-1.176096	1.608671
H	-0.087712	-1.968463	0.135021
N	0.05999	-1.396541	-2.031196
H	-0.549569	-1.611072	-2.808617
H	1.013158	-1.40037	-2.366975
H	-2.176002	0.0	0.0
