15

C	0.0	0.0	0.0
C	-0.266404	-0.062443	-1.508911
Cl	1.847269	0.0	0.0
H	0.199635	0.816548	-1.959648
H	-1.346798	0.007068	-1.624502
N	-0.661488	1.158765	0.612369
O	-0.621144	1.17099	1.883879
O	-0.60375	2.22375	-0.080138
N	-0.377631	-1.188858	0.688619
H	0.156327	-1.957242	0.307852
H	-0.183642	-1.035983	1.67135
N	0.203656	-1.341693	-2.055478
H	-0.371528	-1.584524	-2.850811
H	1.156233	-1.241745	-2.379648
H	-2.171877	0.0	0.0
