15

C	0.0	0.0	0.0
C	-0.271547	-0.062754	-1.506856
Cl	1.846945	0.0	0.0
H	0.202545	0.808882	-1.963255
H	-1.352095	0.017227	-1.616395
N	-0.651636	1.163897	0.614479
O	-0.588378	2.227939	-0.079308
O	-0.607929	1.175053	1.885405
N	-0.381833	-1.186325	0.686028
H	-0.15269	-1.058657	1.664254
H	0.110977	-1.965477	0.270812
N	0.183928	-1.349233	-2.049319
H	1.139008	-1.259997	-2.369125
H	-0.390707	-1.58835	-2.846852
H	-2.193998	0.0	0.0
