15

C	0.0	0.0	0.0
C	-0.265598	-0.011628	-1.51035
Cl	1.848101	0.0	0.0
H	0.205695	0.878331	-1.933018
H	-1.346113	0.067485	-1.623266
N	-0.661382	1.136673	0.651214
O	-0.624975	1.106292	1.922699
O	-0.601615	2.224171	-0.00441
N	-0.378649	-1.21165	0.647951
H	0.178484	-1.963231	0.266912
H	-0.214074	-1.077213	1.639115
N	0.201124	-1.274851	-2.097068
H	-0.395951	-1.513892	-2.877303
H	1.142688	-1.159386	-2.448209
H	-2.172275	0.0	0.0
