15

C	0.0	0.0	0.0
C	-0.201382	0.077312	-1.558994
Cl	1.827051	0.0	0.0
H	0.206468	-0.865723	-1.934689
H	0.441085	0.886309	-1.899016
N	-0.75321	1.074386	0.657045
O	-0.780926	2.171352	0.01415
O	-0.825078	1.031878	1.922493
N	-0.339716	-1.286789	0.615496
H	0.516944	-1.689633	0.980251
H	-0.898152	-1.030545	1.426086
N	-1.497605	0.305642	-2.169258
H	-1.838025	1.173386	-1.757721
H	-2.133447	-0.419252	-1.858858
H	-1.940483	0.0	0.0
