16
Coordinates from ORCA-job run
  C   0.87353152914678      0.30270314033878      0.28664447375333
  C   -0.24002785866327     -0.30643812462004     -0.58322556808854
  Br  2.47253086475446     -0.94178522502959      0.03236041165827
  H   0.13566894942101     -0.37848570748986     -1.60553381794467
  C   0.57657137968214      0.23270906383594      1.71564122056428
  N   0.35367674271136      0.17899420523762      2.86836614818044
  N   1.13167563868710      1.63032338266400     -0.09557129419324
  H   1.83901928052923      2.07878761628881      0.47150070948140
  H   1.34924621883153      1.71988060814973     -1.08057909747025
  N   -1.33805981175614      0.72299529654444     -0.64935051725945
  O   -1.45581722933264      1.33724460327210     -1.70667330013865
  O   -2.01988364359839      0.87241880147549      0.35897566947592
  C   -0.81001221189824     -1.61859412924556     -0.08895513326946
  H   -1.61510028467278     -1.93708735488729     -0.75416878140469
  H   -1.21479634951180     -1.50528776188734      0.91677370306130
  H   -0.03922321433037     -2.38837841464723     -0.08620482640598
