16
Coordinates from ORCA-job run
  C   0.95244049725424      0.25404475144212      0.35726454531949
  C   -0.13721504471933     -0.31514640919895     -0.58116395350324
  Br  2.50087164313618     -0.96127914760133      0.12403403137082
  H   0.30072075558595     -0.43594774403157     -1.57379604147013
  C   0.55878095562336      0.16670669312649      1.76398933659135
  N   0.24624128184313      0.07720866061103      2.89323671476671
  N   1.40394060830569      1.58250609328696      0.06940355864377
  H   1.63073484461638      1.69460328157065     -0.91155856600435
  H   0.71695282033932      2.26763603644682      0.36090004107966
  N   -1.19868409384844      0.73308263431687     -0.75999372032819
  O   -1.58190239787784      1.32313409701876      0.24851683369989
  O   -1.62182985323748      0.90358475405797     -1.90002749107179
  C   -0.81695870597992     -1.58659437242863     -0.10680298757460
  H   -1.55068440728940     -1.90721460362561     -0.84902711972198
  H   -0.08099560371522     -2.38038282764885      0.01939536832063
  H   -1.32341330003661     -1.41494189734273      0.84462944988195
