16
Coordinates from ORCA-job run
  C   0.92777279230245      0.25419035859709      0.25367719697947
  C   -0.19326478557275     -0.31422298506999     -0.62920346101235
  Br  2.47093624452719     -0.94048672072280      0.00596404369279
  H   0.20982128372857     -0.41151267223015     -1.63830445522255
  C   0.59362618276143      0.19303923924014      1.68399819005549
  N   0.34976646209607      0.15477357779152      2.83399612226582
  N   1.32820876359291      1.55743264902434     -0.22617521087906
  H   2.21510151058513      1.82241443210569      0.18650062833053
  H   0.62842736204753      2.23715485564619      0.05495833907103
  N   -1.29917045739600      0.69970665362910     -0.75693118709434
  O   -1.47584811728528      1.48412990720669      0.17556409575378
  O   -1.98008040683721      0.62785942799110     -1.77280388239526
  C   -0.82541555291624     -1.60241444982761     -0.13125874246443
  H   -0.07169480974080     -2.38433100174186     -0.04229485154268
  H   -1.58436398402673     -1.92922711640840     -0.84334453747326
  H   -1.29282248786628     -1.44850615523105      0.84365771193502
