13
Coordinates from ORCA-job run
  C   -0.82331455732200     -0.27884749906365      0.28180399007933
  C   0.65581628170212      0.05392238084878      0.04340070887130
  Br  -0.94395853340734     -1.30846030799905      1.99177440955213
  H   1.01185841252111      0.62249131662688      0.90977265282117
  H   -1.17057207314072     -0.98535454164928     -0.47403314849211
  N   -1.61798336084326      0.88906316728971      0.25302501873281
  H   -1.40085998349677      1.51335534709663      1.02008393439228
  H   -2.60583394691714      0.67577684937246      0.27431135422863
  C   0.75699430824589      0.92442289078214     -1.14793399094057
  N   0.92137702662795      1.55140019019299     -2.12786788055429
  N   1.45890458299963     -1.15001678011503     -0.06630846381423
  H   1.31673342636352     -1.58313806689784     -0.97131243210828
  H   2.44183841666699     -0.92361494648476      0.01528384723183
