13
Coordinates from ORCA-job run
  C   -0.58725639342421      0.16883976448482      0.67027018308247
  C   0.70910439405047     -0.14914539232007     -0.08552041800272
  Br  -0.99853333862313      2.06328483259531      0.59298775750500
  H   0.85076697205662     -1.23767416366460      0.05329058568488
  H   -0.43978207552396     -0.04516634765140      1.73448522207460
  N   -1.66523756271205     -0.57633706034013      0.04117647346179
  H   -1.62624118703616     -1.54176456499893      0.35294328627094
  H   -2.56267193175288     -0.19678121192615      0.31429811179452
  C   1.85830446209190      0.50060194425339      0.55687906598661
  N   2.79294265173978      0.98110365063666      1.07921202755808
  N   0.59877340976992      0.25804373026397     -1.47136333737169
  H   -0.28552477464010     -0.09193114821510     -1.82269887959145
  H   1.35535537400379     -0.13407403311777     -2.01696007845303
