13
Coordinates from ORCA-job run
  C   -0.48502433452679     -0.31326360928468      0.70000905503233
  C   0.87527082153532      0.02704989743968      0.06737848334809
  Br  -0.60483569902207      0.63438795524495      2.46926823704661
  H   1.65497677915857     -0.10544490221114      0.82196208046660
  H   -0.49003891580858     -1.36830742056003      0.97625934950311
  N   -1.54037195097809     -0.03969324013818     -0.19753280066592
  H   -1.63818638809590      0.95345156694400     -0.37612844185094
  H   -2.42473469038043     -0.40898826397955      0.12411216850770
  C   0.86883658041037      1.44137748115163     -0.33782989204618
  N   0.79772838617032      2.55887744284869     -0.68946211756598
  N   1.19255872303112     -0.79982973786501     -1.08455769443319
  H   0.38374941972735     -0.83894638533844     -1.69441911243331
  H   1.41107126877879     -1.74067078425192     -0.78005931490891
