13
Coordinates from ORCA-job run
  C   -0.61675919114881      0.16915849081904      0.74863323274546
  C   0.66837630421089     -0.23446635933874      0.02431247584980
  Br  -1.10716708072765      2.03879774397645      0.10863283524596
  H   0.91950930199980     -1.22423418721893      0.42215358672929
  H   -0.43829794823265      0.33140129365197      1.81078477686585
  N   -1.59856254345616     -0.80519700484812      0.52862440286418
  H   -1.70983780365572     -0.98456776190002     -0.46161519408180
  H   -2.48298810629416     -0.58413479458832      0.96351981699246
  C   1.78314540647825      0.67248201477938      0.35175598559086
  N   2.70449742830967      1.36557989956275      0.57602772386469
  N   0.40026897958116     -0.38627196957322     -1.39745172887859
  H   1.15776188248714     -0.88587997537900     -1.84600273551590
  H   0.32105337044823      0.52733261005676     -1.82937517827226
