16

C	0.0	0.0	0.0
C	-0.591487	-0.218641	-1.388941
F	1.376062	0.0	0.0
H	-1.701655	-0.260564	-1.240143
C	-0.454232	1.346129	0.54676
H	-0.047148	2.140692	-0.081864
H	-0.056131	1.453897	1.557226
H	-1.544542	1.393031	0.571285
C	-0.415279	-1.073252	0.928082
N	-0.648908	-1.888054	1.740786
N	-0.180637	-1.518894	-2.034593
O	-0.501455	-1.650075	-3.20995
O	0.400078	-2.349615	-1.347602
C	-0.246569	0.860755	-2.302761
N	0.025884	1.750755	-3.017343
Br	-3.70513	0.0	0.0
