16

C	0.0	0.0	0.0
C	-0.573862	-0.012799	-1.413462
F	1.381828	0.0	0.0
H	-1.682573	-0.101608	-1.282223
C	-0.445582	1.259735	0.72899
H	-0.05428	1.218268	1.746754
H	-1.535232	1.307163	0.75033
H	-0.028148	2.131863	0.222904
C	-0.411935	-1.181754	0.784742
N	-0.607592	-2.0618	1.537441
N	-0.120538	-1.193517	-2.234314
O	-0.089436	-1.040012	-3.45141
O	0.131453	-2.230558	-1.632462
C	-0.239405	1.206312	-2.137323
N	0.031087	2.213614	-2.677003
Br	-3.677709	0.0	0.0
