12

C	0.0	0.0	0.0
C	-0.467508	-0.042439	-1.438123
F	1.377837	0.0	0.0
H	-0.170068	-0.982134	-1.901467
H	-0.374066	-0.892767	0.504386
H	-1.558291	0.072128	-1.459964
C	-0.427265	1.185151	0.764087
N	-0.601224	2.120353	1.45087
N	0.15678	1.023572	-2.269409
O	0.431591	2.097097	-1.741237
O	0.323322	0.760105	-3.460272
Cl	-3.329707	0.0	0.0
