12

C	0.0	0.0	0.0
C	-0.519018	-0.050607	-1.416244
F	1.377815	0.0	0.0
H	-1.609406	0.096119	-1.380199
H	-0.368337	-0.887693	0.518464
H	-0.278768	-1.00625	-1.879172
C	-0.402094	1.187487	0.779308
N	-0.590596	2.118443	1.467828
N	0.096885	0.985609	-2.284458
O	0.311099	2.095125	-1.804668
O	0.318627	0.666692	-3.452968
Cl	-3.396896	0.0	0.0
