16

C	0.0	0.0	0.0
C	-0.365218	0.025522	-1.474772
Br	2.085899	0.0	0.0
H	0.053442	-0.855449	-1.983711
H	-1.465525	-0.046847	-1.439242
N	-0.516078	1.100824	0.721225
H	-1.53243	0.871091	0.783239
H	-0.457896	1.905756	0.099783
C	-0.411151	-1.296913	0.647473
H	-1.510745	-1.315253	0.581201
H	0.022149	-2.157935	0.134124
H	-0.106156	-1.303046	1.69538
N	0.006476	1.299203	-2.088802
H	0.995661	1.286945	-2.309269
H	-0.514472	1.422604	-2.94766
H	-3.147734	0.0	0.0
