16

C	0.0	0.0	0.0
C	-0.446683	0.010577	-1.460201
Br	1.996993	0.0	0.0
H	-0.006385	-0.838486	-1.999836
H	-1.535581	-0.130239	-1.374253
N	-0.493272	1.125588	0.733043
H	-1.51516	0.959793	0.752559
H	-0.34996	1.940511	0.140061
C	-0.446968	-1.278431	0.678324
H	-0.104277	-1.286734	1.715223
H	-1.546705	-1.269118	0.648648
H	-0.059809	-2.159492	0.159694
N	-0.172443	1.300644	-2.095434
H	0.60626	1.229049	-2.73589
H	-0.990233	1.603693	-2.608696
H	-3.26803	0.0	0.0
