16

C	0.0	0.0	0.0
C	-0.349179	-0.020125	-1.501328
Br	1.985453	0.0	0.0
H	-0.127551	-1.042318	-1.85778
H	0.347557	0.652419	-2.01632
N	-0.455527	1.227271	0.57551
H	-0.693984	1.085479	1.548739
H	-1.299172	1.506018	0.078749
C	-0.485529	-1.235738	0.733475
H	-0.173975	-1.203695	1.781841
H	-1.58176	-1.218052	0.683922
H	-0.096347	-2.152109	0.282784
N	-1.703554	0.459	-1.735126
H	-2.434489	0.124797	-1.057854
H	-2.002783	0.192264	-2.665114
H	-3.670793	0.0	0.0
