16

C	-0.127867	0.053142	-1.530029
C	0.0	0.0	0.0
Br	0.247536	-1.826493	-2.276345
H	1.098201	0.0	0.0
C	-1.436653	0.392569	-2.08974
N	-2.456634	0.746988	-2.556106
N	0.872846	0.968364	-1.915085
H	0.998861	1.00989	-2.917703
H	1.752922	0.729735	-1.399101
N	-0.68399	-1.145072	0.642999
O	-0.218932	-1.512861	1.720762
O	-1.712017	-1.584508	0.129608
N	-0.558008	1.196183	0.622061
H	-0.589878	1.930191	-0.074949
H	0.123744	1.49181	1.313671
F	2.63766	0.0	0.0
