16

C	-0.673578	-0.116252	-1.366225
C	0.0	0.0	0.0
Br	0.349083	1.231675	-2.542317
H	1.096225	0.0	0.0
C	-0.493259	-1.363186	-2.107796
N	-0.417711	-2.306224	-2.804644
N	-2.038325	0.223706	-1.265876
H	-2.47275	0.328312	-2.174474
H	-2.082274	1.095813	-0.743425
N	-0.461786	-1.095733	0.888531
O	-0.493903	-0.873295	2.103896
O	-0.737118	-2.18705	0.38762
N	-0.359822	1.29221	0.577241
H	-0.739964	1.12725	1.499824
H	0.524448	1.771085	0.71125
F	2.498656	0.0	0.0
