16

C	-0.561983	0.062674	-1.422082
C	0.0	0.0	0.0
Br	-0.224145	1.862056	-2.133785
H	1.109186	0.0	0.0
C	0.146003	-0.828739	-2.357339
N	0.594451	-1.526761	-3.190668
N	-2.007008	-0.132822	-1.441521
H	-2.357231	0.069396	-2.371822
H	-2.166331	-1.119257	-1.258535
N	-0.383497	-1.32971	0.584419
O	-0.593924	-2.284602	-0.176319
O	-0.416613	-1.420719	1.811296
N	-0.43107	1.077852	0.816955
H	0.252741	1.212255	1.548245
H	-1.345603	0.924086	1.220105
F	2.503125	0.0	0.0
