16

C	-0.123802	-0.085794	-1.552835
C	0.0	0.0	0.0
Br	-0.113267	-2.097412	-2.135638
H	1.102048	0.0	0.0
C	-1.391622	0.389717	-2.107945
N	-2.383433	0.873417	-2.515817
N	0.977074	0.617759	-2.027251
H	1.838352	0.401558	-1.459711
H	1.089272	0.600242	-3.030405
N	-0.695908	-1.116523	0.681189
O	-1.916088	-1.167402	0.505061
O	-0.051396	-1.873204	1.399654
N	-0.502321	1.219398	0.559736
H	-1.394756	1.492361	0.160567
H	0.187433	1.943091	0.406931
F	2.655691	0.0	0.0
