16

C	-0.124847	-0.123731	-1.554663
C	0.0	0.0	0.0
Br	-1.846772	-1.152411	-2.11925
H	1.109317	0.0	0.0
C	-0.416138	1.199401	-2.124801
N	-0.554282	2.267088	-2.602074
N	1.029149	-0.726767	-2.055193
H	1.226399	-0.492918	-3.017247
H	1.836586	-0.581095	-1.39676
N	-0.483471	-1.26421	0.621282
O	-1.493582	-1.216707	1.321874
O	0.151866	-2.284	0.367499
N	-0.571619	1.126249	0.639984
H	-1.526616	1.308593	0.358341
H	0.012051	1.935145	0.482917
F	2.63445	0.0	0.0
