16

C	-0.146395	-0.070834	-1.548545
C	0.0	0.0	0.0
Br	-0.698211	-2.115935	-2.19477
H	1.095535	0.0	0.0
C	-1.315956	0.604123	-2.102934
N	-2.238563	1.195289	-2.531843
N	1.04661	0.329653	-2.054158
H	1.141394	0.413993	-3.052978
H	1.893831	0.163454	-1.433055
N	-0.56909	-1.193503	0.707871
O	-1.743882	-1.111019	1.084901
O	0.160627	-2.161048	0.888608
N	-0.529982	1.233688	0.470759
H	-0.011774	1.5309	1.286568
H	-1.513881	1.143057	0.693221
F	2.670878	0.0	0.0
