16

C	-0.462153	0.066004	-1.45666
C	0.0	0.0	0.0
Br	0.512798	-1.332131	-2.564376
H	1.092606	0.0	0.0
C	-1.880951	-0.239063	-1.657814
N	-3.033486	-0.424141	-1.795381
N	-0.164155	1.368645	-1.940976
H	0.745551	1.629071	-1.572126
H	-0.141675	1.366279	-2.952473
N	-0.465601	-1.250648	0.6845
O	-0.429029	-1.237927	1.917083
O	-0.821256	-2.222269	0.01758
N	-0.365396	1.168961	0.735074
H	-1.302205	1.116047	1.116771
H	0.297453	1.269525	1.49204
F	2.512912	0.0	0.0
