16

C	-0.634265	-0.036964	-1.394956
C	0.0	0.0	0.0
Br	0.30002	1.468669	-2.422362
H	1.089459	0.0	0.0
C	-0.365325	-1.204614	-2.232662
N	-0.244611	-2.08161	-3.005989
N	-2.02683	0.185142	-1.291934
H	-2.457147	0.316617	-2.19849
H	-2.148387	1.01278	-0.713051
N	-0.439753	-1.218471	0.743148
O	-0.88217	-1.09271	1.890359
O	-0.285482	-2.302327	0.186272
N	-0.452282	1.199803	0.676846
H	-0.912258	0.923661	1.536947
H	0.390998	1.704422	0.926469
F	2.512587	0.0	0.0
