13
Coordinates from ORCA-job run
  C   0.95535139420827      0.53569071917891      0.21229583954958
  C   -0.46180780200525     -0.03943233055230      0.21117609643328
  Br  1.85415655991709      0.16326441963545     -1.48012960451038
  H   -0.94276910072359      0.25610388174935      1.14875376406285
  H   0.90522238082641      1.62218515512858      0.28784142487905
  C   1.72414764333346     -0.01560198394398      1.31651995188288
  N   2.33472059539135     -0.43281411150820      2.22901716917066
  N   -0.49508488627435     -1.43353391133152      0.05088135174555
  H   -0.14119198741251     -1.72018024175617     -0.85213887751776
  H   -1.42341557787558     -1.80900479118093      0.18275625138487
  N   -1.24666122200407      0.76257821022958     -0.85574630288208
  O   -1.80773567106082      0.12794835633064     -1.74003563481551
  O   -1.25593232632042      1.98079662802059     -0.71019142938300
