13
Coordinates from ORCA-job run
  C   0.93753105487677     -0.14237714927377      0.44735256147346
  C   -0.54789897944510      0.13638812104652      0.13569091826507
  Br  1.14303917336452     -0.44153497060043      2.36030454223441
  H   -0.86213042240500      1.06700193761885      0.60800603195474
  H   1.24152766808450     -1.06498592126044     -0.05156418786377
  C   1.79402234399765      0.95541995851111      0.02550989746300
  N   2.45853317917237      1.85620492747273     -0.33272742207878
  N   -1.47285374197820     -0.90759165803778      0.42337234831284
  H   -1.71479056999772     -0.92667164711834      1.40339333363831
  H   -1.12579611766780     -1.81160520119799      0.12987512902148
  N   -0.60533976314226      0.37922426713955     -1.35387024321323
  O   -0.27265234616975     -0.57851832245284     -2.04956811449582
  O   -0.97419147868998      1.47904565815284     -1.74577479471173
