13
Coordinates from ORCA-job run
  C   0.98712586631925     -0.07492874398055      0.53420234505019
  C   -0.50755300518503      0.09812819695030      0.23787292212843
  Br  1.28909288504919     -0.11135835083457      2.45204335886919
  H   -0.87882527896666      1.03395827898581      0.65595568903939
  H   1.32082621763724     -1.03775298398197      0.14011400699653
  C   1.77753173299205      0.99271970940560     -0.06267982276822
  N   2.40122424424244      1.85731025933143     -0.55660913255364
  N   -1.25603504808815     -1.00972018541911      0.69850785298600
  H   -1.03115152381558     -1.84865317816506      0.17810695219978
  H   -2.25112807779290     -0.83626707342774      0.66331542938903
  N   -0.59461645823514      0.27899780280300     -1.28145069197753
  O   -0.27304698990426     -0.70371740423151     -1.94799591311068
  O   -0.98244456425246      1.36028367256436     -1.71038299624849
