14

C	0.0	0.0	0.0
C	-0.490162	0.011853	-1.44058
Br	2.017094	0.0	0.0
H	-1.579779	-0.161428	-1.385015
H	-0.27016	0.974642	-1.898673
N	-0.508965	1.136165	0.633991
H	-0.571251	1.087636	1.637278
H	-0.142656	2.009528	0.289814
C	-0.361397	-1.20537	0.750296
N	-0.554803	-2.13816	1.437817
N	0.14516	-1.019573	-2.292281
O	0.154611	-2.172925	-1.86993
O	0.598514	-0.654785	-3.377719
Br	-3.724915	0.0	0.0
