14

C	0.0	0.0	0.0
C	-0.530155	0.056477	-1.421967
Br	2.017158	0.0	0.0
H	-0.334656	1.033962	-1.859248
H	-1.620129	-0.113971	-1.330956
N	-0.510155	1.108799	0.680923
H	-0.540129	1.031384	1.683939
H	-0.17837	2.000268	0.348675
C	-0.346289	-1.228269	0.720994
N	-0.540346	-2.171055	1.394688
N	0.059224	-0.946914	-2.334468
O	0.349256	-0.569347	-3.469772
O	0.1838	-2.094645	-1.915375
Br	-3.745815	0.0	0.0
