13

C	-0.481606	0.054279	-1.443483
C	0.0	0.0	0.0
F	-0.033418	1.234946	-2.000183
H	1.092844	0.0	0.0
H	-0.314377	-0.956827	0.433168
C	0.111664	-1.078707	-2.195867
N	0.505221	-2.007355	-2.796795
N	-1.914193	0.029617	-1.686496
H	-2.28058	-0.871269	-1.399071
H	-2.328563	0.739168	-1.087907
C	-0.59884	1.081914	0.7507
N	-1.1171	1.962865	1.333187
F	2.52524	0.0	0.0
