13

C	-0.169421	-0.135229	-1.51335
C	0.0	0.0	0.0
F	-1.392084	-0.742306	-1.857788
H	1.093994	0.0	0.0
H	-0.33319	-0.941907	0.442797
C	-0.221165	1.194469	-2.190069
N	-0.18815	2.219306	-2.765689
N	0.913765	-0.940268	-1.959436
H	1.761322	-0.690784	-1.406541
H	1.069872	-0.842196	-2.953947
C	-0.660871	1.127274	0.612714
N	-1.197275	2.033182	1.134826
F	2.626231	0.0	0.0
