13

C	-0.189517	0.01564	-1.527216
C	0.0	0.0	0.0
F	-1.276714	-0.781229	-1.906911
H	1.092023	0.0	0.0
H	-0.30913	-0.993457	0.340531
C	-0.497049	1.376086	-2.042379
N	-0.735043	2.442977	-2.471777
N	0.989131	-0.482092	-2.190054
H	0.837233	-1.464279	-2.385404
H	1.792472	-0.373319	-1.53471
C	-0.664497	1.032127	0.762151
N	-1.199592	1.859776	1.404391
F	2.624257	0.0	0.0
