13

C	-0.471158	0.040409	-1.446662
C	0.0	0.0	0.0
F	-0.021677	1.21871	-2.010738
H	1.092865	0.0	0.0
H	-0.315204	-0.952384	0.442445
C	0.131081	-1.095911	-2.185908
N	0.52555	-2.032038	-2.772789
N	-1.901459	0.006958	-1.702675
H	-2.32736	0.718265	-1.114629
H	-2.264411	-0.892726	-1.40895
C	-0.602125	1.091592	0.73505
N	-1.118935	1.980369	1.306926
F	2.522666	0.0	0.0
