13

C	-0.448238	-0.144839	-1.439987
C	0.0	0.0	0.0
F	-0.016922	0.97206	-2.140401
H	1.091865	0.0	0.0
H	-0.365097	0.970011	0.350868
C	0.209146	-1.311871	-2.091944
N	0.600038	-2.264537	-2.656463
N	-1.881087	-0.193137	-1.581221
H	-2.274682	-0.813048	-0.884117
H	-2.139718	-0.529529	-2.501287
C	-0.551539	-1.061093	0.814054
N	-1.024756	-1.9235	1.460019
F	2.524074	0.0	0.0
