18

C	-0.072886	0.065412	-1.546605
C	0.0	0.0	0.0
Cl	-0.129308	-1.732885	-2.269788
H	1.0986	0.0	0.0
C	-1.325912	0.607366	-2.090339
N	-2.345602	1.058313	-2.46314
N	1.053025	0.759311	-1.975777
H	1.89488	0.496972	-1.393494
H	1.19213	0.752874	-2.975632
C	-0.653905	-1.191226	0.664681
H	-0.604093	-1.0602	1.750453
H	-0.142212	-2.119475	0.415109
H	-1.710215	-1.289825	0.385762
C	-0.497125	1.321683	0.576461
H	-1.587498	1.424462	0.506605
H	-0.029568	2.163065	0.061916
H	-0.213911	1.377218	1.632067
F	2.749755	0.0	0.0
