18

C	-0.07197	-0.080955	-1.534113
C	0.0	0.0	0.0
Cl	-1.68772	-0.768192	-2.153215
H	1.100598	0.0	0.0
C	-0.039692	1.260012	-2.153118
N	0.058065	2.310367	-2.67701
N	1.009013	-0.913028	-1.962696
H	1.834013	-0.677445	-1.352158
H	1.226818	-0.761199	-2.940609
C	-0.467583	-1.295126	0.644597
H	-1.559691	-1.370965	0.673497
H	-0.08662	-1.33561	1.669893
H	-0.069273	-2.15304	0.101969
C	-0.6441	1.226401	0.606468
H	-1.721482	1.260003	0.401771
H	-0.19077	2.148365	0.234824
H	-0.50892	1.20527	1.691942
F	2.729078	0.0	0.0
