18

C	-0.464774	-0.001721	-1.44617
C	0.0	0.0	0.0
Cl	0.165465	1.448197	-2.331824
H	1.096131	0.0	0.0
C	0.104857	-1.160124	-2.169717
N	0.420968	-2.119644	-2.771324
N	-1.912704	0.036861	-1.577796
H	-2.295083	-0.71907	-1.019765
H	-2.176439	-0.115182	-2.545476
C	-0.40366	-1.297046	0.699879
H	-1.483144	-1.387909	0.898228
H	-0.068379	-2.176963	0.144051
H	0.112203	-1.322879	1.66343
C	-0.50038	1.211802	0.769991
H	-0.179599	2.138053	0.290363
H	-1.59165	1.235751	0.879861
H	-0.045655	1.188886	1.765003
F	2.631355	0.0	0.0
