18

C	-0.495734	-0.036124	-1.435901
C	0.0	0.0	0.0
Cl	0.35256	1.313156	-2.39674
H	1.094644	0.0	0.0
C	-0.090738	-1.269057	-2.127216
N	0.155695	-2.26227	-2.704314
N	-1.920078	0.082641	-1.552784
H	-2.213742	0.930805	-1.083344
H	-2.193119	0.141919	-2.527162
C	-0.434227	-1.26033	0.742318
H	0.003037	-2.150111	0.28269
H	-0.038051	-1.204966	1.760807
H	-1.523448	-1.382198	0.790269
C	-0.467366	1.250723	0.73263
H	0.111346	1.32451	1.657305
H	-0.258602	2.155709	0.156526
H	-1.533716	1.23256	1.004682
F	2.634654	0.0	0.0
