18

C	-0.473614	-0.006197	-1.443218
C	0.0	0.0	0.0
Cl	0.162419	1.433791	-2.340523
H	1.096139	0.0	0.0
C	0.082038	-1.172403	-2.165448
N	0.392379	-2.135778	-2.764283
N	-1.921169	0.042284	-1.563622
H	-2.307092	-0.695472	-0.985725
H	-2.196449	-0.125294	-2.52471
C	-0.397205	-1.295363	0.706149
H	0.124023	-1.316417	1.666725
H	-1.47533	-1.389122	0.910745
H	-0.062672	-2.176429	0.151665
C	-0.497365	1.212726	0.770176
H	-1.586888	1.229244	0.898587
H	-0.025945	1.199725	1.75772
H	-0.192634	2.138711	0.279963
F	2.631742	0.0	0.0
