18

C	-0.394031	0.056964	-1.432739
C	0.0	0.0	0.0
Cl	-2.40465	0.32524	-1.546654
H	1.097336	0.0	0.0
C	0.047392	1.275105	-2.115462
N	0.392474	2.253159	-2.667867
N	-0.070033	-1.063775	-2.192344
H	-0.359603	-1.921373	-1.74667
H	-0.405744	-1.00872	-3.143156
C	-0.413065	-1.30205	0.669736
H	-1.487587	-1.510341	0.585353
H	0.163631	-2.144166	0.2744
H	-0.15641	-1.238252	1.730102
C	-0.43536	1.218414	0.795031
H	-1.508034	1.220199	1.01772
H	-0.189298	2.144782	0.269319
H	0.128909	1.22554	1.731365
F	2.574762	0.0	0.0
