18

C	-0.060404	-0.134137	-1.531464
C	0.0	0.0	0.0
Cl	-1.642146	-0.859041	-2.129587
H	1.100086	0.0	0.0
C	0.001656	1.190611	-2.173588
N	0.061078	2.255081	-2.668317
N	1.043144	-0.925416	-2.056477
H	1.857557	-0.635745	-1.460991
H	0.853639	-1.894527	-1.820527
C	-0.458275	-1.265628	0.704708
H	-0.097217	-1.243296	1.737131
H	-0.03446	-2.157787	0.237335
H	-1.549236	-1.367328	0.716038
C	-0.647061	1.242516	0.574419
H	-1.723243	1.278377	0.36136
H	-0.18585	2.151806	0.185085
H	-0.520278	1.249949	1.661367
F	2.712374	0.0	0.0
