11

C	0.0	0.0	0.0
C	-0.411379	0.116205	-1.453153
Cl	1.792202	0.0	0.0
H	0.036948	1.035299	-1.863011
H	-0.351101	0.839995	0.593614
H	-0.350855	-0.940192	0.414644
H	-1.497023	0.20735	-1.464552
N	-0.012176	-1.086707	-2.189819
H	0.950601	-1.012125	-2.492382
H	-0.592719	-1.180698	-3.011742
Cl	-3.48205	0.0	0.0
