15
Coordinates from ORCA-job run
  C   -0.62108472245291      0.01068062423623     -0.26846214460366
  C   0.68990699981773      0.52360357250888      0.29774906443098
  Cl  -0.82638949125960      0.47017191789982     -1.97905901941346
  H   0.71963454590565      1.60284974398130      0.14895658315109
  H   0.65640623721181      0.35352187559792      1.38189997281750
  N   -1.77164674127182      0.78994199641521      0.46408578201544
  O   -1.65284131057427      2.00329795618570      0.56403302014245
  O   -2.70276185763644      0.11453535213638      0.89100879083617
  N   -0.76130313669130     -1.38156435424401     -0.14487738656905
  H   -1.67084357507418     -1.69358773300984     -0.46016006777566
  H   -0.62653679637296     -1.66830187089535      0.81716675070599
  C   1.90847149588949     -0.15675226779287     -0.31217403448821
  H   2.81955754155252      0.25531755697676      0.12657207489046
  H   1.94688130833714      0.00848275675055     -1.38947345038514
  H   1.89354950261914     -1.23219712674670     -0.13726593575492
