15
Coordinates from ORCA-job run
  C   -0.65672446807229     -0.11281393423223     -0.45541899520729
  C   0.79634297837485     -0.50125239955685     -0.22982609407221
  Cl  -0.83937243023478      0.97037707527381     -1.83827674876608
  H   1.12882862450294     -0.96545676433003     -1.16106650763129
  H   0.79978249857791     -1.27514234060347      0.54499029203875
  N   -1.07519248401401      0.68010231175128      0.82934487552004
  O   -1.11974622330584      1.90043710141392      0.82502621695262
  O   -1.26271406103954     -0.04976968798088      1.80139927736839
  N   -1.47012248852580     -1.25412494580754     -0.64968096376135
  H   -2.42909820436283     -1.00030479665297     -0.85329033584148
  H   -1.43872774883309     -1.84418220506091      0.17224485635931
  C   1.70989556539011      0.64797856470732      0.17536171062875
  H   1.64718909428329      1.47662203714628     -0.53110023816915
  H   1.46396713234666      1.02678842919356      1.16904060677015
  H   2.74469221491241      0.30174155473872      0.20125204781085
