16
Coordinates from ORCA-job run
  C   0.58318633161324      0.23801881800447      0.86204468578559
  C   -0.71891767979051      0.20204804045731      0.05376778371830
  H   0.73602137093172      1.24323247505757      1.26311888990755
  H   -1.54158733061931      0.25012842004108      0.77358068493088
  N   1.73885358837993     -0.01982692007122     -0.08074924658452
  O   2.39078948407542     -1.04634638306318      0.05780726595798
  O   1.88355355604125      0.83910824603234     -0.94358995221584
  C   0.55998168602053     -0.75133688559543      1.92987675667270
  N   0.48115826250081     -1.52495301767126      2.80990497727465
  C   -0.84367722454126     -1.00306537890649     -0.85067765995484
  H   -0.72171711927885     -1.91432086249108     -0.26060222940461
  H   -0.09298102918031     -0.98297483360078     -1.64052815393437
  H   -1.82527695806161     -1.02131255864228     -1.32174336096587
  N   -0.83565939599626      1.50831986637946     -0.70807380657177
  O   -0.70789927598862      2.52766896625898     -0.03800863894360
  O   -1.08682826610616      1.45461200781049     -1.90512799567222
