16
Coordinates from ORCA-job run
  C   0.69082621030660     -0.23182986674510      0.66364447940966
  C   -0.67002915748682      0.14499844666953      0.09727989153979
  H   0.51971672848351     -0.84838304255550      1.55413629028837
  H   -1.23240294307624      0.67679579712116      0.86626130800251
  N   1.42520699190666      0.98887978205006      1.19929204746965
  O   2.64192200857963      0.99994544037890      1.10648739813129
  O   0.71574597823881      1.82642063144604      1.74207967089632
  C   1.52877993828999     -0.97256800243214     -0.27010337912435
  N   2.14044009869734     -1.65015743326491     -1.00867344159127
  C   -1.43933317681487     -1.05637019159206     -0.42494381236364
  H   -1.57200528767131     -1.79139193850346      0.37188471685159
  H   -2.42154456008295     -0.73736276204930     -0.77076429095871
  H   -0.90761616174829     -1.52964046557980     -1.25269325419499
  N   -0.50628386222225      1.14755891641443     -1.01718333164214
  O   -1.54677284132144      1.57198082316526     -1.50515989949809
  O   0.63435003592165      1.46112386547689     -1.34854439321599
