16
Coordinates from ORCA-job run
  C   0.55553276557771      0.18885083128016      0.89335399355154
  C   -0.73765766485454      0.07276341363252      0.07884003073082
  H   0.55030375860469      1.12961526199221      1.44943037130697
  H   -1.54729195250813     -0.12740268018190      0.78731757215670
  N   1.71867713936227      0.27103994273393     -0.06973110247146
  O   2.53772919581634     -0.63832742762799     -0.07385077831298
  O   1.69973814336147      1.25527531179677     -0.79963160106754
  C   0.70706077756927     -0.94404018271340      1.79493833775229
  N   0.75023047986234     -1.84194730111378      2.54967914960544
  C   -0.68504916750877     -0.97797397491957     -1.00688137598699
  H   0.04283993608504     -0.72134289740549     -1.77549529059565
  H   -1.65686574543257     -1.07566259211588     -1.48694117460089
  H   -0.41554105678689     -1.93884509367455     -0.56388903667080
  N   -1.07652631218876      1.44905070158915     -0.46920170954568
  O   -1.41398030985594      1.52533402493751     -1.64311487062061
  O   -1.02919998710356      2.37361266179026      0.33417748476867
