16
Coordinates from ORCA-job run
  C   0.72103731265328     -0.27623793370765      0.61182173763001
  C   -0.64826643680875      0.19342910218742      0.14449071329984
  H   0.57467727830318     -0.87376178591751      1.51960911701068
  H   -1.11134036170850      0.77048259722703      0.94639215222411
  N   1.57942715790692      0.89100603949712      1.07785068561545
  O   0.97441349724940      1.78623598204610      1.65384816048621
  O   2.78456527239374      0.80685811360768      0.90467009879273
  C   1.43121933447601     -1.08075918727839     -0.37364232057997
  N   1.93162291517660     -1.80136804649969     -1.15403774646102
  C   -1.53961184290096     -0.95320958139208     -0.30104369855170
  H   -1.10730188811415     -1.47368963995274     -1.15783886849461
  H   -1.66610910283490     -1.66748094161715      0.51547372964267
  H   -2.51892271113547     -0.56577624478281     -0.57834365134093
  N   -0.49845206409107      1.17318586765574     -0.99215908850517
  O   0.63350196100967      1.40425340542734     -1.40974043776395
  O   -1.54046032157501      1.66583225349960     -1.40735058300436
