16
Coordinates from ORCA-job run
  C   0.66027728945923      0.20655365266995      0.78598126281838
  C   -0.72452754591247      0.08784552212995      0.15927963398751
  H   0.71556365954442      1.11535303130473      1.39186598465308
  H   -1.42470646551394     -0.01790081612079      0.99635497554205
  N   1.76307579245838      0.38049347656919     -0.24628279753597
  O   2.89465083776996      0.08643754182226      0.11578797408922
  O   1.43232783558051      0.84237091697263     -1.33199646228559
  C   0.95664867053513     -0.96433964092149      1.60078932671672
  N   1.11886470294763     -1.92595819383124      2.25435458799408
  C   -0.90307771147624     -1.05383479168368     -0.81901035403658
  H   -0.59264506838028     -1.98768338024260     -0.34485779646642
  H   -1.95053889760376     -1.14319877841575     -1.10008001674916
  H   -0.31937353251313     -0.89301774283095     -1.72311272678732
  N   -1.10071402307943      1.42720880101492     -0.44561940266983
  O   -1.78682013321373      1.41252322613979     -1.45774083551247
  O   -0.73700541060228      2.42614717542308      0.16528664624230
