17

C	0.0	0.0	0.0
C	-0.495291	0.00884	-1.493795
Br	1.955581	0.0	0.0
H	-0.129528	0.939206	-1.943625
N	-0.439567	1.254864	0.700938
O	-1.726944	1.149842	0.888776
O	-0.06994	2.305563	0.095265
C	-0.437543	-1.267026	0.772553
H	-1.53192	-1.412823	0.717298
H	0.046459	-2.157119	0.339958
H	-0.144713	-1.182687	1.830742
C	-2.012044	0.056461	-1.726511
N	-2.463358	0.319981	-2.815967
N	0.047527	-1.102772	-2.232192
O	-0.630957	-2.266929	-2.064535
O	0.130605	-0.781946	-3.547608
H	-1.598224	0.0	0.0
