17

C	0.0	0.0	0.0
C	-0.552401	0.013528	-1.482983
Br	1.96884	0.0	0.0
H	-0.361236	-0.979276	-1.926804
N	-0.419939	1.200933	0.772243
O	-0.063025	2.313644	0.175448
O	-0.094574	1.099355	2.036366
C	-0.416788	-1.300724	0.740811
H	-1.482409	-1.287454	1.015055
H	0.165702	-1.416113	1.663121
H	-0.232369	-2.174386	0.092436
C	0.255872	0.977694	-2.391717
N	1.150973	0.590576	-3.051284
N	-2.017807	0.228843	-1.497766
O	-2.631049	-0.89	-1.046926
O	-2.397376	0.502034	-2.749789
H	-1.565879	0.0	0.0
