12
Coordinates from ORCA-job run
  C   0.80064803117220      0.03263805462122      0.26180159555381
  C   -0.62134950183646      0.50278016002888      0.48678095355240
  Br  1.96502599944023      1.54584751828200      0.93158360536803
  H   -0.87191068796912      1.36035831685528     -0.13577606198270
  H   1.04483217508182     -0.78906315588207      0.93120121689333
  H   -0.80279957567504      0.72068904577986      1.53809255993077
  N   1.00704721446258     -0.34273900199293     -1.07428296269154
  H   1.90940676541338     -0.76753021460901     -1.23379003804466
  H   0.85656787501698      0.41309073239412     -1.72952515168497
  N   -1.54065405130811     -0.61144026559099      0.10161900036887
  O   -2.30647347579644     -0.42090111464530     -0.83790191721827
  O   -1.44134076800201     -1.64373007524108      0.75919719995493
