12
Coordinates from ORCA-job run
  C   0.81879954854844      0.07094461649907      0.31092709906824
  C   -0.61907612392112      0.51564438000404      0.47517813137433
  Br  1.91453856855586      1.46642805232248      1.12500635600833
  H   -0.80583935090181      1.42607475531418     -0.09274140702837
  H   1.01531754822311     -0.82379404837178      0.90850016722657
  H   -0.88921292536589      0.66680731297993      1.52124272733195
  N   1.15715882969318     -0.02885528715876     -1.09016613520058
  H   2.15929508337782     -0.12104747737670     -1.20113160459502
  H   0.72333128351623     -0.86958511428711     -1.45676564904954
  N   -1.58028710398020     -0.51197225509684     -0.04797487509441
  O   -2.74546350497534     -0.15335669260654     -0.16124375591044
  O   -1.14956185277028     -1.63928824222199     -0.29283105413105
