12
Coordinates from ORCA-job run
  C   0.74745174485707      0.24369555481094      0.30356751968158
  C   -0.69176552854454      0.63053073474206      0.03229546079503
  Br  1.79175590859393      1.96986593854643      0.16056507351451
  H   -1.03924499226875      1.37732615294186      0.74441675773611
  H   0.87763774846640     -0.04567652045664      1.34391483931555
  H   -0.83695824575394      0.97302743855823     -0.99116217715176
  N   1.16635638494573     -0.78838266039619     -0.55029851418713
  H   1.12716490399004     -0.53653888126016     -1.52927285236116
  H   2.08199000368159     -1.14730793650648     -0.31998586727136
  N   -1.53764180731135     -0.58769004803385      0.21787877089397
  O   -1.54938734697337     -1.06870329309372      1.34769632197744
  O   -2.13835877368282     -1.02014647985249     -0.76061533294278
