12
Coordinates from ORCA-job run
  C   0.83857720884366      0.21335854893500      0.15295396535761
  C   -0.58487458630466      0.31660906454949      0.65788523397439
  Br  1.80234964550548      1.71982198110155      0.93613077241220
  H   -1.06136830446038      1.21966650477391      0.27871757335926
  H   1.32868629068273     -0.67491419808148      0.56161147679841
  H   -0.64173552690775      0.29503519254386      1.74711641109150
  N   0.87154892522702      0.33692676769051     -1.28612781704573
  H   1.82308472657836      0.47675380118486     -1.60251316970720
  H   0.53510347674178     -0.53458587571259     -1.68196474999608
  N   -1.42543965170568     -0.83400677814991      0.18517925051767
  O   -0.85378058665064     -1.80920610764180     -0.30322970478328
  O   -2.63315161754995     -0.72645890119341      0.35524075802124
