12
Coordinates from ORCA-job run
  C   0.63615241058677      0.33654034220201     -0.12830698823521
  C   -0.61827125231635     -0.50405683827927      0.00633226059682
  Br  0.27627462029324      1.84788073631079     -1.30383644002681
  H   -1.00240155506083     -0.80114684866717     -0.96611886584306
  H   0.88621890555701      0.79001085123607      0.83432800665240
  H   -0.40667542230559     -1.38159496791526      0.62419961517173
  N   1.66433060776599     -0.48652792874859     -0.72931021444416
  H   2.46321322288608      0.08225132189116     -0.98140888349125
  H   1.97410953616507     -1.17603990099858     -0.05138030454541
  N   -1.69222970344326      0.24623077125466      0.71571255833151
  O   -1.39178297275873      0.72847167223897      1.80585107995691
  O   -2.79093839736943      0.31698078947523      0.17393817587652
