12
Coordinates from ORCA-job run
  C   0.84952706778770      0.24449007088102      0.23698291946678
  C   -0.55249258601743      0.06609656781500      0.78696897235206
  Br  0.84357719858511      1.97912687586283     -0.81879316502459
  H   -0.82835121674272      0.88659243993962      1.44434040917879
  H   1.50711661557721      0.49497280762981      1.06904134562030
  H   -0.60883099210381     -0.89128644448045      1.31156866337537
  N   1.34142786237333     -0.87844613091768     -0.44658050766239
  H   0.75180132363231     -1.13615940058570     -1.22618196927554
  H   2.29869902383100     -0.75648308578108     -0.74560057370078
  N   -1.60071177581634      0.01896675098945     -0.27609148284753
  O   -1.38668230292071     -0.71065271499801     -1.24314134482073
  O   -2.61508021818567      0.68178226364517     -0.09351326666174
