12
Coordinates from ORCA-job run
  C   0.80867882463283      0.37237727843481      0.30325475558094
  C   -0.66990671265980      0.65611854349182      0.05929745058230
  Br  1.70682701383687      2.12290206415940      0.14015379613657
  H   -0.84722235833401      1.04507419227679     -0.94199435898351
  H   0.95729116290519      0.06830274265461      1.33818552347167
  H   -1.08545244879041      1.31939482845238      0.81771223099028
  N   1.40071567479361     -0.58867909559690     -0.55765463558528
  H   1.07979261767623     -0.52930301268906     -1.51390717961103
  H   1.31906270920215     -1.52963010955155     -0.20142612820518
  N   -1.39235173684730     -0.64523710939393      0.15899075494494
  O   -1.34611290544798     -1.20975523341694      1.25075838946640
  O   -1.93232184096737     -1.08256508882140     -0.85437059878816
