12
Coordinates from ORCA-job run
  C   0.86678813763822      0.35996529240714      0.16854579624317
  C   -0.51411927222512      0.04854510367201      0.75012346707719
  Br  0.73852935674936      2.13053696096101     -0.70577689721442
  H   -0.82557300595682      0.79924770245974      1.47329127965265
  H   1.53404646083883      0.53102655253913      1.01509193309350
  H   -0.49367324954094     -0.94621194145054      1.20330275673829
  N   1.45806396234224     -0.59013649953787     -0.70473750771580
  H   1.98592463103815     -1.29046046920056     -0.20465436694081
  H   0.78139848528188     -1.00968228833638     -1.32568405345403
  N   -1.57801390073139      0.00643304354804     -0.29344209000467
  O   -1.40227409249468     -0.77227092106707     -1.23111174715691
  O   -2.55309751293972      0.73400746400535     -0.14394857031819
