12
Coordinates from ORCA-job run
  C   0.72953983303946      0.03078502946177      0.09730874106050
  C   -0.72584883141621     -0.29251871435175     -0.16498280708072
  Br  0.95887846816492      2.01653776404727     -0.11745110476310
  H   -0.87361939753324     -1.36530431997063     -0.02276725608452
  H   0.96815612952462     -0.14164775728879      1.14431189821237
  H   -1.04947291124176      0.01584466811332     -1.15774986529378
  N   1.55796213369245     -0.74986362644785     -0.74043828292353
  H   1.42916755544989     -0.52541658964617     -1.71901526010523
  H   2.53554160102606     -0.64159073236237     -0.50663276437087
  N   -1.61747027411898      0.39142447217993      0.81501688092534
  O   -2.59582183503042      0.98473194480090      0.37260150549643
  O   -1.31501247155681      0.27701786146438      1.99979831492712
