12
Coordinates from ORCA-job run
  C   0.71109366027153      0.16601301347208     -0.02928182257995
  C   -0.74023078722534     -0.25414317986923     -0.15638490074194
  Br  0.85432676848689      2.08605207530794     -0.32306896583152
  H   -1.16232772812098      0.06446558284271     -1.10603966872781
  H   1.05357865427866      0.01720609612227      0.99806203283625
  H   -0.81827738822836     -1.33918339779973     -0.04187943845588
  N   1.46691110257366     -0.52066219162673     -1.05595640901660
  H   1.54206840701417     -1.50273780788975     -0.80914768521214
  H   2.40431676964200     -0.14173124938303     -1.11056507820720
  N   -1.56548087125126      0.33377722026537      0.93528594929908
  O   -1.17337554122604      0.13320222742290      2.08308673947629
  O   -2.57260304621494      0.95774161113521      0.61588924716144
