12
Coordinates from ORCA-job run
  C   0.77914749534527      0.18440616131510      0.12601071559914
  C   -0.64675237818068     -0.24217183548003     -0.19997866934014
  Br  0.87796257097109      2.13304396786971     -0.03528007168898
  H   -0.95697006067037      0.08940888550911     -1.18978712982312
  H   0.99280972817103     -0.03544480337055      1.17126566110766
  H   -0.72089109286665     -1.32976897616868     -0.11431313910017
  N   1.78319449065840     -0.41402802473522     -0.70256216064546
  H   1.93728575820273     -1.38145832999302     -0.44841706311038
  H   1.55816546475467     -0.34287100934982     -1.68645129699167
  N   -1.62499820315419      0.31488369647474      0.77856992908380
  O   -1.37640286676941      0.11178769094435      1.96495770402103
  O   -2.60155090646191      0.91121257698427      0.33598552088832
