12
Coordinates from ORCA-job run
  C   0.87167573272645      0.35310340691209      0.16051295515965
  C   -0.51231111898311      0.06977757019840      0.74913139396781
  Br  0.76371528481014      2.10669237088646     -0.74930851122901
  H   -0.81378632358967      0.83861590480166      1.45732787826008
  H   1.54191742716213      0.53295372451794      1.00285033920357
  H   -0.50328035518710     -0.91593513484960      1.22201563518184
  N   1.45077685909987     -0.62154198155943     -0.69434809926656
  H   1.96724333499304     -1.31957052633877     -0.17919228278218
  H   0.76773515375745     -1.04411078951389     -1.30632360236474
  N   -1.57765800960462      0.01925033741908     -0.29242221183322
  O   -2.54359305575319      0.76168207462740     -0.15740206310423
  O   -1.41243492943140     -0.78091695710133     -1.21384143119302
