15

C	0.0	0.0	0.0
C	-0.523731	-0.005712	-1.432791
Cl	1.797545	0.0	0.0
H	-0.209604	-0.917084	-1.948889
H	-1.630624	-0.017792	-1.303142
N	-0.506117	1.188521	0.632746
H	-0.282	1.149511	1.622951
H	-1.536504	1.080846	0.551116
C	-0.437412	-1.292453	0.680059
H	-0.087939	-1.298139	1.716838
H	-0.036603	-2.174806	0.17181
H	-1.534813	-1.290041	0.656766
C	-0.117531	1.153395	-2.21623
N	0.174898	2.06524	-2.897549
H	-3.110557	0.0	0.0
