15

C	0.0	0.0	0.0
C	-0.601109	-0.176136	-1.382831
Cl	1.845149	0.0	0.0
H	-0.356632	0.67443	-2.027439
H	-1.712705	-0.151427	-1.150547
N	-0.428372	1.271671	0.477823
H	-0.001886	2.023627	-0.0473
H	-0.21429	1.38177	1.459824
C	-0.488047	-1.087905	0.925878
H	-0.161589	-2.070498	0.580335
H	-0.108849	-0.927284	1.939607
H	-1.588731	-1.005487	0.902966
C	-0.216303	-1.41281	-2.041933
N	0.079885	-2.420362	-2.569407
H	-3.267622	0.0	0.0
