15

C	0.0	0.0	0.0
C	-0.502351	-0.066315	-1.450728
Cl	1.800176	0.0	0.0
H	-0.205573	0.84195	-1.986168
H	-1.609744	-0.071647	-1.32617
N	-0.515712	1.161124	0.672342
H	-0.329982	1.98266	0.102266
H	-1.544834	1.006704	0.653737
C	-0.448885	-1.232852	0.762987
H	-0.039811	-2.141597	0.31705
H	-0.112952	-1.148953	1.797958
H	-1.545498	-1.240785	0.723749
C	-0.062422	-1.232657	-2.203854
N	0.290935	-2.176988	-2.807904
H	-3.104866	0.0	0.0
