14

C	-0.532098	0.026461	-1.425142
C	0.0	0.0	0.0
Cl	-0.133573	-1.502635	-2.282173
H	1.093999	0.0	0.0
H	-0.014248	0.808912	-1.98237
H	-0.298075	0.964444	0.437427
N	-1.966799	0.240733	-1.581715
H	-2.195451	1.117304	-1.122088
H	-2.458857	-0.495209	-1.087014
C	-0.52637	-1.13338	0.870455
H	-1.619551	-1.137725	0.947468
H	-0.122883	-1.031857	1.87991
H	-0.202774	-2.100607	0.484418
Cl	3.619748	0.0	0.0
