17

C	-0.481368	0.007124	-1.459672
C	0.0	0.0	0.0
F	-0.185664	-1.312686	-1.890016
H	1.097937	0.0	0.0
N	-1.870334	0.26831	-1.501368
H	-2.205341	0.126696	-2.445733
H	-2.332391	-0.364121	-0.857738
N	0.221859	0.856708	-2.363562
H	1.212348	0.642024	-2.271058
H	0.09803	1.806603	-2.036349
N	-0.610283	-1.112153	0.704957
H	-0.392949	-1.015224	1.689622
H	-0.129521	-1.938066	0.36747
N	-0.407287	1.275928	0.66909
O	-0.085527	2.327883	0.121423
O	-0.997698	1.208114	1.746584
Cl	3.330743	0.0	0.0
