17

C	-0.482254	-0.013912	-1.45517
C	0.0	0.0	0.0
F	-0.077675	1.212403	-2.005431
H	1.090352	0.0	0.0
N	0.165304	-1.036194	-2.222529
H	-0.024586	-1.913453	-1.750236
H	1.16853	-0.874408	-2.156262
N	-1.891048	-0.184345	-1.548687
H	-2.363872	0.58324	-1.087627
H	-2.1341	-0.209243	-2.530954
N	-0.490247	-1.145779	0.686281
H	-0.008418	-1.261368	1.56781
H	-1.490338	-1.084322	0.822077
N	-0.462372	1.310171	0.631309
O	0.34871	2.212912	0.79031
O	-1.663451	1.380675	0.936805
Cl	3.38147	0.0	0.0
