17

C	-0.381506	-0.06156	-1.483976
C	0.0	0.0	0.0
F	-0.181385	1.262496	-1.991864
H	1.089501	0.0	0.0
N	0.508705	-0.970789	-2.107869
H	0.445562	-0.883314	-3.11633
H	1.46637	-0.771467	-1.816708
N	-1.741674	-0.440724	-1.698169
H	-1.908389	-0.587582	-2.688727
H	-2.337664	0.305251	-1.354838
N	-0.501262	-1.09833	0.771019
H	0.266015	-1.722411	0.978311
H	-1.209883	-1.586426	0.239393
N	-0.537875	1.277362	0.584917
O	-1.759344	1.445971	0.500663
O	0.237087	2.049653	1.134536
Cl	3.37362	0.0	0.0
