17

C	-0.52528	0.00183	-1.453002
C	0.0	0.0	0.0
F	0.236476	-0.994119	-2.073542
H	1.088936	0.0	0.0
N	-1.90855	-0.332799	-1.459555
H	-2.19661	-0.407613	-2.428573
H	-1.997005	-1.240935	-1.017431
N	-0.330712	1.180776	-2.238205
H	-0.903376	1.92527	-1.863873
H	0.640378	1.464211	-2.163757
N	-0.480942	-1.152712	0.707141
H	-1.302928	-0.89921	1.242541
H	0.242217	-1.465783	1.341409
N	-0.434586	1.285074	0.680462
O	0.121025	2.323615	0.331374
O	-1.323813	1.227058	1.531882
Cl	3.337198	0.0	0.0
