17

C	-0.536111	0.075678	-1.428065
C	0.0	0.0	0.0
F	-1.962969	0.175183	-1.321332
H	1.089638	0.0	0.0
N	-0.103097	1.259885	-2.096253
H	-0.208648	1.135372	-3.096623
H	0.883134	1.391704	-1.897942
N	-0.208091	-1.140298	-2.091202
H	-0.426347	-1.914644	-1.473625
H	-0.749495	-1.214122	-2.944693
N	-0.486491	-1.179419	0.646744
H	0.13391	-1.409836	1.411889
H	-1.41427	-1.003354	1.009477
N	-0.433753	1.264546	0.728062
O	0.201497	2.287011	0.509695
O	-1.396452	1.183327	1.495149
Cl	3.338623	0.0	0.0
