10
Coordinates from ORCA-job run
  C   -0.68034264192342      1.20795735608409      0.28912845001681
  C   -0.13598820449141      0.01668243722377      0.00207112926823
  H   -0.15986480153394      1.90291119330630      0.92929578788691
  H   -1.65613609097142      1.47209201808448     -0.09891243873722
  N   -0.66369616052175     -1.04649871874469     -0.69574839073091
  H   0.03605721095745     -1.63568175001004     -1.12043228602696
  H   -1.41752880827050     -0.79638473832049     -1.31543791097313
  N   1.21435156995579     -0.29176489243519      0.54332809433473
  O   1.79712883153487     -1.25400568356083      0.03980438190777
  O   1.66701909526432      0.42469277837260      1.42690318305377
