10
Coordinates from ORCA-job run
  C   -0.57061378376095      1.27515737193717      0.23376190313683
  C   -0.03339265380420      0.09174731185806     -0.09627094541909
  H   -1.21664633449026      1.79598608518486     -0.46177964669272
  H   -0.34064745694000      1.72893396660187      1.18498865454658
  N   -0.10587815358723     -0.60706509495752     -1.28053621774657
  H   -0.89267089738935     -0.35489865355434     -1.85689810646806
  H   0.01516805903887     -1.60196693658740     -1.16790348919662
  N   0.83401707431293     -0.59291511794746      0.89863342021491
  O   1.07518593706940     -1.78255320563575      0.68534347790857
  O   1.23547820955078      0.04757427310050      1.86166094971617
