10
Coordinates from ORCA-job run
  C   -0.45380372231293      1.33931746594846      0.07964722455245
  C   -0.08385889412710      0.06172125463898     -0.08981878635869
  H   -1.39647112223762      1.69356691322014     -0.31828070369755
  H   0.19860606222333      2.03020910537788      0.59017995748811
  N   -0.70383870794372     -0.94780813261198     -0.79148891168360
  H   -0.47738023268744     -1.87030088643983     -0.45254721162199
  H   -1.68887322533521     -0.79808309227447     -0.94016271717426
  N   1.21211753673478     -0.38148235592827      0.48933058719052
  O   2.00557541296869      0.47176104371161      0.86522861599737
  O   1.38792689271721     -1.59890131564252      0.56591194530765
