10
Coordinates from ORCA-job run
  C   -0.28756531255221      1.37362730410863     -0.18972131925591
  C   -0.05704844024501      0.05498979412045     -0.11207650934650
  H   -1.08683308224807      1.75383828609101     -0.81346318130604
  H   0.34048535626350      2.06677710698642      0.34759709383566
  N   -0.65805912408801     -0.98409508058253     -0.78638674310168
  H   -1.57086693714736     -0.76282088665735     -1.15051666888079
  H   -0.61736714641393     -1.86173162112527     -0.29120216541951
  N   1.04144947131714     -0.41945766953123      0.77083976374500
  O   1.85259669070766      0.39893825254692      1.18451795859798
  O   1.04420852440628     -1.62206548595703      1.04041177113179
