10
Coordinates from ORCA-job run
  C   -0.46716786914710      1.33195370756038      0.11591570116584
  C   -0.08672248142554      0.06224563264479     -0.08643002869101
  H   0.18981572730148      2.02111295002521      0.62297910263374
  H   -1.42230947307860      1.68329367707338     -0.25385638744690
  N   -0.71171280852267     -0.94140004730108     -0.79208764647017
  H   -0.46725344661992     -1.86732956541489     -0.47579215323356
  H   -1.70147467312590     -0.80017238133184     -0.91555554994944
  N   1.22734746957651     -0.37614247991843      0.45394138782139
  O   2.01976233722475      0.47914416649390      0.82748576523882
  O   1.41871521781700     -1.59270565983142      0.50339980893129
