10
Coordinates from ORCA-job run
  C   -0.30317514585232      1.37161951964468     -0.18060988178374
  C   -0.05880502733449      0.05505584999461     -0.11121630191435
  H   -1.10928487566147      1.74705700655127     -0.79847026128894
  H   0.32318400059187      2.06934160572703      0.35277114861793
  N   -0.65609792858078     -0.98694322165395     -0.78433202021722
  H   -1.57494735826670     -0.77331788922311     -1.13765787702195
  H   -0.60120112973551     -1.86644607137333     -0.29386200501486
  N   1.05190041153987     -0.41241922445034      0.76040751246952
  O   1.06905995790470     -1.61620311158485      1.02419373733296
  O   1.85836709539482      0.41225553636799      1.17077594882065
