10
Coordinates from ORCA-job run
  C   -0.71035056910843      1.17077890579098      0.36314761690982
  C   -0.05522734085286      0.09076481342316     -0.08688874452546
  H   -0.44881802579458      1.60662308498541      1.31456048225901
  H   -1.48709932796893      1.62840586570900     -0.23659336201075
  N   -0.15179111094837     -0.55456000529049     -1.29924233162318
  H   0.11246474252448     -1.52702495202168     -1.25951489011408
  H   -1.01815007123797     -0.38661880348925     -1.78502382610590
  N   0.99193724987554     -0.51249982622660      0.77952635410685
  O   1.39767384337371      0.13088795542156      1.73890100587127
  O   1.36936061013740     -1.64475703830208      0.47212769523241
