17
Coordinates from ORCA-job run
  C   -0.73903352324866     -0.22691882482193     -0.16470616288803
  C   0.76565322661870     -0.47646317585440     -0.27605186843662
  F   -1.32719446578318     -0.59059260852238     -1.34390328090220
  H   0.90885180070227     -1.50672894326930     -0.59994169570119
  C   -1.16883555929615      1.15865492851541      0.21683829677106
  H   -0.84859165663683      1.85805869403852     -0.55516655870716
  H   -2.25531177669548      1.18279231397149      0.29559401031727
  H   -0.75113637993400      1.45155532953218      1.17784350319256
  N   -1.21581102182895     -1.25413832490567      0.86590646618864
  O   -1.03154086639935     -2.42625934246464      0.55815998159851
  O   -1.73832403417256     -0.84166217464530      1.89371995832071
  N   1.40519124884749     -0.21684261561202      0.95984200028363
  H   1.49668830106556      0.77822438252676      1.12208689313884
  H   2.31994162344026     -0.64455478978726      1.00113038772399
  N   1.27363403381083      0.37502488465309     -1.43853557850760
  O   1.62490555133195      1.52203490045013     -1.16419319904301
  O   1.28191349817811     -0.14318463380469     -2.54962315334941
