17
Coordinates from ORCA-job run
  C   -0.74275591742385     -0.22555549620273     -0.14863247426993
  C   0.75793772139463     -0.50200333425967     -0.25003802116670
  F   -1.34064876198516     -0.64846699634173     -1.30289033802875
  H   0.88592304224841     -1.55129261226882     -0.51364943212251
  C   -1.15173851712899      1.18574267699240      0.15359943228826
  H   -2.23759545073065      1.22959718206863      0.23252312672490
  H   -0.82388783801694      1.83543867277413     -0.65761964992505
  H   -0.72746220702746      1.52680597482380      1.09562019563054
  N   -1.22981183325059     -1.18461187692763      0.94107434724377
  O   -1.06145030301355     -2.37496114735556      0.70168648171822
  O   -1.74569746159190     -0.70642281469444      1.94343458257158
  N   1.40560938612716     -0.17905337280765      0.96662564746198
  H   2.31430511838243     -0.61685019457774      1.03035110752925
  H   1.51235789432242      0.82251443213377      1.06859295981420
  N   1.27324962310023      0.27268855357164     -1.46199225490421
  O   1.26855298499799     -0.30910228675310     -2.54118764787763
  O   1.64211251959581      1.42853263982469     -1.25649806268792
