17
Coordinates from ORCA-job run
  C   -0.63782620592526     -0.31729475590384     -0.18218104429068
  C   0.85475670103290     -0.06826054330351     -0.51553951714003
  F   -0.95682436332972     -1.49018078124067     -0.81156770563065
  H   0.89199636181669      0.22475768091001     -1.56624758730718
  C   -1.59588263296888      0.76159744974523     -0.60009476541143
  H   -2.61260232641916      0.45869900801605     -0.34576025756373
  H   -1.52274287900662      0.88793156097719     -1.68151429405252
  H   -1.37238751553141      1.70664476930353     -0.11286560960404
  N   -0.75121419902282     -0.58906486140311      1.30973944762694
  O   -0.46105994061511     -1.72065571655179      1.68526320246348
  O   -1.07722685209851      0.35705216807682      2.01956240361608
  N   1.76523189159729     -1.13480058171706     -0.27620737959552
  H   1.61351969672844     -1.87324150034228     -0.94988973023506
  H   1.66229336898533     -1.51306240532362      0.65694900650375
  N   1.29994961208121      1.14187801346911      0.26200338045472
  O   1.13887623644722      2.23716315739310     -0.27074765363037
  O   1.76014304622843      0.93083733789483      1.37909810379624
