17
Coordinates from ORCA-job run
  C   -0.66154090196250     -0.32706350923347     -0.21457111735843
  C   0.87948288823823     -0.41062853817765     -0.24365304636040
  F   -1.14897383657783     -1.01122580469182     -1.28968014709740
  H   1.13226697964246     -1.42756334391693     -0.54543605772234
  C   -1.28391253912445      1.03859724511285     -0.15796673456016
  H   -0.86599944729962      1.64648548518794      0.64145674648265
  H   -2.35692290167725      0.93639398106215      0.00582249649071
  H   -1.11648766688755      1.53813539381798     -1.11189239400362
  N   -1.02915245488636     -1.14803975903309      1.01662545143766
  O   -1.36383531037193     -0.53569769545895      2.02609222710349
  O   -0.88775658876681     -2.36151428264567      0.91087785720058
  N   1.57735490558369     -0.04957318811792      0.93889644709258
  H   1.24192882805371      0.80044241157196      1.36742595835130
  H   1.61660825327743     -0.80548146931651      1.60587579834823
  N   1.32714082144552      0.48249150405153     -1.37362945712249
  O   1.42273892402103     -0.02753801352442     -2.48568305514069
  O   1.51706004729222      1.66177958331203     -1.08956097314169
