17
Coordinates from ORCA-job run
  C   -0.54666801242225     -0.27629896849792      0.25405091760572
  C   0.73110266760292      0.34823824590838     -0.30655804046461
  F   -0.26534048153396     -1.56272822862610      0.61376243661939
  H   0.62202966172693      1.43273426656137     -0.33037370049815
  C   -1.71294764920177     -0.24861313088713     -0.69837900095984
  H   -1.47180297790409     -0.84415299173570     -1.57616827898957
  H   -1.92595575194167      0.77415809985983     -1.00585334871883
  H   -2.58641064333719     -0.66800333255846     -0.19486673821058
  N   -0.96711643626323      0.47340827299040      1.51205088993253
  O   -1.17600994158559      1.66967657196389      1.34529604792327
  O   -1.11144437512067     -0.16881211887022      2.53941302171719
  N   1.02660198085456     -0.17951262085987     -1.58419427537735
  H   1.79805939827259      0.31462967464929     -2.01158800041407
  H   1.27818355753988     -1.15816581515077     -1.51337635374231
  N   1.84135775045047      0.09003144485562      0.73485221951068
  O   1.70104666540699      0.64475935775052      1.81920190141384
  O   2.76731458745606     -0.64034872735315      0.40273030265267
