17
Coordinates from ORCA-job run
  C   -0.51211117221807     -0.32366846222184      0.24040829547070
  C   0.77375582684349      0.26464299640102     -0.35645861852775
  F   -0.33976138383168     -1.64373776903431      0.52312489561458
  H   0.56482852003731      1.24200729888456     -0.78666991182627
  C   -1.69575749452751     -0.16483021014686     -0.68264709734363
  H   -1.47993201726806     -0.65520453605167     -1.63271918986729
  H   -1.91281258200735      0.88980748895894     -0.85227566998471
  H   -2.56321007980292     -0.64774431378461     -0.22923412556529
  N   -0.84271335430165      0.39005542571131      1.53515606735096
  O   -1.21742841832795     -0.27629324186859      2.48558438495491
  O   -0.75017440424704      1.61415840051727      1.47041687300888
  N   1.39818589756332     -0.59188469445194     -1.30490544220645
  H   1.22739928303928     -0.33554325780242     -2.26275087743908
  H   1.23159584034582     -1.57146661708065     -1.13104061449845
  N   1.78188894454040      0.54739264403286      0.74097728716422
  O   2.48658879016522      1.53731452280870      0.59193403471472
  O   1.85065780399741     -0.27500567487176      1.65109970897994
