17
Coordinates from ORCA-job run
  C   -0.69834854655965     -0.34911718467709     -0.12799475698415
  C   0.82854095593233     -0.43642869601575     -0.11273122340976
  F   -1.16305077972764     -1.07050655537526     -1.19201680746200
  H   1.10147561152232     -1.49031877470952     -0.15436306061738
  C   -1.29734910172902      1.02617338686269     -0.14037483463549
  H   -2.38298589883423      0.93911156601622     -0.10805423993817
  H   -1.00508489124119      1.53577824078638     -1.05831337791154
  H   -0.97576821465509      1.60555641190458      0.72257521998838
  N   -1.13178402712826     -1.12704256871819      1.11714590210839
  O   -0.80691843003578     -2.30882008213267      1.13310207289475
  O   -1.75984955411912     -0.52956051153595      1.98201079533737
  N   1.35164993716275      0.20096844154445      1.03792342239661
  H   2.30143821459605     -0.09044960368162      1.22335858944293
  H   1.32664970821546      1.20830757067775      0.94028487140104
  N   1.32120504482952      0.14956288667634     -1.43508834310599
  O   1.53300403116902      1.36159767362491     -1.45123375865622
  O   1.45517594060256     -0.62581220124728     -2.37523047084878
