14
Coordinates from ORCA-job run
  C   0.88887505367567     -0.01709222119019     -0.15719723414386
  C   -0.42543028972670      0.02224080775524      0.11861095586771
  N   1.40677203899581     -0.00346742170551     -1.54265096530608
  O   2.37188238567883     -0.72961018936163     -1.75048646436410
  O   0.83776916449847      0.72881514375776     -2.34215595744898
  C   1.88503997477690     -0.09921695419063      0.85463808578990
  N   2.68905844410244     -0.15781140342665      1.71270473587062
  N   -1.39198163803307      0.05728577268769     -0.99087512226801
  O   -1.41775710923117     -0.91519584471722     -1.73709662156854
  O   -2.12072863656202      1.04280104564647     -1.02171669082434
  C   -1.05113893264731      0.01663195698943      1.46507680426989
  H   -0.30096522070153     -0.05125114742162      2.25243552393125
  H   -1.73973247923280     -0.82927921302968      1.54875533255712
  H   -1.62966275559350      0.93514966820653      1.59195761763744
