14
Coordinates from ORCA-job run
  C   0.88080634364958     -0.18738696239877     -0.10142602885632
  C   -0.41650841656655      0.10058770181818      0.09301877288943
  N   1.55782997165956      0.02680578754254     -1.39774431206365
  O   1.24786068540092      1.03054208303018     -2.02680018798721
  O   2.38152635213718     -0.82465876251159     -1.71199518816438
  C   1.70400246143556     -0.74546290696351      0.91646930887683
  N   2.35708582587784     -1.19474651502971      1.78644045096539
  N   -1.21948450809891      0.61766131772320     -1.02838559574961
  O   -1.73057577015173      1.71780327461361     -0.84881706487280
  O   -1.36768498698033     -0.12595316525535     -1.99239792766006
  C   -1.19128904938435     -0.07724295707927      1.34746091005473
  H   -1.55077899159213      0.89914388223155      1.68304552941754
  H   -2.06763564228494     -0.70168263830810      1.15194232252399
  H   -0.58515427510172     -0.53341013941296      2.12918901062614
