14
Coordinates from ORCA-job run
  C   0.88147558538463      0.13166641058892     -0.13112947455840
  C   -0.44160078471597     -0.02396911592667      0.04444121808283
  N   1.87314863450924     -0.73431328930297      0.54320475816232
  O   2.79770468170075     -1.12148207530478     -0.16158609519730
  O   1.68718034541557     -0.97005923153556      1.73020418722178
  C   1.43520104870580      1.11732870276374     -0.99376133485552
  N   1.86577089135414      1.95388158634896     -1.70149239193276
  N   -0.92244241750967     -1.10511262619176      0.92021933977942
  O   -0.60355932955958     -2.25072293451899      0.61923571418989
  O   -1.64472310582444     -0.75180254545339      1.84634253073321
  C   -1.52102777516702      0.79092904330964     -0.56952800020113
  H   -2.08502350804465      1.29227706782782      0.22043829088278
  H   -1.11423363654678      1.53322253451709     -1.25526333569266
  H   -2.21187062970204      0.13915647287793     -1.11232540661446
