14
Coordinates from ORCA-job run
  C   0.84377638688331     -0.19465383146924     -0.28510231435540
  C   -0.46842524318343     -0.05587506280116     -0.01428317459234
  N   1.83068496072000      0.71213593587793      0.34338303760687
  O   1.66617515204335      0.99359593468735      1.52577365449882
  O   2.73328829047493      1.10047485237633     -0.39011192567062
  C   1.42275778389839     -1.14629195305449     -1.16936023525327
  N   1.94487065339739     -1.94056226126814     -1.86426296568287
  N   -1.37826748516537     -1.01968522599725     -0.66261001724106
  O   -1.26166076251863     -1.20863053508710     -1.87028276987772
  O   -2.19497172391978     -1.54184239842991      0.09180190086963
  C   -1.14765881625016      0.90285089663685      0.89728845234601
  H   -0.54318027985548      1.78962433802801      1.07105890403561
  H   -1.33844782888363      0.42129918539173      1.85921337381709
  H   -2.10994108764088      1.18856012510909      0.46849407949924
