14
Coordinates from ORCA-job run
  C   0.86456989655280      0.09094720698921     -0.22197139518242
  C   -0.41701370426130     -0.06786745802703      0.14868072536579
  N   1.24347485666864      0.67589408991450     -1.52667971823356
  O   2.07971609795792      1.56983348693249     -1.47764158440613
  O   0.70700234502243      0.20500070656782     -2.52115648196282
  C   1.96055318098245     -0.26299572912316      0.61120143935122
  N   2.85446188362173     -0.57299621557589      1.31194832136214
  N   -1.47892651285759      0.38198561724549     -0.76614780362500
  O   -1.41498569055182      1.53639146715681     -1.17707796190454
  O   -2.36258655601622     -0.43887250585018     -0.99446348989252
  C   -0.90565642056895     -0.66636713387008      1.41730530239285
  H   -1.58138434322302      0.03056169393897      1.92103815623018
  H   -0.07853311783390     -0.90872017557783      2.08451354247607
  H   -1.47069191549318     -1.57279505072111      1.18945094802874
