14
Coordinates from ORCA-job run
  C   0.88808973343060     -0.03942691876409     -0.15746318031533
  C   -0.43623334265011      0.05417446057481      0.04838708510183
  N   1.76756207084144     -0.83694950444577      0.72407203751665
  O   2.62881376941876     -1.49499957574243      0.15187098962275
  O   1.56384985741409     -0.75993780246972      1.92880398830223
  C   1.54527608286047      0.59542608362853     -1.24702698005219
  N   2.06426954881910      1.14592993882197     -2.14895815312325
  N   -1.03844756845488     -0.67200903783382      1.17824403630253
  O   -0.94542282854564     -1.89485754807624      1.16708741634404
  O   -1.62663791017580      0.02474200511432      1.99809039823135
  C   -1.41036468807616      0.82660389675557     -0.76476743914505
  H   -2.19723046581692      0.15893648969013     -1.12723023609799
  H   -1.87816221378806      1.58632938462424     -0.13402466234969
  H   -0.92636204527689      1.30603812812252     -1.61508530033788
