14
Coordinates from ORCA-job run
  C   0.85162347016324     -0.10136915246772     -0.24274346070428
  C   -0.42243416868802      0.02930837122380      0.16672991624889
  N   1.23841437572595     -0.03377775589178     -1.66940124281452
  O   0.90672022399131      0.96884984138654     -2.28726861494167
  O   1.88123000239108     -0.99355650103455     -2.07766119114154
  C   1.93519862938344     -0.32250979630008      0.64886549094105
  N   2.82444784699392     -0.49071521542148      1.40225142670001
  N   -1.46517862264355      0.23520136887134     -0.84851508615742
  O   -2.27037926123326      1.13128828013054     -0.61213023959288
  O   -1.46214006538915     -0.51518919000177     -1.82109633176875
  C   -0.90442738519133      0.02070826731525      1.57238781575842
  H   -0.08617083136954     -0.17807836384674      2.26500667847816
  H   -1.34913340183345      0.99088470680424      1.80265361512325
  H   -1.67877081230063     -0.74104486076760      1.70092122387126
