14
Coordinates from ORCA-job run
  C   0.85358312048256      0.05175102728299     -0.27239188744169
  C   -0.41029091275219     -0.03784586783937      0.17548009778344
  N   1.17374899343688      0.34399501746059     -1.68637567412826
  O   0.61930038662839     -0.34428623884346     -2.53353483381115
  O   1.98701375892754      1.24251195142931     -1.86459765862888
  C   1.98419221911074     -0.10316703901191      0.57520290552705
  N   2.90092241482193     -0.24621707126842      1.30002615189059
  N   -1.51406231078022      0.18978884986496     -0.77180713248678
  O   -2.39607070337188     -0.66403410371161     -0.77074001795990
  O   -1.48110435959236      1.22052768270153     -1.43692874682942
  C   -0.83750463866510     -0.35299736176969      1.56282956999295
  H   -1.39727313189556     -1.29061874578976      1.55971558426967
  H   -1.50214078379069      0.43151286282950      1.93525533673554
  H   0.02068594743995     -0.44092096333466      2.22886630508683
