14
Coordinates from ORCA-job run
  C   0.85231295872486     -0.25034623612001     -0.20143067373929
  C   -0.46500436758202     -0.07026740575025      0.00994414853144
  N   1.83223322573306      0.69535676780178      0.37828539571580
  O   1.69649384950190      0.99161773720025      1.56065102134609
  O   2.70142135555218      1.09311661995544     -0.38966299337078
  C   1.44123776785033     -1.25181886861115     -1.02193323654530
  N   1.96952035633993     -2.06431553106068     -1.69055360938984
  N   -1.36981628199703     -1.04090581637297     -0.64370089137387
  O   -2.32123630252870     -0.55753808496813     -1.25131258507249
  O   -1.11147338399633     -2.23447137614850     -0.51088287010385
  C   -1.16191976966713      0.98392571669072      0.79001364536599
  H   -1.63474445284537      0.52887683738764      1.66611209094654
  H   -1.94718302583565      1.41811451538223      0.16975522060655
  H   -0.48084192925001      1.75765512461364      1.13271533708302
