14
Coordinates from ORCA-job run
  C   0.85076440638352     -0.25780703090546     -0.19495339382226
  C   -0.46615873976778     -0.07754063026098      0.01916602529615
  N   1.82494583149672      0.72855299867506      0.32542289656015
  O   1.71308784787519      1.06347806387451      1.49989711232861
  O   2.66560354508881      1.11577496396406     -0.47869473792881
  C   1.44786475296133     -1.29430822622120     -0.96410806766993
  N   1.99128167211846     -2.12687647605108     -1.59509636028436
  N   -1.37115401404931     -1.08796112205870     -0.57156615175774
  O   -1.07741119259144     -2.27107495171647     -0.41954881656922
  O   -2.35844852527851     -0.64571812037841     -1.15284377001716
  C   -1.16104939344878      1.01659456624392      0.74382062789119
  H   -1.64788621047883      0.60622777404274      1.63387020272715
  H   -0.47586951182123      1.79897681451279      1.05707932284337
  H   -1.93657046848818      1.42968137627921      0.09755511040287
