14
Coordinates from ORCA-job run
  C   0.87942852323012     -0.04010552099866     -0.24206454560779
  C   -0.41455128870231      0.01319234370879      0.12278655709521
  N   1.35019524484039      0.16761926754182     -1.62994469239432
  O   0.49831877006650      0.26826718082541     -2.50269315591966
  O   2.56672562015145      0.21891803242720     -1.77590831464986
  C   1.91045391161657     -0.29052883027221      0.70942504941608
  N   2.71935578696402     -0.50495724084649      1.53704831367842
  N   -1.47723767046615      0.27732541971440     -0.85984587323378
  O   -2.03425709045811     -0.71124060560074     -1.31821057523057
  O   -1.75458696331218      1.45526091047125     -1.04486380887359
  C   -0.94700184779524     -0.17925229336131      1.49734738751127
  H   -1.62958089948975     -1.03398097968883      1.49872320555195
  H   -1.51687584111718      0.70850683693357      1.78715451160651
  H   -0.15038625552812     -0.35002452085420      2.22004594105013
