14
Coordinates from ORCA-job run
  C   0.89263831552857      0.02130668545679     -0.19044023436012
  C   -0.42418989387621     -0.00404452881642      0.08454859412651
  N   1.84883700946112     -1.00968275467789      0.27247776330428
  O   3.02203832228692     -0.82040304484833     -0.02967409860377
  O   1.39446784556484     -1.95125692648826      0.90860792036200
  C   1.47216195399063      1.07238908772244     -0.95862256096636
  N   1.89569069229815      1.96475405935434     -1.59873295897815
  N   -1.02082445032510     -1.08541183950765      0.88403638666338
  O   -1.48740044935631     -2.02127826720329      0.24796252357714
  O   -1.07324948977164     -0.89073632306322      2.09123880013090
  C   -1.43014235978311      0.99970707062864     -0.35252292331436
  H   -2.19692737509077      0.49936194564428     -0.95063015350948
  H   -1.91535084765168      1.42780651996202      0.52948136102649
  H   -0.97674927327539      1.79748831583656     -0.93873041945846
