14
Coordinates from ORCA-job run
  C   0.85322537648023     -0.25963847382323     -0.18518065335363
  C   -0.46493614327579     -0.06736671054846      0.01104978388579
  N   1.83499975646398      0.69794131607948      0.37242752020487
  O   2.72502483566319      1.04958944046393     -0.39405712930717
  O   1.68047896595463      1.04797236187542      1.53756671445437
  C   1.44071244465121     -1.28831690540498     -0.97222220873467
  N   1.96413267289964     -2.11974200357356     -1.62118539503581
  N   -1.36749863645377     -1.05657905907342     -0.61805759483424
  O   -1.12100656842276     -2.24555928297643     -0.43262986068199
  O   -2.30495972705600     -0.59086371446598     -1.26005514879686
  C   -1.16536823153216      1.01460135343928      0.74889345038125
  H   -1.95114968820545      1.42134681637518      0.11073006611381
  H   -0.48667983947732      1.80328170257509      1.06081279412876
  H   -1.63797521768964      0.59333315905767      1.64190766157550
