14
Coordinates from ORCA-job run
  C   0.83012258896942     -0.05735730182794     -0.26305066214626
  C   -0.45315554716332      0.02275645401083      0.14549825632116
  N   1.30217871529332      0.12225222937222     -1.65575331039895
  O   1.55683804480198      1.27098682397080     -1.98654854079859
  O   1.45642997046671     -0.90689911842964     -2.29624005657335
  C   1.89389491585427     -0.34260480445127      0.63687717202559
  N   2.78282155621731     -0.58306858299804      1.37189097952302
  N   -1.51534486875045      0.31338300406943     -0.83491907834629
  O   -2.64135318935115      0.48300073745611     -0.36938187450493
  O   -1.21136137453860      0.36176210050906     -2.02421045354941
  C   -0.90652568263956     -0.14410647114335      1.55243953502160
  H   -1.67136124215415     -0.92065372269526      1.61488994620022
  H   -1.35392991813774      0.78574616578131      1.91032749409509
  H   -0.06925396886805     -0.40519751362426      2.19918059313110
