14
Coordinates from ORCA-job run
  C   0.85147299702703     -0.05400466740611     -0.19646462139839
  C   -0.46003011104497      0.02634623286086      0.11065095768891
  N   1.45283337619615      0.30656345872970     -1.50129265165095
  O   1.56750854252953     -0.60984880263761     -2.30154099830197
  O   1.83435855228798      1.46273491855621     -1.60732594259701
  C   1.81755900418306     -0.51085573748787      0.74158463690366
  N   2.62372281501962     -0.88672992037675      1.51416591558505
  N   -1.42006613599575      0.50800436835574     -0.90181858914759
  O   -0.99179088438190      0.80051929374288     -2.01555081861803
  O   -2.59275823438641      0.57737382005021     -0.53738946895046
  C   -1.04913735476858     -0.33871861557483      1.42692106903929
  H   -1.55902245064080      0.52491331795402      1.85817086118608
  H   -0.27876543531185     -0.68408519117351      2.11584640562346
  H   -1.79588468071309     -1.12421247559294      1.29504324463796
