14
Coordinates from ORCA-job run
  C   0.82803260614645     -0.17420316721415     -0.33718023000526
  C   -0.46488016913802     -0.07278150990171      0.02364024165765
  N   1.80369610406683      0.83982225708664      0.12120815135778
  O   1.48511599516287      2.01839413138089      0.00463731556195
  O   2.85116932900335      0.39763113523940      0.57933733912689
  C   1.41128273913893     -1.23724552335572     -1.07987294803258
  N   1.93724357227344     -2.10214356077016     -1.68142333641305
  N   -1.35775121121110     -1.15460800341397     -0.44476223170036
  O   -2.08000721523271     -1.65878263466730      0.41060036355426
  O   -1.31546563156674     -1.44605125576151     -1.63742237239742
  C   -1.13468493112347      0.95596734280899      0.85960889091372
  H   -0.42200972500504      1.61971998505266      1.34158906336172
  H   -1.79462521337046      1.56020070485331      0.22908582716621
  H   -1.74711624914433      0.45308009866264      1.60895392584847
