14
Coordinates from ORCA-job run
  C   0.85136144413775     -0.16129499448567     -0.28516977111281
  C   -0.44909465417820     -0.08876295246822      0.05563570933409
  N   1.77018163730349      0.96468971111984     -0.02206137366309
  O   2.93164919580440      0.65995416396509      0.22611057469503
  O   1.29819117546909      2.09664446164068     -0.06428177506056
  C   1.46324165963357     -1.31083754246461     -0.85943036747539
  N   1.95384598061947     -2.26406592336749     -1.34527225616249
  N   -1.23872178722240     -1.30225100671496     -0.23135050327546
  O   -1.52624676028158     -1.51324390320933     -1.40537444264508
  O   -1.54974413174708     -1.96935879632245      0.74953344882114
  C   -1.22457616539630      1.01314082099282      0.68402685335113
  H   -1.62568431646729      1.67083419770976     -0.09343951780461
  H   -2.05258999346275      0.58701286185782      1.25355592525079
  H   -0.60081328421218      1.61753890174674      1.33951749574732
