14
Coordinates from ORCA-job run
  C   0.83984945269229     -0.18349919289985     -0.30206803785738
  C   -0.46570071121774     -0.06112461827736      0.00224048633818
  N   1.82068278758207      0.78802477976909      0.23129629402315
  O   2.83548155628554      0.30203376220320      0.71834602042345
  O   1.54174288996817      1.97855928323336      0.13677898698186
  C   1.42967791979659     -1.23722141064395     -1.05382796009762
  N   1.95827598932651     -2.09489027765576     -1.66307486300916
  N   -1.36380042560197     -1.10119753020803     -0.54576805681435
  O   -2.15052103643683     -1.60242410521073      0.25289746538585
  O   -1.26696825071805     -1.35808171566714     -1.74327983173474
  C   -1.15110161860985      0.95378140669726      0.84153412760367
  H   -0.44847594680159      1.62557931476071      1.32642939167094
  H   -1.76012288528065      0.43937437342347      1.58617588628338
  H   -1.81901972098446      1.55108593047575      0.21332009080276
