14
Coordinates from ORCA-job run
  C   0.84309231781600     -0.19077839272451     -0.28800827161296
  C   -0.46684909109722     -0.05449966332613     -0.00968052510798
  N   1.82593258451746      0.75516986815786      0.28859604560580
  O   1.56905365171653      1.95176982206231      0.20829035046148
  O   2.82118472865049      0.24325713417471      0.78941646595517
  C   1.43447968430567     -1.23538859579598     -1.05058179487643
  N   1.96760004043510     -2.08342105503000     -1.66928219452078
  N   -1.36780975977072     -1.07095803944999     -0.59433422310276
  O   -2.17240175741319     -1.57957487050047      0.18140095313184
  O   -1.25431920110558     -1.30459693347429     -1.79505060832390
  C   -1.15622929738854      0.95480116527132      0.83389854615813
  H   -1.81033609601935      1.56566515438949      0.20456599087251
  H   -1.77869238544959      0.43464476409328      1.56315153643293
  H   -0.45470541919707      1.61290964215242      1.33861772892696
