14
Coordinates from ORCA-job run
  C   0.85222674230406     -0.24032688053062     -0.21280017479776
  C   -0.46265035085924     -0.07911456132535      0.02679455278486
  N   1.82779562553682      0.74443791040717      0.30680200288785
  O   2.68030887766017      1.11695635639272     -0.49181598714235
  O   1.70642335453712      1.09272216178734      1.47648540981989
  C   1.43987019227395     -1.26024435648259     -1.01120125821686
  N   1.95747828174324     -2.07912619995937     -1.68042720137229
  N   -1.36183954433919     -1.09363653733539     -0.56616676920059
  O   -2.33570854287205     -0.65444739831969     -1.17161418057701
  O   -1.07618135162078     -2.27528636576332     -0.39044534646453
  C   -1.16257837815090      0.99074017969256      0.78238000889265
  H   -1.98520385518154      1.36856753492292      0.17397450345225
  H   -1.58473393516735      0.56633499530544      1.69887299682942
  H   -0.49420711586431      1.80142316120821      1.05816144310449
