14
Coordinates from ORCA-job run
  C   0.84179855346141     -0.20777758851032     -0.27572753867978
  C   -0.46877459606651     -0.05203889826288     -0.00991644457818
  N   1.82985599379752      0.73596394422914      0.29408614160102
  O   2.81779238804918      0.22162685728031      0.80676358402864
  O   1.58290307380083      1.93356335728649      0.20003461461200
  C   1.42901485527377     -1.26765582472191     -1.02014070819567
  N   1.95739323271421     -2.12748131457374     -1.62671145590470
  N   -1.37690410455174     -1.06692139685712     -0.58807929756409
  O   -2.20674363044516     -1.54116432311126      0.18294812213155
  O   -1.24027195919016     -1.33725237342172     -1.77845764914855
  C   -1.14954824015762      0.98397977833857      0.80841412249568
  H   -1.74320116828475      1.62754256475575      0.15149474671563
  H   -1.82882837534128      0.49038097487283      1.50446167191720
  H   -0.44348602305969      1.60723424269585      1.34983009056923
