14
Coordinates from ORCA-job run
  C   0.84998326387863     -0.26219095375533     -0.19620526009443
  C   -0.46754585997881     -0.08142102049379      0.01800499603069
  N   1.81907302679466      0.75461383800085      0.27312395672459
  O   1.53574821404074      1.93317904261908      0.08534584008396
  O   2.82771881524788      0.31286691949729      0.81238921728323
  C   1.45993942532535     -1.37945693261602     -0.82983617027640
  N   2.00983603986907     -2.26412509691433     -1.37883361275362
  N   -1.37047621284947     -1.12691814352365     -0.50086949520964
  O   -1.08082555457592     -2.30235583640926     -0.29496258138880
  O   -2.35843503855359     -0.70416697500545     -1.09635757027134
  C   -1.16406986100205      1.06326247595520      0.66319269530091
  H   -2.01997546113544      0.69212638510043      1.22984790422024
  H   -1.53953856751204      1.74390581442745     -0.10443856175827
  H   -0.50043222954901      1.61968048311752      1.32059864210889
