14
Coordinates from ORCA-job run
  C   0.84914627111203     -0.25499631272170     -0.20029104693951
  C   -0.46841424440454     -0.07144983612034      0.01056777648102
  N   1.82813311203456      0.70113789389175      0.36503736278936
  O   2.71398771884667      1.06690351190097     -0.39978162074832
  O   1.67595606013717      1.03638026446282      1.53491504059992
  C   1.44252836611825     -1.26748344067446     -1.00370397493295
  N   1.98106989237927     -2.08128554917344     -1.66267711740809
  N   -1.37412438943790     -1.05656822529108     -0.62222285160371
  O   -1.08709108674677     -2.24550613411429     -0.50897920540539
  O   -2.35370556260045     -0.58967962015296     -1.19756838863317
  C   -1.15972931735857      0.99932719948935      0.77345412196475
  H   -1.98734595829219      1.37752511233370      0.17230782309249
  H   -0.48853717947804      1.81010847995303      1.04320536856246
  H   -1.57187368230949      0.57758665621665      1.69573671218115
