17

C	-0.443326	0.005077	-1.43961
C	0.0	0.0	0.0
Cl	-2.340791	0.358143	-1.509459
H	1.092721	0.0	0.0
C	0.124858	1.064722	-2.279693
N	0.518358	1.798727	-3.108593
N	-0.164949	-1.232432	-2.056241
H	-0.418821	-1.22014	-3.034869
H	-0.631981	-1.993267	-1.583746
C	-0.391433	-1.23801	0.768467
H	0.180891	-2.084442	0.380417
H	-1.466011	-1.442532	0.732317
H	-0.09363	-1.100771	1.80561
N	-0.366168	1.226906	0.67759
O	-0.348232	2.272	0.011587
O	-0.536169	1.199404	1.906105
H	2.465438	0.0	0.0
