17

C	-0.291458	-0.178004	-1.48061
C	0.0	0.0	0.0
Cl	-2.046582	-0.580288	-1.785586
H	1.109175	0.0	0.0
C	0.018377	1.011941	-2.28811
N	0.304366	1.88375	-3.020812
N	0.513803	-1.254383	-2.037118
H	1.470226	-1.07017	-1.700049
H	0.210611	-2.124753	-1.614591
C	-0.375426	-1.168768	0.888069
H	-0.005285	-2.099946	0.456915
H	-1.455972	-1.244185	1.043551
H	0.12547	-1.033234	1.846985
N	-0.509926	1.238526	0.580917
O	-1.025586	2.090208	-0.155494
O	-0.359341	1.38548	1.800153
H	2.563283	0.0	0.0
