17

C	-0.27106	0.106696	-1.517745
C	0.0	0.0	0.0
Cl	-0.384566	-1.688396	-2.22106
H	1.093766	0.0	0.0
C	-1.6086	0.617198	-1.851212
N	-2.673064	1.05527	-2.088999
N	0.747167	0.831626	-2.10756
H	0.757391	0.804612	-3.116812
H	1.656452	0.638947	-1.659265
C	-0.568323	-1.184444	0.736754
H	-0.047136	-2.082786	0.412067
H	-1.642497	-1.305333	0.581387
H	-0.386199	-1.048551	1.802685
N	-0.434863	1.277793	0.629102
O	0.07929	2.319724	0.22124
O	-1.259647	1.228172	1.550638
H	2.698963	0.0	0.0
