17

C	-0.270462	0.238482	-1.494441
C	0.0	0.0	0.0
Cl	-0.193126	-1.485107	-2.341205
H	1.101411	0.0	0.0
C	-1.63519	0.653561	-1.846884
N	-2.731819	0.945627	-2.151411
N	0.712391	1.092874	-1.978186
H	0.723614	1.183212	-2.984
H	1.628384	0.844992	-1.576055
C	-0.555374	-1.251618	0.638366
H	-0.423244	-1.17184	1.715564
H	-1.615772	-1.396346	0.409994
H	0.005909	-2.115626	0.288362
N	-0.393759	1.195817	0.784566
O	-0.807682	2.20404	0.203777
O	-0.216228	1.129273	2.004999
H	2.658437	0.0	0.0
