17

C	-0.293828	-0.137374	-1.47715
C	0.0	0.0	0.0
Cl	-2.086084	-0.447664	-1.79209
H	1.109376	0.0	0.0
C	0.030701	1.039881	-2.306033
N	0.357664	1.822593	-3.120478
N	0.457081	-1.286132	-1.916755
H	0.483108	-1.309803	-2.930636
H	1.414156	-1.155884	-1.556456
C	-0.432609	-1.188719	0.82982
H	-0.239162	-2.099141	0.264596
H	-1.491921	-1.137913	1.089258
H	0.157766	-1.207303	1.746794
N	-0.442326	1.252546	0.590714
O	-0.620109	1.268075	1.816284
O	-0.510829	2.262984	-0.122167
H	2.531954	0.0	0.0
