17

C	-0.289611	0.10148	-1.481953
C	0.0	0.0	0.0
Cl	-2.050669	-0.258441	-1.888644
H	1.109531	0.0	0.0
C	-0.033005	1.432385	-2.064373
N	0.249441	2.3918	-2.683532
N	0.542057	-0.899143	-2.099983
H	0.600396	-0.730407	-3.097325
H	1.479791	-0.79502	-1.681417
C	-0.39654	-1.322568	0.624325
H	-1.468361	-1.368349	0.833332
H	-0.126657	-2.124585	-0.061986
H	0.161533	-1.447685	1.552635
N	-0.499877	1.112588	0.797468
O	-0.353281	1.018161	2.021551
O	-0.990727	2.101402	0.237486
H	2.562559	0.0	0.0
