17

C	-0.513194	0.030963	-1.432227
C	0.0	0.0	0.0
Cl	0.451626	1.268511	-2.423116
H	1.09999	0.0	0.0
C	-0.202683	-1.242081	-2.101005
N	-0.017131	-2.251036	-2.673345
N	-1.921924	0.249154	-1.521788
H	-2.205091	0.287891	-2.494408
H	-2.104483	1.145781	-1.081892
C	-0.316087	-1.297569	0.72216
H	0.058449	-1.211043	1.740095
H	0.224451	-2.1131	0.238318
H	-1.387149	-1.51563	0.731177
N	-0.410522	1.141191	0.761185
O	-0.874663	2.154936	0.182099
O	-0.139283	1.13244	1.977732
H	2.405864	0.0	0.0
