17

C	-0.513557	0.019388	-1.455053
C	0.0	0.0	0.0
Br	0.287377	-1.485576	-2.435679
H	1.095543	0.0	0.0
C	-2.03242	-0.103541	-1.569737
H	-2.512047	0.741707	-1.069563
H	-2.360639	-1.033681	-1.103172
H	-2.332719	-0.106052	-2.618331
C	-0.081474	1.246363	-2.123374
N	0.162586	2.260764	-2.665988
C	-0.484034	-1.204253	0.668696
N	-0.929596	-2.135965	1.229981
C	-0.426991	1.243247	0.792102
H	-1.509307	1.311013	0.928142
H	-0.060666	2.141997	0.292545
H	0.046294	1.197815	1.774775
Br	3.436464	0.0	0.0
