17

C	-0.376563	0.018566	-1.489114
C	0.0	0.0	0.0
Br	-2.358696	-0.010042	-1.720365
H	1.098941	0.0	0.0
C	0.171329	1.254602	-2.191743
H	-0.320736	2.151514	-1.814382
H	1.246534	1.304166	-1.987322
H	-0.002522	1.187736	-3.266665
C	0.102111	-1.194594	-2.150362
N	0.494445	-2.166993	-2.683388
C	-0.46924	-1.223484	0.644868
N	-0.846194	-2.187948	1.200652
C	-0.450296	1.229434	0.788522
H	-1.533997	1.363012	0.754281
H	-0.140311	1.105171	1.827531
H	0.047172	2.121944	0.407657
Br	3.403266	0.0	0.0
