17

C	-0.418661	-0.017055	-1.487026
C	0.0	0.0	0.0
Br	0.223831	1.63173	-2.351764
H	1.096738	0.0	0.0
C	0.215585	-1.198023	-2.216655
H	-0.175231	-2.131627	-1.804077
H	1.296024	-1.155276	-2.056159
H	-0.00918	-1.154938	-3.283538
C	-1.875317	-0.011248	-1.625226
N	-3.047371	-0.030321	-1.720383
C	-0.465456	-1.248738	0.60444
N	-0.871871	-2.236324	1.095724
C	-0.512397	1.188794	0.810815
H	-1.604779	1.247234	0.798092
H	-0.091717	2.112832	0.415179
H	-0.175658	1.081122	1.843686
Br	3.468856	0.0	0.0
