17

C	-0.516153	0.012113	-1.454333
C	0.0	0.0	0.0
Br	0.289398	-1.492438	-2.432615
H	1.095514	0.0	0.0
C	-2.034975	-0.115948	-1.565899
H	-2.515931	0.729937	-1.06785
H	-2.336345	-0.121991	-2.614293
H	-2.360437	-1.04532	-1.096194
C	-0.089448	1.238532	-2.12604
N	0.180495	2.268417	-2.625186
C	-0.48296	-1.203203	0.671448
N	-0.925057	-2.144078	1.219797
C	-0.425832	1.246687	0.787541
H	-1.508061	1.318092	0.920616
H	-0.055601	2.142281	0.285549
H	0.04544	1.202702	1.771017
Br	3.439725	0.0	0.0
