12

C	-0.088991	0.174947	-0.005237
C	-0.665196	0.151502	-1.420874
Cl	1.607526	-0.429481	0.029212
H	-1.676365	0.552751	-1.290718
H	-0.068485	1.181916	0.416484
H	-0.74532	-0.517034	0.541218
N	-0.839564	-1.17747	-1.981664
H	0.053514	-1.657285	-1.921404
H	-1.478989	-1.589601	-1.258795
C	0.076389	1.042611	-2.329991
N	0.664546	1.769403	-3.040846
F	-2.278284	-1.481249	0.175325
