12

C	-0.057573	0.18035	0.011116
C	-0.60104	0.26969	-1.414798
Cl	1.692122	-0.247316	0.027237
H	-1.651053	0.547014	-1.27011
H	-0.151609	1.125564	0.549633
H	-0.648156	-0.635814	0.450819
N	-0.624146	-0.992383	-2.134373
H	0.312967	-1.382611	-2.102105
H	-1.231061	-1.551559	-1.486042
C	0.060498	1.335047	-2.188367
N	0.587973	2.193667	-2.791706
F	-2.064774	-1.698728	-0.075387
