12
Coordinates from ORCA-job run
  C   -0.72668331974548      0.00341882431512     -0.26675608411301
  C   0.47866745547880     -0.28492298585476      0.63474812881389
  Cl  -0.91690351798090     -1.32222017871293     -1.45316076496225
  H   0.32335017927101     -1.21598703425339      1.17722201059260
  H   0.63184475176049      0.54075930009448      1.33438833715199
  C   -1.90852950758931      0.02354179235376      0.60283451473815
  N   -2.82661937003791      0.03373253671332      1.33671977717494
  C   -0.63766735584842      1.29021974747734     -0.96215079810133
  N   -0.63168451515429      2.34817397475134     -1.47341752020182
  N   1.75301839394881     -0.44076452419313     -0.13481803467849
  O   1.88330724864364      0.22221487961826     -1.15704829146345
  O   2.57889955725356     -1.19716633230942      0.36243872504877
