12
Coordinates from ORCA-job run
  C   -0.65532474151136      0.38287449228866     -0.15410125643218
  C   0.46439568188007     -0.30139952224758      0.63738690410571
  Cl  -0.28951734096772      2.12561164325751     -0.32491923426698
  H   0.54218741018834      0.14048448770308      1.62939264738667
  H   0.27031789934761     -1.37425734972985      0.71519268008196
  C   -0.88321225692103     -0.21437117411804     -1.47277702231183
  N   -1.14358303938815     -0.71766205158652     -2.50222684558286
  C   -1.88076560898158      0.24003969029679      0.64076549273097
  N   -2.83653840329091      0.10104660853104      1.31055979758161
  N   1.80659481802368     -0.15044370794665     -0.00830699172481
  O   1.84492895668169     -0.08216483724077     -1.23108942271185
  O   2.76151662493935     -0.14975827920766      0.75912325114359
