12
Coordinates from ORCA-job run
  C   -0.70593756992196      0.01438786942741     -0.31623379478943
  C   0.81037398503353      0.17629609628967     -0.16087580958351
  Cl  -1.06852115659515     -1.59822304414940     -0.99892986303309
  H   1.04101260199227      1.13902466153991      0.30248628057641
  H   1.29439384364439      0.09784299451042     -1.13286589929481
  C   -1.44185454899345      0.20692734104202      0.93637648329560
  N   -2.06691961145025      0.43316882489860      1.90543412811334
  C   -1.14259353196252      1.03682306009152     -1.27425398205795
  N   -1.44691068401348      1.87249783395152     -2.04265165991343
  N   1.41711022522353     -0.87940939547800      0.70987871478824
  O   0.73937944801494     -1.30874377343583      1.63593357662780
  O   2.56946699902815     -1.19159246868786      0.43470182527081
