12
Coordinates from ORCA-job run
  C   -0.73511896613787      0.02446122340039     -0.23942233630902
  C   0.49512640957773     -0.30110951354740      0.61484613695617
  Cl  -1.00375187677350     -1.28698457900791     -1.42552191446732
  H   0.69773948772114      0.51700877885097      1.31085972039142
  H   0.33473486460599     -1.23035934311200      1.15903270008138
  C   -1.88239549408643      0.07021477731355      0.67445599964539
  N   -2.77129985375346      0.10155694733642      1.44271158081161
  C   -0.63867801074102      1.31379566690684     -0.92909893962617
  N   -0.62762633290170      2.37618177740157     -1.43125586006562
  N   1.73381734229094     -0.48853048816195     -0.20444526012748
  O   2.55372922971117     -1.27613402515756      0.25222330802936
  O   1.84472320048700      0.17989877777708     -1.22538513531969
