12
Coordinates from ORCA-job run
  C   -0.73683008805522      0.04031865134915     -0.23329382755867
  C   0.49490853152538     -0.32564193839482      0.60213450364922
  Cl  -1.03465879584984     -1.23420232633032     -1.45251699262110
  H   0.32677720982737     -1.26850915754509      1.12004872805688
  H   0.71166407637136      0.46866646459354      1.32106670288074
  C   -1.87667819246420      0.07731084904760      0.69030078950969
  N   -2.75913924601302      0.09876453728600      1.46632154863884
  C   -0.62641782844558      1.34670153272676     -0.88806185513729
  N   -0.60383046486979      2.42256097577330     -1.36020923405880
  N   1.72619133048232     -0.50393942342386     -0.23043128521237
  O   1.83268556668327      0.18160641364440     -1.24042529154557
  O   2.54532790080796     -1.30363657872667      0.20606621339842
