12
Coordinates from ORCA-job run
  C   -0.77035817310922     -0.08528894037899     -0.22712398231171
  C   0.46025948236921     -0.36402573829166      0.65648873816879
  Cl  -1.19884079605823     -1.49169747681734     -1.24280507275517
  H   0.52943878033495      0.38929068573428      1.44016139669370
  H   0.38806745467716     -1.36832908173803      1.07554974321427
  C   -1.89833889264046      0.18630294778593      0.66988809102479
  N   -2.77748902738887      0.39410728419736      1.42167888925094
  C   -0.53299461522974      1.08179224729487     -1.08122018630102
  N   -0.31765324691414      2.02652468187615     -1.74652287757483
  N   1.72741396979376     -0.27732350273882     -0.13094810658833
  O   1.83602540331164     -1.03336200785678     -1.09004304810067
  O   2.55446966085394      0.54400890093303      0.25489641527924
