12
Coordinates from ORCA-job run
  C   -0.81594076451304     -0.21439075961913     -0.18132278083011
  C   0.53591898333729     -0.76611561997882      0.29589688840117
  Cl  -1.98584292588554     -1.57028177235161     -0.05275474006148
  H   0.90707745347847     -1.50096031935636     -0.41911499538944
  H   0.42822660482669     -1.19214428867036      1.29118511098147
  C   -1.25370405718224      0.87543503572071      0.69386801052408
  N   -1.57563468363361      1.74519480569332      1.41602959204805
  C   -0.79002273386046      0.23572059000435     -1.57397759707389
  N   -0.81000666045573      0.56946172833708     -2.70065699112592
  N   1.54181390837934      0.33557830701963      0.38958877981770
  O   1.81337976870603      0.91207833377190     -0.66007518945607
  O   2.00473510680281      0.57142395942929      1.50133391216443
