12
Coordinates from ORCA-job run
  C   -0.82495057517647     -0.14446140214964     -0.20517549604540
  C   0.48134334902523     -0.81913820481622      0.23949694667137
  Cl  -1.98859219480320     -1.47168786840092     -0.53548516915336
  H   0.34169561726961     -1.28510591098037      1.21544722229690
  H   0.79533851734809     -1.54301953362771     -0.50942892507640
  C   -1.40200160462162      0.72033374663530      0.82549224290868
  N   -1.91361417535765      1.38607454667680      1.64770775186798
  C   -0.60715160866862      0.61416881836111     -1.43895187167282
  N   -0.39938857345827      1.21360422734008     -2.42841109556966
  N   1.57326317167748      0.19385576203212      0.36439763051061
  O   2.55647753259524      0.04200820181337     -0.35356445724952
  O   1.38758054417017      1.09336761711609      1.17947522051163
