12
Coordinates from ORCA-job run
  C   -0.81182613949273     -0.18942268270628     -0.22142932342209
  C   0.50967915209561     -0.78672213953112      0.28457659661513
  Cl  -2.00862155263761     -1.52807021400339     -0.19851814496679
  H   0.89456098504744     -1.50015723392192     -0.44489359720714
  H   0.35497767329264     -1.24989605154774      1.25683576088877
  C   -1.26670852105130      0.86912939226968      0.68299898288304
  N   -1.60482770465744      1.71200531439220      1.42920676926674
  C   -0.72254828096462      0.31890182371042     -1.59118796574066
  N   -0.69423256695146      0.69507229787708     -2.70418327820121
  N   1.53249089656482      0.28866112219068      0.46135596755906
  O   1.85735425499412      0.89995934182283     -0.55300001724475
  O   1.95770180376052      0.46953902944755      1.59823824956990
