12
Coordinates from ORCA-job run
  C   -0.83419799780857     -0.13796914625442     -0.16913123686374
  C   0.47552587804541     -0.81633072130572      0.25938481061453
  Cl  -2.03438566562123     -1.45615223309374     -0.38541694843823
  H   0.75134614800055     -1.57578955884110     -0.46924098754424
  H   0.36174707558051     -1.23886018516298      1.25827213912636
  C   -1.35316955612064      0.79064396174120      0.83633015975333
  N   -1.81797514237200      1.50868529254054      1.64220976884733
  C   -0.65089007658062      0.55132646828167     -1.44847360049948
  N   -0.47136950781548      1.09255156065685     -2.47630259638063
  N   1.58732547431609      0.18150117261289      0.30504046420491
  O   1.45748252064686      1.10154346657375      1.10802481499914
  O   2.52956084972911     -0.00115007774895     -0.45969678781927
