12
Coordinates from ORCA-job run
  C   -0.82122772357813     -0.15791712569845     -0.21302101482987
  C   0.45195906378798     -0.80251512086657      0.35572282181071
  Cl  -2.08384608050178     -1.43279142254018     -0.19896273364909
  H   0.25924722036953     -1.15777223668890      1.36631633736352
  H   0.78209371150531     -1.60329065491347     -0.30468604822903
  C   -1.26249299542037      0.95536486255891      0.62981517143051
  N   -1.60906054397522      1.84272022449846      1.31841265817413
  C   -0.63568598181952      0.30106709560610     -1.59075655494332
  N   -0.50788856660983      0.65862712495943     -2.70306912726434
  N   1.54557363410148      0.21262207748605      0.43114448482913
  O   1.73138676935522      0.74420098209767      1.52270755842413
  O   2.15094149278533      0.43968419350096     -0.61362355311649
