12
Coordinates from ORCA-job run
  C   -0.72509347025908      0.01884328126239     -0.26752327499458
  C   0.47546360198217     -0.30260066228134      0.62970444102264
  Cl  -0.92056045839149     -1.27245417565654     -1.48979251024605
  H   0.63666789834249      0.50667893257355      1.34640571618499
  H   0.30896041572056     -1.24362217722359      1.15120984332331
  C   -1.90929206911191      0.02411525896873      0.59917391253198
  N   -2.82830809671124      0.01677289747951      1.33192958510465
  C   -0.62431223210705      1.32317324187061     -0.92782151401289
  N   -0.60881344901903      2.39424732065176     -1.41083233606053
  N   1.74728857460157     -0.45691492883506     -0.14404150219479
  O   2.55429569443488     -1.25391332325850      0.31949762495584
  O   1.89370359051812      0.24467433444848     -1.13790998561457
