12
Coordinates from ORCA-job run
  C   -0.66353641798495      0.37603962482222     -0.12731286426700
  C   0.46812415411885     -0.34667685125463      0.61208386570330
  Cl  -0.33285473833756      2.13388314399549     -0.15442872712519
  H   0.30249734941317     -1.42682066323904      0.58972721986708
  H   0.52592615507817      0.00682910212196      1.64018524037207
  C   -0.87349063256131     -0.11577957432278     -1.49165620365812
  N   -1.11690803719947     -0.53933955442446     -2.56035485024119
  C   -1.88830045221071      0.14380899508346      0.64684776863795
  N   -2.84282565478874     -0.06881703353397      1.29891976753951
  N   1.80919447109397     -0.10054665912350     -0.00527084411600
  O   2.75613505335013     -0.09972933606910      0.77229831802320
  O   1.85603875002843      0.03614880594435     -1.22203869073561
