12
Coordinates from ORCA-job run
  C   -0.73052047551593      0.04851817564175     -0.24441065572447
  C   0.48390210829096     -0.33786699203919      0.60691225594205
  Cl  -1.00521226863458     -1.20046993567776     -1.49527748549682
  H   0.30137023943844     -1.28805922258927      1.10632778081649
  H   0.69268508853778      0.44421595650936      1.34149001823413
  C   -1.88893283632179      0.07055492179825      0.65620591828286
  N   -2.78855926237599      0.08441256448137      1.41232432206260
  C   -0.60584261893368      1.36716464568806     -0.87142479504789
  N   -0.57381523962512      2.45157549577768     -1.32304341807973
  N   1.72716220605520     -0.50967796960056     -0.20883892576561
  O   2.52146999633059     -1.34452115717130      0.20776193253666
  O   1.86629306275413      0.21515351718162     -1.18702694776028
