12
Coordinates from ORCA-job run
  C   -0.63837084343215      0.40910578128766     -0.15312653047671
  C   0.46209863390883     -0.30705626113888      0.63737436386396
  Cl  -0.19033594589825      2.12563669375404     -0.38245782664937
  H   0.57828709447332      0.15580653065803      1.61601348868313
  H   0.21873787169522     -1.36711619936481      0.74579625336780
  C   -0.92208285714603     -0.21328000175843     -1.44918351934040
  N   -1.22919909697849     -0.73134649560259     -2.45821606851054
  C   -1.85337315704802      0.35003322632399      0.66784016455876
  N   -2.80261915490264      0.27599788779542      1.35692074424387
  N   1.79739163258973     -0.23586803525261     -0.03540681365783
  O   1.81552717796183     -0.22000407475551     -1.26047733146946
  O   2.76593864477667     -0.24290905194630      0.71492307538680
