12
Coordinates from ORCA-job run
  C   -0.71998524938233      0.01613609784916     -0.28144754115893
  C   0.46569082440430     -0.31180819863585      0.63238712221094
  Cl  -0.88402588578886     -1.25726809031689     -1.52781188329111
  H   0.29933304691615     -1.26616062580606      1.12908443138155
  H   0.60346298012085      0.48216062717434      1.37087095658372
  C   -1.92009113003903     -0.00183314916452      0.56270710195942
  N   -2.85265923130548     -0.02578346092533      1.27769771634232
  C   -0.61814817694705      1.33118550799131     -0.91978102615661
  N   -0.60939384343232      2.40881495152594     -1.38840099389924
  N   1.75624915811646     -0.43455336815788     -0.11605213424179
  O   1.90840171250716      0.27352980747820     -1.10425975698880
  O   2.57116579483016     -1.21342009901243      0.36400600725852
