12
Coordinates from ORCA-job run
  C   -0.82159762892800     -0.19916409995634     -0.17731053476363
  C   0.49233522014000     -0.77039879346905      0.37769111623921
  Cl  -2.01999958955848     -1.53249824019235     -0.11805579256535
  H   0.82879865442761     -1.59057618748978     -0.25443741506242
  H   0.34565796374020     -1.08180351376967      1.41061868293820
  C   -1.30893521372319      0.91133324956474      0.64341471400906
  N   -1.70523237600393      1.79766735389690      1.30580471711427
  C   -0.66925583228541      0.23802236358926     -1.56644514412981
  N   -0.55002339623673      0.58160935583912     -2.68410334321953
  N   1.54943116893374      0.28477291627803      0.36176043188007
  O   1.63613170272560      0.98964875724121      1.36444007361792
  O   2.22268932676859      0.37138683846793     -0.66237750605799
