13
Coordinates from ORCA-job run
  C   -0.52913423261135      0.06722928327861     -0.40972234197808
  C   0.73467447233822     -0.45516809165382      0.28785060052819
  Br  -0.36752818273147     -0.03565442457135     -2.33509384058283
  H   0.93072212592169     -1.45324450788876     -0.10291647336866
  H   0.48217908389451     -0.55551551434955      1.35364256615430
  C   -0.80119768481489      1.44092363736153     -0.01731262355947
  N   -0.93175937589099      2.55126506094917      0.34609165535630
  N   -1.71704677645032     -0.81337210550002     -0.01391465521965
  O   -2.77651564496758     -0.25491212383565      0.23696896864486
  O   -1.49393382498321     -2.01663957029723      0.00444157275375
  N   1.83514675144259      0.43753337116431      0.00611419319914
  H   2.70701690328537     -0.06423391288344     -0.06995244783096
  H   1.92737638556743      1.15278889822621      0.71380282590312
