13
Coordinates from ORCA-job run
  C   -0.43912135709519      0.21875341120997     -0.56826606621690
  C   0.81559835180915      0.37458447104234      0.30330512172617
  Br  0.01720219957755     -0.46080804254864     -2.31538298873986
  H   0.48399659190829      0.83871489102614      1.23437855990427
  H   1.48424229355073      1.07503925471366     -0.21199398447382
  C   -1.15285255631081      1.47823587802825     -0.71131824486830
  N   -1.68733669219915      2.52075675187105     -0.81050380874975
  N   -1.36586204171150     -0.76500640342977      0.17977567915813
  O   -1.72888289589824     -0.33325545885180      1.26662228534734
  O   -1.62898179131021     -1.84073277840367     -0.31877143403958
  N   1.36364301052689     -0.93320834992368      0.58213824145385
  H   2.03323611094842     -1.21730507553554     -0.11877504596805
  H   1.80711877620408     -0.95476854919832      1.48879168546651
