13
Coordinates from ORCA-job run
  C   -0.45913548554539      0.18064151368052     -0.56611342883232
  C   0.84505486716394      0.36543886460869      0.22297509073194
  Br  -0.12405978568526     -0.69166571196976     -2.25411121631263
  H   0.58305082420782      0.93700148980951      1.11571898153099
  H   1.51447246887440      0.97726219970536     -0.39408941537545
  C   -1.12797699557286      1.45051431817929     -0.80312266780940
  N   -1.62431257763516      2.50099749641739     -0.98328625239655
  N   -1.38420538115813     -0.67974384799231      0.32350258048600
  O   -1.71737522088545     -1.78661440895177     -0.04895078207171
  O   -1.67006276910539     -0.12511642306448      1.37704461825849
  N   1.35175527341035     -0.93179056318230      0.60985646152483
  H   1.84306102335074     -0.88035600838379      1.49026607643348
  H   1.97073375858038     -1.31656891885634     -0.08969004616765
