15
Coordinates from ORCA-job run
  C   1.04168249773161     -0.19704591639758      0.02746287738197
  C   -0.46102624626551     -0.02776751494975      0.29237879490195
  Br  1.97792725877376      0.02006013960057      1.84186906105799
  H   -0.68901177257878     -0.52659730588299      1.23954155025467
  H   1.45960934013046      0.65792290760928     -0.50615377705646
  N   1.35453114544398     -1.38561048405029     -0.64124339261730
  H   0.85885470040000     -2.18692934135192     -0.27749246791202
  H   2.34707506171591     -1.55877154615426     -0.70990784455536
  N   -1.21245330661789     -0.74744931407701     -0.73960906181179
  H   -0.94383227183318     -0.42094513676701     -1.66099805162275
  H   -2.20078937328425     -0.55570755153226     -0.61832427341689
  C   -0.81116723035704      1.45328296761328      0.41834549944675
  H   -0.63697934397818      1.96206506098084     -0.53501886169923
  H   -0.21809080241376      1.94526968243873      1.19209299566213
  H   -1.86732965686711      1.57122335292036      0.67505695198633
