15
Coordinates from ORCA-job run
  C   0.79416373042002     -0.75317021627047     -0.01006695902199
  C   -0.45607524929376      0.06888931270000      0.29503271770076
  Br  0.82103257636296     -1.40171222069565     -1.85241393008386
  H   -0.26769939705816      0.47349508035664      1.30872997311892
  H   0.76263989070716     -1.67937087490464      0.57962445501301
  N   1.98036796240877      0.05090274853335      0.19629882988712
  H   2.81130527675809     -0.49185443332033     -0.00406796390348
  H   2.01744346024594      0.34251380208691      1.16766884285258
  N   -1.62862071166337     -0.79459844607173      0.25438108215514
  H   -2.46849700781102     -0.23175398115298      0.31113980697110
  H   -1.63373854584977     -1.43070341205717      1.04331514130575
  C   -0.64449154591276      1.24412213410075     -0.64772540234939
  H   0.29034246418652      1.79109810420910     -0.76761656968402
  H   -1.40309747406920      1.92545964694439     -0.25138284702773
  H   -0.97607542943143      0.88568275554183     -1.62291717693391
