15
Coordinates from ORCA-job run
  C   0.94867948912732     -0.39449637247884      0.48183652068766
  C   -0.49129046699474      0.10203878203406      0.42423075379862
  Br  0.89893844803426     -2.20052215001169      1.49589912656736
  H   -0.88833725394648      0.07492172747552      1.44789852897207
  H   1.55832706591986      0.19483852928703      1.16566517900403
  N   1.51433626806899     -0.47467546315919     -0.78901812795542
  H   2.45249708446831     -0.84623156137416     -0.80124286154506
  H   0.89782750644163     -0.96753074440626     -1.42307712479943
  N   -1.22929154044594     -0.75620763580690     -0.50091473115800
  H   -1.42697360524031     -1.64518425472854     -0.05572822181183
  H   -2.11315138237146     -0.32428642821268     -0.74040737889671
  C   -0.52171303984180      1.53891331719111     -0.08297442208789
  H   -1.54272797643560      1.92992459663647     -0.04241873828138
  H   0.10748359133446      2.18475730756922      0.53368157562759
  H   -0.16360418811849      1.58274034998484     -1.11143007812161
