15
Coordinates from ORCA-job run
  C   1.02546123130927     -0.28571016458502      0.44553764894498
  C   -0.46754560012448      0.04660373683570      0.45724137398234
  Br  1.31568191840943     -1.86604456137088      1.69381193598050
  H   -0.81109312262943     -0.02327061843843      1.49249124517808
  H   1.61285391831432      0.49864245744739      0.92362769116021
  N   1.46666248864933     -0.51960366668574     -0.86882240965811
  H   2.45359494025224     -0.73160958801555     -0.91282121303455
  H   0.92321043030905     -1.27831519514562     -1.26555024197348
  N   -1.17259630902858     -0.93822834073800     -0.36394961092007
  H   -1.54465889020239     -0.51058636152483     -1.20133028402276
  H   -1.93454063419906     -1.36286765270228      0.14278380043220
  C   -0.67682259024002      1.47494284131688     -0.04133402175932
  H   -0.29877351456566      1.57376170093296     -1.06109249273177
  H   -1.74094309748874      1.72320853303972     -0.02845240931527
  H   -0.15049116876527      2.19707687963371      0.58785898773703
