15
Coordinates from ORCA-job run
  C   1.08423837739808     -0.22230131767737      0.09205251175371
  C   -0.42148151199707     -0.01602239289700      0.27226628963850
  Br  2.06094015548573      0.47241158263653      1.65995379135735
  H   -0.70188252513730     -0.58925233445442      1.16198555888588
  H   1.44967715994803      0.41749198573314     -0.72360826519291
  N   1.36458634006138     -1.61830077877762     -0.04461596304608
  H   0.66795291329142     -2.00025871714012     -0.67564905428054
  H   2.29494532821015     -1.77415204145414     -0.40889912715661
  N   -1.06793607252359     -0.66074252562133     -0.88152451053533
  H   -2.02802965975304     -0.88741714402315     -0.65311551095599
  H   -1.09167414013691     -0.01219718379593     -1.66177058725060
  C   -0.82106888301199      1.44499863556212      0.44182570547587
  H   -1.91010386028726      1.52493941479861      0.48812337894409
  H   -0.40614580176130      1.88602902249474      1.34788055593422
  H   -0.47501781978632      2.03477379461596     -0.41390477357155
