15
Coordinates from ORCA-job run
  C   0.50010803297229     -0.71320837302038     -0.06972388352814
  C   -0.50668565898398      0.43987191926082     -0.13464106806283
  F   0.14261477612153     -1.61185239272578     -1.07578423867753
  H   -0.38808754559903      0.91676332685777     -1.11542582691413
  H   0.38321494646255     -1.24299025303876      0.88227625942804
  C   1.93421319710916     -0.29317370242655     -0.28766151624266
  H   2.27206969661879      0.37116616310908      0.50952093179865
  H   2.57656459470003     -1.17496001533916     -0.30280899516203
  H   2.03265186422374      0.22267206665673     -1.24552161211083
  C   -0.17286937380135      1.43095022268127      0.88923293270508
  N   0.09034110521308      2.20362011679832      1.73320829096911
  C   -1.95003369970349     -0.04535951471207      0.02529097525611
  H   -2.64936379144459      0.78859678099257     -0.05047962574277
  H   -2.17862477611127     -0.76981860548525     -0.75578253452131
  H   -2.08711336777745     -0.52227773960861      0.99829991080524
