15
Coordinates from ORCA-job run
  C   0.57602612045173     -0.25699098549279     -0.85295041387947
  C   -0.64369485032356      0.52852764744919     -0.36430655689047
  F   1.25127695719109      0.54960055741192     -1.76653579173390
  H   -1.17381434012735      0.86573300833903     -1.26214548329849
  H   0.21322408907271     -1.12772280629585     -1.41093198718910
  C   1.54553989597882     -0.67260771809694      0.22763193675909
  H   2.40143149455596     -1.17101386129766     -0.23000568678167
  H   1.08230353641998     -1.36648312430750      0.93149172218913
  H   1.90569355212990      0.20197681232129      0.77246831213935
  C   -0.21820017297025      1.72377192971973      0.36847686366096
  N   0.12180479010170      2.66051646390493      0.98886421142560
  C   -1.58551073895079     -0.32475530502047      0.49111840084569
  H   -2.49509793097775      0.23033702390331      0.72431200123305
  H   -1.86711924815195     -1.23090814421474     -0.05084312963900
  H   -1.11486315440025     -0.61098149832345      1.43235560115924
