15
Coordinates from ORCA-job run
  C   0.51698736030578     -0.65222145640474     -0.26661592212540
  C   -0.50503404862260      0.46215768309119     -0.01861425146556
  F   0.24652333166304     -1.16469461528791     -1.53654678613843
  H   -0.33174550244839      1.23146854314207     -0.78088191933989
  H   0.34510212955380     -1.46747955665990      0.44502723011988
  C   1.95441230760073     -0.19048597758972     -0.23071004312878
  H   2.10841128537270      0.61599162782396     -0.95141609862473
  H   2.61238782799652     -1.01984781764311     -0.49472509622755
  H   2.22472826924586      0.16658567454653      0.76466058173401
  C   -0.25840942109231      1.06155776241668      1.29353377436204
  N   -0.06433792256597      1.51533511175712      2.35888233199779
  C   -1.94634366955322     -0.04432788018676     -0.12431378963085
  H   -2.13900803699100     -0.80803448468984      0.63233229097864
  H   -2.65482626824838      0.77221451378512      0.02298395252249
  H   -2.10784764221657     -0.47821912810069     -1.11059625503364
