15
Coordinates from ORCA-job run
  C   0.58446414584189     -0.28421605239188     -0.83877033807370
  C   -0.62159406440634      0.54143639672974     -0.38408145895584
  F   1.30048050216685      0.49172103640450     -1.74795928970220
  H   -1.12698368747712      0.87877650267026     -1.29602778082997
  H   0.20809549009702     -1.15099007363634     -1.39389900791704
  C   1.52004793998383     -0.71429758543740      0.26579156048897
  H   2.37259735473543     -1.23766213568893     -0.16980937824212
  H   1.02460858290963     -1.39080570029327      0.96466056596139
  H   1.89045588389863      0.15542424936207      0.81160317958593
  C   -0.17670649859936      1.73611236129108      0.33812139369029
  N   0.17681611555252      2.67302464793550      0.95056419169335
  C   -1.60080031090121     -0.27239488813563      0.46793565507195
  H   -1.15477299671877     -0.55365225528802      1.42256251472149
  H   -2.49961993873278      0.31009721462559      0.67449241320604
  H   -1.89608851835020     -1.18057371814727     -0.06318422069854
