12

C	-0.352831	0.082478	-1.478524
C	0.0	0.0	0.0
Cl	-0.237898	-1.653691	-2.182818
H	1.091955	0.0	0.0
H	-0.350462	0.906054	0.499311
H	-0.413004	-0.88633	0.475008
C	-1.751757	0.454485	-1.735419
N	-2.865473	0.77543	-1.928927
N	0.520125	0.990147	-2.107795
H	1.481522	0.827021	-1.808809
H	0.446061	0.974602	-3.115329
Br	3.613085	0.0	0.0
