12

C	-0.548218	-0.069429	-1.422935
C	0.0	0.0	0.0
Br	0.142048	-1.547912	-2.434375
H	1.09325	0.0	0.0
H	-1.635358	-0.135629	-1.442045
H	-0.347901	0.938506	0.43646
N	-0.248505	1.253787	-2.105531
O	0.628808	1.328444	-2.948209
O	-0.958132	2.1765	-1.70259
C	-0.51365	-1.109748	0.789539
N	-0.960104	-1.9938	1.416897
Cl	3.310524	0.0	0.0
