12

C	-0.600516	-0.030417	-1.39023
C	0.0	0.0	0.0
Br	0.112913	-1.500245	-2.423474
H	1.091171	0.0	0.0
H	-1.684334	-0.14459	-1.389129
H	-0.300859	-0.927814	0.498674
N	-0.358402	1.249416	-2.157949
O	0.575347	1.961255	-1.811212
O	-1.140673	1.463576	-3.082445
C	-0.554837	1.121716	0.751334
N	-1.051865	2.008153	1.339694
Cl	3.314541	0.0	0.0
