12

C	-0.469732	-0.001394	-1.437507
C	0.0	0.0	0.0
Br	0.088031	1.610096	-2.339669
H	1.092534	0.0	0.0
H	-0.093576	-0.850894	-2.005285
H	-0.358419	0.895121	0.510985
N	-1.975601	-0.071365	-1.530667
O	-2.622085	0.628459	-0.757895
O	-2.440509	-0.828009	-2.381203
C	-0.508336	-1.189744	0.67578
N	-0.919924	-2.157948	1.197213
Cl	3.29356	0.0	0.0
