12

C	-0.451679	-0.04534	-1.449035
C	0.0	0.0	0.0
Br	-0.04596	1.557421	-2.419
H	1.092501	0.0	0.0
H	0.037342	-0.87635	-1.953202
H	-0.310091	-0.938545	0.472442
N	-1.934294	-0.358688	-1.504178
O	-2.19382	-1.550227	-1.33706
O	-2.75153	0.541849	-1.63623
C	-0.563714	1.119372	0.739966
N	-1.038085	1.998688	1.356315
Cl	3.274014	0.0	0.0
