12

C	-0.411835	0.052	-1.451684
C	0.0	0.0	0.0
Br	-2.341357	0.100275	-1.72505
H	1.095728	0.0	0.0
H	0.007106	0.904858	-1.980226
H	-0.355578	-0.923492	0.45955
N	0.092151	-1.170223	-2.175547
O	-0.014158	-2.247336	-1.602055
O	0.538356	-0.984699	-3.30301
C	-0.499862	1.157227	0.726284
N	-0.913158	2.088216	1.309977
Cl	3.257402	0.0	0.0
