12

C	-0.454231	0.010327	-1.442787
C	0.0	0.0	0.0
Br	0.063307	1.644389	-2.328957
H	1.092547	0.0	0.0
H	-0.043971	-0.818136	-2.015806
H	-0.363611	0.888917	0.517537
N	-1.953641	-0.108293	-1.555549
O	-2.632797	0.575956	-0.797887
O	-2.380762	-0.886046	-2.405784
C	-0.504879	-1.199351	0.661859
N	-0.922882	-2.174916	1.164481
Cl	3.286045	0.0	0.0
