12

C	-0.612325	-0.027803	-1.385276
C	0.0	0.0	0.0
Br	0.131278	-1.457109	-2.450783
H	1.091558	0.0	0.0
H	-1.691264	-0.173975	-1.374487
H	-0.296777	-0.930636	0.496254
N	-0.417928	1.269283	-2.133627
O	-1.252581	1.504469	-3.00655
O	0.533066	1.973521	-1.824519
C	-0.55416	1.115714	0.761196
N	-1.054603	1.993856	1.358753
Cl	3.316674	0.0	0.0
