12

C	-0.411535	0.198651	-1.439205
C	0.0	0.0	0.0
Br	-2.340847	0.27255	-1.707228
H	1.097849	0.0	0.0
H	0.00638	1.101314	-1.878018
H	-0.355247	-0.965515	0.363337
N	0.09448	-0.942486	-2.283329
O	-0.00919	-2.072449	-1.82209
O	0.539778	-0.642624	-3.386255
C	-0.499959	1.077397	0.840028
N	-0.912626	1.944442	1.515557
Cl	3.257027	0.0	0.0
