12

C	-0.595404	-0.011917	-1.392591
C	0.0	0.0	0.0
Br	0.110771	-1.47442	-2.438793
H	1.090607	0.0	0.0
H	-1.679147	-0.120516	-1.397822
H	-0.300565	-0.935833	0.483522
N	-0.344564	1.274849	-2.145381
O	0.556427	2.003557	-1.753371
O	-1.091207	1.480645	-3.100396
C	-0.560194	1.107034	0.768982
N	-1.073948	1.973109	1.372686
Cl	3.318159	0.0	0.0
