12

C	-0.472476	0.260616	-1.418219
C	0.0	0.0	0.0
Br	-0.066004	2.026748	-2.042659
H	1.093086	0.0	0.0
H	-0.004223	-0.45145	-2.094299
H	-0.308039	-1.016755	0.26731
N	-1.960719	-0.022338	-1.506157
O	-2.769018	0.892409	-1.429548
O	-2.231821	-1.220772	-1.581736
C	-0.553163	0.93673	0.967774
N	-1.014163	1.667917	1.762279
Cl	3.273843	0.0	0.0
