12

C	-0.41329	0.087012	-1.446672
C	0.0	0.0	0.0
Br	-2.340903	0.210824	-1.707918
H	1.096277	0.0	0.0
H	0.025405	0.96387	-1.915867
H	-0.298244	0.939489	0.476546
N	0.063759	-1.079849	-2.271528
O	0.420145	-0.81335	-3.416942
O	0.03042	-2.189736	-1.757146
C	-0.577289	-1.097654	0.760176
N	-1.069558	-1.926853	1.429986
Cl	3.259075	0.0	0.0
