12

C	-0.603605	-0.005595	-1.389518
C	0.0	0.0	0.0
Br	0.117221	-1.444887	-2.457555
H	1.091209	0.0	0.0
H	-1.685691	-0.128344	-1.388738
H	-0.298809	-0.938196	0.480228
N	-0.374413	1.291697	-2.128704
O	-1.176714	1.532864	-3.030179
O	0.567852	1.991147	-1.783473
C	-0.553809	1.107146	0.773454
N	-1.030404	2.002183	1.365494
Cl	3.316738	0.0	0.0
