12

C	-0.452385	-0.090036	-1.447016
C	0.0	0.0	0.0
Br	-0.04242	1.480222	-2.467057
H	1.092564	0.0	0.0
H	0.034172	-0.937954	-1.924771
H	-0.310489	-0.92329	0.501333
N	-1.93579	-0.401318	-1.491984
O	-2.750939	0.495421	-1.658311
O	-2.19813	-1.585179	-1.280811
C	-0.564253	1.142184	0.704185
N	-1.04463	2.041067	1.286452
Cl	3.273253	0.0	0.0
