12

C	-0.45031	0.213754	-1.433675
C	0.0	0.0	0.0
Br	-0.051269	1.964599	-2.09811
H	1.102092	0.0	0.0
H	0.044092	-0.511943	-2.077049
H	-0.308303	-1.007631	0.294145
N	-1.933346	-0.097979	-1.549329
O	-2.184534	-1.30201	-1.495072
O	-2.756402	0.801971	-1.630645
C	-0.568139	0.967483	0.925222
N	-1.047097	1.723919	1.684897
Cl	3.266517	0.0	0.0
