13

C	-0.517184	0.027878	-1.428967
C	0.0	0.0	0.0
Cl	0.312683	1.268563	-2.389685
H	1.095818	0.0	0.0
H	-1.585899	0.221954	-1.513175
N	-0.31723	-1.307898	-2.107511
O	0.647995	-1.982938	-1.780436
O	-1.147294	-1.585346	-2.971723
C	-0.488368	-1.171013	0.704916
N	-0.87345	-2.114687	1.294245
C	-0.438638	1.207051	0.679205
N	-0.744159	2.204775	1.222707
H	2.455508	0.0	0.0
