13

C	-0.525991	0.042383	-1.425419
C	0.0	0.0	0.0
Cl	0.331908	1.257536	-2.392572
H	1.095678	0.0	0.0
H	-1.587261	0.269269	-1.50424
N	-0.370237	-1.293631	-2.107385
O	-1.223681	-1.557873	-2.954215
O	0.588617	-1.98653	-1.798526
C	-0.493562	-1.165143	0.707953
N	-0.880633	-2.101205	1.307473
C	-0.422741	1.210671	0.68316
N	-0.708979	2.212651	1.229753
H	2.451443	0.0	0.0
