13

C	-0.514645	0.035161	-1.429638
C	0.0	0.0	0.0
Cl	0.339894	1.262704	-2.389312
H	1.095682	0.0	0.0
H	-1.577905	0.252888	-1.517127
N	-0.340359	-1.299545	-2.112984
O	0.579142	-2.020447	-1.749607
O	-1.142519	-1.533051	-3.016725
C	-0.501332	-1.160306	0.711823
N	-0.891824	-2.097047	1.309104
C	-0.427191	1.215277	0.67336
N	-0.719852	2.220255	1.210925
H	2.450263	0.0	0.0
