13

C	-0.53406	-0.041705	-1.422362
C	0.0	0.0	0.0
Cl	0.31361	1.121069	-2.464775
H	1.101119	0.0	0.0
H	-1.596709	0.17697	-1.505924
N	-0.384289	-1.418436	-2.021941
O	0.634834	-2.046903	-1.768179
O	-1.311535	-1.781387	-2.746083
C	-0.471428	-1.137604	0.764234
N	-0.799548	-2.077906	1.392527
C	-0.43802	1.237457	0.622783
N	-0.75345	2.255482	1.121891
H	2.440105	0.0	0.0
