13

C	-0.27641	0.661777	-1.333973
C	0.0	0.0	0.0
Cl	0.138239	-0.39904	-2.672856
H	1.101074	0.0	0.0
H	0.324575	1.569019	-1.405621
N	-1.715518	1.10003	-1.460686
O	-2.569952	0.244104	-1.659009
O	-1.91772	2.303663	-1.295249
C	-0.526365	-1.340835	0.13108
N	-0.870096	-2.458039	0.267362
C	-0.411596	0.852668	1.097446
N	-0.671165	1.562054	2.000076
H	2.424577	0.0	0.0
