13

C	-0.352423	-0.098163	-1.461624
C	0.0	0.0	0.0
Cl	-2.099622	-0.062689	-1.820348
H	1.102453	0.0	0.0
H	0.053422	-1.019364	-1.875463
N	0.284089	1.008431	-2.265937
O	0.318464	2.126567	-1.771399
O	0.682858	0.689644	-3.382643
C	-0.407197	-1.22375	0.66557
N	-0.67106	-2.241387	1.193672
C	-0.520375	1.156785	0.70133
N	-0.8986	2.069251	1.340241
H	2.454021	0.0	0.0
