14

C	-0.615499	0.056421	-1.386796
C	0.0	0.0	0.0
Cl	0.040638	1.385209	-2.351391
H	1.093373	0.0	0.0
H	-1.69854	0.155838	-1.386852
N	-0.381428	-1.251756	-2.101719
O	0.764728	-1.584136	-2.338896
O	-1.390627	-1.890491	-2.37475
N	-0.325347	-1.277334	0.6206
H	0.526171	-1.593107	1.073621
H	-1.061789	-1.198096	1.302892
C	-0.468951	1.151799	0.759235
N	-0.856997	2.063364	1.397167
H	2.61486	0.0	0.0
