14

C	-0.447381	0.043888	-1.446494
C	0.0	0.0	0.0
Cl	0.235373	-1.295511	-2.369267
H	1.100994	0.0	0.0
H	-0.134462	0.976507	-1.912378
N	-1.955399	0.017779	-1.552482
O	-2.488061	1.125699	-1.462384
O	-2.539348	-1.052028	-1.657563
N	-0.500084	-1.215483	0.667541
H	0.128045	-1.958657	0.366071
H	-0.300974	-1.097542	1.656497
C	-0.455694	1.187887	0.703831
N	-0.752159	2.147744	1.315258
H	2.644752	0.0	0.0
