14

C	-0.627584	0.013968	-1.380887
C	0.0	0.0	0.0
Cl	0.063563	1.283009	-2.416494
H	1.095308	0.0	0.0
H	-1.707897	0.151176	-1.367724
N	-0.432778	-1.323174	-2.047344
O	0.703172	-1.761669	-2.146043
O	-1.461349	-1.87206	-2.450859
N	-0.353424	-1.254046	0.667309
H	-1.034346	-1.115567	1.403189
H	0.511996	-1.60586	1.075211
C	-0.452077	1.18081	0.723635
N	-0.831888	2.105411	1.346649
H	2.624913	0.0	0.0
