14

C	-0.398938	-0.069836	-1.454716
C	0.0	0.0	0.0
Cl	-0.036301	-1.634505	-2.183172
H	1.095844	0.0	0.0
H	0.126616	0.694669	-2.028412
N	-1.870446	0.196344	-1.687163
O	-2.666796	-0.218925	-0.849314
O	-2.167783	0.805639	-2.713433
N	-0.402531	-1.133331	0.800672
H	-1.28594	-0.983052	1.266136
H	0.333856	-1.301616	1.476748
C	-0.423248	1.299316	0.524578
N	-0.763197	2.332292	0.975044
H	2.641668	0.0	0.0
