14

C	-0.415467	0.16852	-1.449884
C	0.0	0.0	0.0
Cl	0.073314	-1.197996	-2.436928
H	1.101081	0.0	0.0
H	0.02747	1.074847	-1.862748
N	-1.907512	0.366331	-1.563745
O	-2.281054	1.53386	-1.707995
O	-2.643745	-0.606464	-1.42412
N	-0.392572	-1.263289	0.583732
H	-1.242055	-1.200047	1.122723
H	0.37264	-1.563207	1.177791
C	-0.432004	1.168352	0.764603
N	-0.76514	2.073184	1.440014
H	2.606089	0.0	0.0
