14

C	-0.617462	0.029326	-1.388796
C	0.0	0.0	0.0
Cl	0.048068	1.329275	-2.388711
H	1.093372	0.0	0.0
H	-1.701168	0.139105	-1.377802
N	-0.393343	-1.299132	-2.065476
O	0.751754	-1.628482	-2.329222
O	-1.410775	-1.957012	-2.283696
N	-0.329853	-1.265816	0.648135
H	-1.068043	-1.17302	1.33204
H	0.523416	-1.578061	1.108251
C	-0.464775	1.167542	0.735484
N	-0.854568	2.085915	1.359629
H	2.625405	0.0	0.0
