15
Coordinates from ORCA-job run
  C   -0.61323914500225      0.16048137284340     -0.17463996323606
  C   0.78286482846393     -0.44380742486665     -0.08638837413082
  F   -0.63333066891827      1.04745761267349     -1.25399935320604
  H   0.93907383277481     -0.99968125326623     -1.01687360472372
  H   0.78817005796910     -1.17054324514417      0.73239277206160
  C   -1.69935288930959     -0.87290281053693     -0.40822484511933
  H   -1.75261863559571     -1.57234018004104      0.42799078153251
  H   -2.66566968050491     -0.37944682276845     -0.52144627606648
  H   -1.47308958770478     -1.42266776116966     -1.32392030187400
  C   -0.90709727545861      0.94749593259131      1.03984617568861
  N   -1.13497766159557      1.54259919046278      2.02568975508229
  C   1.88122041039876      0.59550796975172      0.10474365058580
  H   1.76990913583878      1.12171777973573      1.05516276158646
  H   2.86184113202235      0.11585490003522      0.09943838314838
  H   1.85829614662197      1.33127473969949     -0.69977156132919
