15
Coordinates from ORCA-job run
  C   -0.58541434757329      0.10290848280455     -0.28015316017671
  C   0.73955613912080     -0.48389654327870      0.18970266387315
  F   -0.46740545175570      0.40507659755344     -1.63965446483639
  H   0.88682664023415     -1.40985117634653     -0.37607740475108
  H   0.63520803784658     -0.75939246458319      1.24413835226245
  C   -1.75343345311952     -0.85216416452950     -0.12098014955069
  H   -2.66037415858252     -0.40387102804376     -0.52887368566859
  H   -1.91654225413875     -1.08996298038614      0.93162031548556
  H   -1.53607716435810     -1.77145443391956     -0.66817243789116
  C   -0.86172730195460      1.37203661519757      0.42252074116730
  N   -1.08218889862160      2.36242533227245      1.01290533665781
  C   1.92290233474083      0.45606603998880     -0.00924017897952
  H   2.85169972997212     -0.03611174639914      0.28546177237542
  H   2.01005016789537      0.74772203624809     -1.05638672337408
  H   1.81691998029423      1.36146943342161      0.59218902340652
