17
Coordinates from ORCA-job run
  C   0.83219912741132     -0.04111435136516     -0.13095932351371
  C   -0.67998894116549      0.15061557421379      0.06307571805041
  F   1.12799754951186     -1.36474623147340      0.21991043704527
  H   -0.89175041544120      1.19980332762750     -0.17513283333470
  C   1.67891625716440      0.87321985396300      0.73052536877766
  H   2.73351452135587      0.62589748652785      0.59991374723618
  H   1.52071855032487      1.91479212149500      0.44327365503748
  H   1.38511866467992      0.73947614262544      1.76964262797523
  C   1.18622500732885      0.12375485126829     -1.55305594005332
  N   1.46499450175606      0.29456395041979     -2.68067028482101
  N   -0.96176698422036     -0.04177591449561      1.48299596269064
  H   -1.90745863192790      0.25950598977820      1.68349813726984
  H   -0.90456562057240     -1.03077563533096      1.69941547638416
  C   -1.48780503873747     -0.75267394391156     -0.86822742079052
  H   -1.30813238121994     -0.52840116807163     -1.92223333267966
  H   -2.55438479661572     -0.62125301026253     -0.67104484313265
  H   -1.23283136963266     -1.79988904300801     -0.68992715214129
