17
Coordinates from ORCA-job run
  C   0.71874674522425      0.24359754986340     -0.59443014709715
  C   -0.77676891339826      0.14492619592558     -0.24633003604165
  F   0.89366104766913     -0.33859293287996     -1.85106071834443
  H   -1.30324840396226      0.55961863760475     -1.12019520073521
  C   1.64265068616986     -0.43895250315525      0.39142999251451
  H   2.68202918191218     -0.25505931598640      0.11591034346716
  H   1.46333595615038     -1.51428740837565      0.36984568691541
  H   1.45351932122613     -0.05604412282483      1.39381129680485
  C   1.06742889123173      1.67216526440306     -0.72444090939743
  N   1.30600503073291      2.81950052990784     -0.79913741327017
  N   -1.00536216684911      0.89872848295882      0.98197988945095
  H   -1.89946948531944      0.64086403413738      1.38137759095957
  H   -1.03157263077347      1.89416974168981      0.79182259150319
  C   -1.21225110863135     -1.29925712777640     -0.05864109216244
  H   -0.86990742593152     -1.92120042539009     -0.88648581863522
  H   -0.82421816986795     -1.69917328195668      0.88013324263106
  H   -2.30357855558319     -1.35400331814538     -0.02558929856302
