17
Coordinates from ORCA-job run
  C   0.71474851026017      0.45417363080268     -0.32879752512468
  C   -0.74209951629288     -0.00770057908351     -0.31201608993990
  F   0.83494536123010      1.35461929734641     -1.39718699523116
  H   -0.88645780603355     -0.52003245721017     -1.27857226709346
  C   1.72051227467732     -0.65681357769818     -0.56176376672294
  H   1.78284939086384     -1.32192804546946      0.29961488925622
  H   2.70326328367827     -0.21540401637721     -0.73287837757988
  H   1.43241143920722     -1.22998260395655     -1.44545996639222
  C   1.03625586870922      1.19105303275964      0.90630184224303
  N   1.34367578648431      1.71985852670671      1.90808800179471
  N   -1.57442313519617      1.17585574952426     -0.15469624255394
  H   -1.45761789871094      1.78993062321820     -0.95109071609326
  H   -2.55000238040451      0.90931355065823     -0.10486588870852
  C   -1.02392030925800     -0.97871992859420      0.82353782920032
  H   -2.08102736680650     -1.25705818880419      0.81438708090333
  H   -0.80915640940496     -0.50916465405018      1.78592470414939
  H   -0.44395709300294     -1.89800035977249      0.72947348789293
