17
Coordinates from ORCA-job run
  C   0.74544266145274      0.23063258510996     -0.56638253216945
  C   -0.76420109141028      0.14918753361068     -0.27968898138207
  F   0.96702528902900     -0.36795062226736     -1.80795373748738
  H   -1.25008024444677      0.55897822365511     -1.17911797869724
  C   1.62086983222372     -0.44859943528058      0.46493433326881
  H   2.67262959477543     -0.27692984786888      0.23170811403405
  H   1.39275337017957     -0.05287103907849      1.45413201874167
  H   1.43283463297365     -1.52254212599959      0.44724595129781
  C   1.11185285080217      1.65444662523911     -0.69867428404481
  N   1.36194410048949      2.79887633105049     -0.77999472166904
  N   -1.03626479709766      0.91889914911431      0.92978729278800
  H   -1.94775730714584      0.67266482928539      1.29557907115240
  H   -1.04651452300530      1.91229201912594      0.72766854959603
  C   -1.22088353336766     -1.28883490634177     -0.09483367059779
  H   -0.85102170208103     -1.92295540458544     -0.90137041145262
  H   -0.87549178486289     -1.68223357771357      0.86322810123882
  H   -2.31313734850835     -1.33306033705531     -0.10626711461720
