17
Coordinates from ORCA-job run
  C   0.73357565147535      0.24535141966155     -0.59545728072653
  C   -0.76624404056112      0.16374447676588     -0.25397264612660
  F   0.92477937614618     -0.39031954121834     -1.82592411297685
  H   -1.27993387030765      0.61265871719574     -1.11420783780234
  C   1.64746916675714     -0.39725870337453      0.42546691709269
  H   1.48035449886821      0.05396596403953      1.40296874800602
  H   1.44811225951471     -1.46867914384090      0.47191506058333
  H   2.68798073736233     -0.25270184132132      0.13130836002378
  C   1.08154064413057      1.66655721023839     -0.78292658646582
  N   1.33541429180502      2.80179161530071     -0.94127427778964
  N   -0.98626300456324      0.94160485457226      0.96189299894093
  H   -1.50123804938444      0.40896231367746      1.64909109786935
  H   -1.48817096411694      1.79763700376370      0.77516868496791
  C   -1.23441179741585     -1.27596374000042     -0.10640356356774
  H   -2.32526637738535     -1.30209268300238     -0.05328377277129
  H   -0.91643120825056     -1.88331520145202     -0.95449433483668
  H   -0.84026715177965     -1.72294252859636      0.81013133789211
