17
Coordinates from ORCA-job run
  C   0.73971806625031      0.23656687858793     -0.57125206853319
  C   -0.76738322644022      0.13851548076470     -0.27645100489369
  F   0.96271099255466     -0.36503023664103     -1.81115846797889
  H   -1.26252225691912      0.53809714462670     -1.17532050557939
  C   1.62903573184298     -0.42665394517807      0.45845421323606
  H   1.45125816310430     -1.50241782242862      0.45075945462380
  H   2.67702994046074     -0.24676523402901      0.21487086654285
  H   1.40542513393069     -0.02556010821982      1.44644725271773
  C   1.08756318490249      1.66443792239628     -0.71208738203654
  N   1.32233057271605      2.81156751798839     -0.80012820856391
  N   -1.04213701305968      0.91152476712110      0.93034412210962
  H   -1.06792392686294      1.90328398896365      0.72237639739240
  H   -1.94734449128429      0.65432188108259      1.30406865603569
  C   -1.20618447212782     -1.30380539808557     -0.08230437872611
  H   -0.83120959317363     -1.93766448447226     -0.88668201980987
  H   -0.85253956892596     -1.68790082442516      0.87653923057764
  H   -2.29782723696854     -1.36151752805180     -0.08947615711423
