17
Coordinates from ORCA-job run
  C   0.82366336778300     -0.08743539826630     -0.15863069385775
  C   -0.66526987666414      0.19205663507233      0.09817726237751
  F   1.02758137346651     -1.45751088219753      0.05163443036233
  H   -0.80385319079269      1.27275188108136     -0.02601538071738
  C   1.75497281744618      0.67254898875951      0.76354221729292
  H   1.67205883183376      1.74608320382058      0.58182164198362
  H   1.47229872737538      0.45994190769464      1.79250430628498
  H   2.78453571735564      0.36100634545570      0.58121294637878
  C   1.15782035613908      0.19264990654280     -1.56727880470949
  N   1.42406172203218      0.45419790081976     -2.68044087569377
  N   -0.92897180434476     -0.12500494711048      1.49934512522304
  H   -1.84477104600017      0.22149953228551      1.75747832692349
  H   -0.94116491652836     -1.13257949360431      1.61275861654049
  C   -1.55903325238576     -0.55013287147609     -0.89484158743305
  H   -1.37882296712856     -1.62577614480587     -0.83132150288867
  H   -1.38701985818108     -0.23180973512762     -1.92567440254265
  H   -2.60808600140618     -0.36348682894398     -0.65327162552438
