16

C	0.0	0.0	0.0
C	-0.373596	0.146013	-1.475287
F	1.391948	0.0	0.0
H	0.034325	1.089482	-1.844719
H	-0.323429	-0.980664	0.359198
C	-0.565801	1.114897	0.837283
H	-1.658043	1.052081	0.818707
H	-0.251447	2.085932	0.444368
H	-0.223336	1.027434	1.870484
N	-1.727519	-0.026262	-1.85011
H	-2.190935	0.847402	-2.043491
H	-2.312721	-0.503802	-1.169648
N	0.456987	-0.896434	-2.221381
O	0.301662	-2.066961	-1.889078
O	1.192504	-0.506003	-3.12517
Br	-4.455475	0.0	0.0
