16

C	0.0	0.0	0.0
C	-0.520459	0.189633	-1.427785
F	1.394198	0.0	0.0
H	-1.55272	0.542949	-1.360955
H	-0.335811	-0.989024	0.323774
C	-0.452254	1.061505	0.974707
H	-1.542205	1.073783	1.012837
H	-0.052275	0.830149	1.965341
H	-0.081186	2.038252	0.661219
N	-0.467172	-0.962007	-2.280533
H	0.358637	-1.515054	-2.089643
H	-1.300142	-1.51051	-2.104176
N	0.291216	1.296194	-2.053804
O	1.265631	0.980817	-2.73037
O	-0.04969	2.45259	-1.801652
Br	-3.800623	0.0	0.0
