16

C	0.0	0.0	0.0
C	-0.482454	0.021709	-1.441796
F	1.395795	0.0	0.0
H	-1.577416	0.060397	-1.423988
H	-0.330022	-0.963205	0.396186
C	-0.490921	1.132999	0.864619
H	-0.066717	2.082989	0.537229
H	-1.580798	1.173831	0.813399
H	-0.184701	0.947548	1.896747
N	0.013787	-1.106937	-2.152441
H	-0.380554	-1.144643	-3.082623
H	1.020616	-1.040845	-2.226882
N	-0.025999	1.342322	-2.072796
O	-0.713523	2.339158	-1.866599
O	1.014334	1.330458	-2.734986
Br	-3.902633	0.0	0.0
