16

C	0.0	0.0	0.0
C	-0.362014	-0.157869	-1.47551
F	1.391872	0.0	0.0
H	0.103161	0.660935	-2.02896
H	-0.328028	-0.881327	0.556333
C	-0.548245	1.271571	0.589449
H	-1.6406	1.226927	0.598591
H	-0.22344	2.134232	0.00144
H	-0.190124	1.392716	1.614057
N	-1.721352	-0.323493	-1.83814
H	-2.340893	-0.625266	-1.088253
H	-2.117766	0.530346	-2.199064
N	0.406385	-1.381438	-1.973515
O	1.128606	-1.241821	-2.958788
O	0.213528	-2.437943	-1.379255
Br	-4.444981	0.0	0.0
