16

C	0.0	0.0	0.0
C	-0.49573	-0.018481	-1.435821
F	1.395632	0.0	0.0
H	-1.589491	0.05135	-1.405477
H	-0.330293	-0.950559	0.424874
C	-0.478401	1.155786	0.842231
H	-1.569221	1.187796	0.817827
H	-0.072301	2.098638	0.474329
H	-0.14162	1.004394	1.870801
N	-0.045393	-1.18917	-2.108953
H	0.959785	-1.150091	-2.21708
H	-0.469467	-1.256976	-3.024174
N	-0.008201	1.261252	-2.12565
O	0.995134	1.180918	-2.837904
O	-0.636695	2.295521	-1.915752
Br	-3.890396	0.0	0.0
