16

C	0.0	0.0	0.0
C	-0.390865	0.188421	-1.476145
F	1.388537	0.0	0.0
H	0.499285	0.57126	-1.988858
H	-0.324571	-0.978172	0.351876
C	-0.508877	1.090406	0.906276
H	-0.209928	2.070233	0.534898
H	-0.095852	0.937152	1.906564
H	-1.597871	1.044932	0.954611
N	-1.491093	1.028812	-1.721785
H	-2.333542	0.716578	-1.227211
H	-1.687437	1.066283	-2.713083
N	-0.509283	-1.215657	-2.159763
O	0.055428	-2.176984	-1.646035
O	-1.088129	-1.235314	-3.242394
Br	-4.158286	0.0	0.0
