16

C	0.0	0.0	0.0
C	-0.089026	-0.064932	-1.564814
F	1.397359	0.0	0.0
H	0.535255	-0.922849	-1.807141
H	-0.354543	-0.916774	0.47226
C	-0.563796	1.235772	0.643081
H	-0.234252	1.314755	1.682759
H	-0.257628	2.141866	0.111333
H	-1.653969	1.170839	0.639925
N	0.438409	1.106608	-2.240548
H	1.276581	1.412994	-1.765073
H	-0.250231	1.849928	-2.235788
N	-1.386746	-0.409792	-2.218665
O	-1.622337	-1.61018	-2.34591
O	-2.079545	0.513158	-2.625531
Br	-3.88482	0.0	0.0
