15
Coordinates from ORCA-job run
  C   -0.72321273862285     -0.25372430831931      0.18030882402340
  C   0.78649375815324     -0.55897355671053      0.06463113798011
  F   -1.35637047735488     -1.28302102274642     -0.51771564070825
  H   0.95204933769533     -1.51608517469345      0.58289290401686
  C   -1.12969231907389      1.07048014449403     -0.42607774661936
  H   -2.21741916262396      1.15095998012362     -0.40909459747792
  H   -0.76872669935293      1.11202342779296     -1.45248828273303
  H   -0.70311739568045      1.89817752835706      0.14257833203564
  C   -1.13242637753224     -0.35569704060983      1.59078342874681
  N   -1.44831659730632     -0.43025921665502      2.71932129053233
  C   1.54894320948116      0.47425647916137      0.77016384111273
  N   2.16769464058331      1.30094032740496      1.32833340657860
  N   1.14948257971443     -0.57409866070015     -1.34564565746261
  H   2.15408615095012     -0.65222581589406     -1.44550055262191
  H   0.72153209096993     -1.38175309100524     -1.78249068740340
