15
Coordinates from ORCA-job run
  C   -0.76085404720999     -0.16846021634881      0.11119390473420
  C   0.70152643841803     -0.66270699167447      0.06571464060949
  F   -1.46597592730963     -1.04621948574713     -0.71407665553417
  H   0.70416461793727     -1.67148544810987      0.50663892179808
  C   -0.94831156630823      1.24178846786842     -0.40152238170902
  H   -2.01491618552836      1.46631728725248     -0.44401775551650
  H   -0.51145512053278      1.31476904255798     -1.39622914488616
  H   -0.46061589291252      1.95716904344863      0.26261479986852
  C   -1.28648678698741     -0.32515665110851      1.47725572206713
  N   -1.69747389105062     -0.44429875378210      2.57077520885413
  C   1.53562602887245      0.19962544736112      0.90656262761399
  N   2.21275864411788      0.88979301584847      1.57232300879187
  N   1.16368449724466     -0.61470452881009     -1.31470729081485
  H   0.67280522565928     -1.32397962551499     -1.84607758457092
  H   2.15552396558998     -0.81445060324112     -1.35644802130578
