15
Coordinates from ORCA-job run
  C   -0.59866715339840      0.13685064555228      0.35418009464740
  C   0.82756398724755     -0.12895005156519     -0.17956290555353
  F   -0.77976417962081     -0.60425007973960      1.50315961296032
  H   0.90299607054555      0.37509580966372     -1.15642000424688
  C   -1.68131696564580     -0.23624250448497     -0.63956353953452
  H   -1.58902001411721      0.34499252174302     -1.55865925474357
  H   -2.65838904434619     -0.04263083756022     -0.19619269298442
  H   -1.60596679569676     -1.29998081471170     -0.87106545235027
  C   -0.67262452848122      1.56800937112066      0.70334588984994
  N   -0.70313385068819      2.72166624693440      0.91882740701334
  C   0.97344403931007     -1.56821354722379     -0.41825333037758
  N   1.10317739843329     -2.71529466469631     -0.62956894168030
  N   1.81140894182400      0.31485589721555      0.79714997383898
  H   2.68833962446674     -0.17487920111188      0.67840721939830
  H   1.98095247016739      1.30797120886403      0.69421592376280
