15
Coordinates from ORCA-job run
  C   -0.75654131371766     -0.28037233654238      0.26489166759598
  C   0.74302458634421     -0.62477926768997      0.10154002268017
  F   -1.46336588104199     -1.39740085802700     -0.14676861399135
  H   0.88878744734123     -1.57211256859046      0.63034607991301
  C   -1.18908073569345      0.90440564821486     -0.57129123855882
  H   -0.64744115645318      1.80689602577760     -0.28026693483705
  H   -1.00127744120776      0.67207560651662     -1.61978602127632
  H   -2.25746666511453      1.07371638405659     -0.43347885221368
  C   -1.05178246872777     -0.06931623287345      1.69391007991785
  N   -1.28756865604589      0.10003789826664      2.83187026470612
  C   1.56162017637929      0.40968161505556      0.75828918722871
  N   2.22998397434825      1.26540303172290      1.20752267760160
  N   1.06087496395691     -0.81681110373057     -1.30214760786280
  H   1.38587661314613      0.04333367046132     -1.72489170060972
  H   1.78535655648622     -1.51375751261826     -1.40873901029373
