14

C	0.0	0.0	0.0
C	-0.445209	0.191205	-1.474886
Cl	1.753939	0.0	0.0
H	0.454708	0.060178	-2.082832
H	-0.395322	0.77296	0.647654
N	-0.367231	-1.323325	0.618695
O	-0.357633	-2.306292	-0.113612
O	-0.521136	-1.324282	1.83273
N	-0.852175	1.583676	-1.602206
H	-1.771731	1.636858	-1.161037
H	-0.976232	1.787208	-2.588378
C	-1.382117	-0.783644	-2.074551
N	-1.916219	-1.457629	-2.878955
Cl	-3.093874	0.0	0.0
