14

C	0.0	0.0	0.0
C	-0.505223	0.489286	-1.376333
Cl	1.755454	0.0	0.0
H	-0.133642	1.521675	-1.42768
H	-0.368472	0.635945	0.804288
N	-0.464219	-1.393032	0.340154
O	-0.752503	-2.135075	-0.591876
O	-0.476643	-1.672438	1.534301
N	-1.914886	0.502204	-1.616187
H	-2.434787	1.101889	-0.983309
H	-2.349047	-0.406863	-1.511956
C	0.177851	-0.231918	-2.470481
N	0.682311	-0.779724	-3.377467
Cl	-4.517225	0.0	0.0
