17

C	-0.466513	-0.078509	-1.461055
C	0.0	0.0	0.0
Br	-2.383547	-0.458459	-1.557486
H	1.094447	0.0	0.0
N	-0.218824	1.309092	-2.057584
O	-1.158815	2.048159	-2.310212
O	0.967931	1.566825	-2.214423
C	0.3181	-1.107493	-2.246271
H	0.043913	-1.078123	-3.302831
H	1.382801	-0.894516	-2.117117
H	0.102793	-2.102137	-1.85276
C	-0.394983	-1.226683	0.709416
N	-0.723219	-2.171803	1.326891
N	-0.44612	1.222751	0.638309
H	-1.338598	1.103475	1.098963
H	0.252083	1.50721	1.313816
Br	3.435919	0.0	0.0
