17

C	-0.581647	-0.03306	-1.421599
C	0.0	0.0	0.0
Br	0.177732	1.45058	-2.432438
H	1.104959	0.0	0.0
N	-0.14204	-1.300427	-2.144244
O	-0.667494	-1.518071	-3.233161
O	0.684606	-2.014074	-1.587584
C	-2.090827	0.041801	-1.462722
H	-2.400234	0.91936	-0.897696
H	-2.50752	-0.854115	-0.992446
H	-2.441261	0.100189	-2.491036
C	-0.514937	-1.146734	0.748701
N	-0.981325	-2.019107	1.382447
N	-0.473366	1.240877	0.659971
H	-0.419307	1.087667	1.661811
H	0.233148	1.94249	0.455271
Br	3.450105	0.0	0.0
