14

C	0.0	0.0	0.0
C	-0.552195	0.00565	-1.402115
F	1.417368	0.0	0.0
H	-1.662977	-0.139841	-1.252268
H	-0.363394	0.988411	-1.834582
N	-0.483232	1.185489	0.62132
H	-1.46893	1.273434	0.31307
H	-0.58237	1.057459	1.631486
C	-0.248383	-1.290953	0.726988
N	-0.38353	-2.302965	1.310207
N	-0.016431	-1.007357	-2.327063
O	0.210547	-0.628458	-3.481414
O	0.084607	-2.1707	-1.948894
H	-2.915004	0.0	0.0
