12
Coordinates from ORCA-job run
  C   -0.38333643863625      0.19902752483849      0.01120231409400
  C   0.97436165815760      0.22528210189198      0.03771291470719
  H   1.53863255772461      1.11810005847226      0.24887650293183
  N   -1.23479312300058     -0.78969321334231     -0.29660183261391
  H   -0.83987773977351     -1.71527404143528     -0.36436593248113
  H   -2.20054208396812     -0.65757984446671     -0.04263933045103
  N   -1.07071294556004      1.48617041476885      0.31861881409490
  O   -0.38714827953590      2.49818367590050      0.41224060351047
  O   -2.29062192442669      1.42459404513290      0.46414428577472
  N   1.75159395365076     -0.94939646849758     -0.20091510374915
  O   2.97493374174342     -0.82331600241396     -0.14134696411999
  O   1.16751062362471     -2.01609825084916     -0.44692627169791
