12
Coordinates from ORCA-job run
  C   -0.39012850451822      0.18008912005298      0.04991215205767
  C   0.96552198368217      0.23693485709001      0.11244501625420
  H   1.50462940221732      1.14901087000087      0.30639680262420
  N   -1.21689486420777     -0.86323172341760     -0.11106734646072
  H   -0.78977980775705     -1.73020932139510     -0.39980284712490
  H   -2.17330445751261     -0.65576710835502     -0.34980278351481
  N   -1.11075396097527      1.47047936767951      0.24647925291472
  O   -0.46244413668948      2.44505176964371      0.60726309174253
  O   -2.31922468330675      1.45348632975918      0.01737292921489
  N   1.77528634254333     -0.92038521472163     -0.10162470507356
  O   2.99459974202618     -0.75917759095213     -0.04423985564612
  O   1.22149294449814     -2.00628135538478     -0.33333170698809
