12
Coordinates from ORCA-job run
  C   -0.43558193935435     -0.10838707134973      0.23502075609002
  C   0.80513365850738     -0.62713686367434      0.18949764336140
  H   1.08242758826693     -1.51840242458141      0.73598439290742
  N   -1.50096841819088     -0.58631439806949      0.94696691026322
  H   -2.39835781262266     -0.39797628729586      0.52340836498726
  H   -1.40773461227173     -1.53020240337907      1.28994640533365
  N   -0.78919580913315      1.16358790136614     -0.42791333766677
  O   -0.22711144356905      2.17710502255856     -0.03908683721001
  O   -1.68274382755528      1.08091950448333     -1.26750226634983
  N   1.89545580256919     -0.02626771674135     -0.53914178221517
  O   1.63729734097587      0.73004534195989     -1.47385947932014
  O   3.02337947237773     -0.35797060527668     -0.17232077018105
