12
Coordinates from ORCA-job run
  C   -0.45084906770473     -0.12143770996863      0.19787208670074
  C   0.74557015357720     -0.72033430541470      0.05485907480308
  H   0.94316910879439     -1.71814918448787      0.42252005879455
  N   -1.56474428498722     -0.64119498239055      0.79688321380344
  H   -1.41106843996534     -1.45295860772772      1.37518694628583
  H   -2.16627111704622      0.05008577661458      1.22140467513847
  N   -0.75483618293238      1.19583808045761     -0.39817076969206
  O   -0.70764658762523      1.28852734766584     -1.61616539688465
  O   -1.10180868294241      2.06106389225743      0.40275703939035
  N   1.85742959827670     -0.12526495805313     -0.64622892595353
  O   1.90472913121625      1.09912237168039     -0.74994361735520
  O   2.70432637133900     -0.91629772063325     -1.06297438503100
