12
Coordinates from ORCA-job run
  C   -0.38252708928923      0.20069234400000     -0.00493413403600
  C   0.95529868514853      0.17847584364793     -0.23804330773807
  H   1.51321453692607      1.05160358414649     -0.53219354860237
  N   -1.23714614417732     -0.78863212158662      0.29330379035084
  H   -2.14341097861140     -0.51896292740972      0.64083703855454
  H   -0.82419875319030     -1.67004428930730      0.55785655206633
  N   -1.05255389062814      1.52467433751537     -0.15434758837848
  O   -2.22186466605157      1.58286238684773      0.22316521234224
  O   -0.40387202963188      2.45059545646478     -0.62562114882410
  N   1.72167879447297     -1.01837695402975     -0.09249949143718
  O   2.92930430142248     -0.93118539961740     -0.31629465136853
  O   1.14507723360980     -2.06270226067152      0.24877127707078
