12
Coordinates from ORCA-job run
  C   -0.44202150037543     -0.06136778304948      0.29098163978864
  C   0.84053116557090     -0.46444060178410      0.34777248634887
  H   1.19017802082933     -1.16283823559753      1.09735139543169
  N   -1.45020671545761     -0.39579720712598      1.15755568694868
  H   -1.29737043048648     -1.23409674329966      1.69480713311618
  H   -2.36689118015397     -0.32926203604654      0.74000697367563
  N   -0.88398509592060      0.91972558165330     -0.72542749526778
  O   -0.04345178488292      1.68349713424235     -1.18482550595124
  O   -2.06142807533943      0.83976800887742     -1.07407527043686
  N   1.89151264305122     -0.02630908155175     -0.56154675170601
  O   2.82783299694335      0.57182592024063     -0.03814210081713
  O   1.79629995622165     -0.34070495655865     -1.74445819113067
