12
Coordinates from ORCA-job run
  C   -0.45011387893893     -0.11997574002668      0.20081840803128
  C   0.74323392838173     -0.72307156715990      0.04991909633634
  H   0.94048566279726     -1.72100386545068      0.41743171521650
  N   -1.56175719825373     -0.63566530974330      0.80716452765172
  H   -2.15917084756486      0.05732468322653      1.23462351304723
  H   -1.40796454019685     -1.44827802070635      1.38418501671432
  N   -0.75292618882043      1.19825731635030     -0.39344780262726
  O   -1.09030285900341      2.06539572098097      0.40946380483440
  O   -0.71351731935050      1.29044987940406     -1.61179755239822
  N   1.85284881052296     -0.13162539048484     -0.65784257280994
  O   2.69541390182485     -0.92532340734838     -1.07825396930210
  O   1.90277052860188      1.09251570095827     -0.76326418469428
