12
Coordinates from ORCA-job run
  C   -0.45412159359110     -0.12360118801868      0.18863653736190
  C   0.72552570556227     -0.74234191322883     -0.00130855469644
  H   0.89557325996930     -1.76971507506522      0.29101489847840
  N   -1.58115433722268     -0.65686182333495      0.75003142459831
  H   -1.44817584858187     -1.51160580043125      1.26843963240177
  H   -2.16396716539508      0.01742459878612      1.22501657065679
  N   -0.72275813750368      1.24254927923955     -0.30605341618588
  O   -0.66993140250686      1.42657895745586     -1.51351626077369
  O   -1.04858268643379      2.05391610037194      0.55771883795608
  N   1.85369526068454     -0.12745834841669     -0.65779408058427
  O   1.93491677402297      1.09945973754313     -0.67012475178900
  O   2.67898017099598     -0.90834452490098     -1.13306083742398
