12
Coordinates from ORCA-job run
  C   -0.42760668216341     -0.10213159008603      0.25278750214848
  C   0.77115708382396     -0.68993948956522      0.08434823086067
  H   1.02109452812401     -1.63973314211790      0.53740679375377
  N   -1.48007213250027     -0.57636211219537      0.98521095269951
  H   -1.43353195410455     -1.55135142273280      1.23836647369776
  H   -2.38560653867725     -0.28910550655746      0.64275467764050
  N   -0.73261601245937      1.24361438774354     -0.27491147457317
  O   -1.69113725087220      1.29602791246818     -1.04242716724319
  O   -0.06586643843365      2.17868577544176      0.14383884109003
  N   1.85431599123383     -0.09578526708526     -0.66108104441517
  O   2.97875585822065     -0.51513874653476     -0.38471248331409
  O   1.59111354780825      0.74021920122132     -1.52358130234510
