12
Coordinates from ORCA-job run
  C   -0.38519923392255      0.19566484852441     -0.00684150356360
  C   0.94011513447300      0.16315675616456     -0.30214171805681
  H   1.47202843411286      1.00958785727982     -0.70301958932526
  N   -1.20992177523704     -0.76715802071098      0.42897500072588
  H   -2.10401787902553     -0.47588451447158      0.78997773655923
  H   -0.77396805522968     -1.61685316324211      0.75330811176514
  N   -1.07957305990401      1.49298229929284     -0.24814121910113
  O   -2.23081222100826      1.57603821777142      0.17710559142677
  O   -0.46655972518672      2.37561831602036     -0.83588353883848
  N   1.72955827990915     -1.00641635754946     -0.07742377477641
  O   2.92451205377366     -0.92885939156952     -0.36376138738074
  O   1.18383804724514     -2.01887684750977      0.38784629056541
