12
Coordinates from ORCA-job run
  C   -0.39070748179480      0.18319028457148     -0.02634456711797
  C   0.70984752927728     -0.36470240300316     -0.60349698880907
  H   0.87805238756394     -0.35890716242238     -1.66737388859371
  N   -0.79168523698572      0.20352852021793      1.25305280127121
  H   -0.10879415097368     -0.07894836543460      1.93952367294063
  H   -1.52169324767532      0.85534716850799      1.49192309069198
  N   -1.36283754424000      0.83164735938460     -0.95248376934752
  O   -2.25963252550034      1.48512883613010     -0.42150057925886
  O   -1.20231848727067      0.67999265242885     -2.15726006434727
  N   1.73719837627305     -0.98022921635192      0.17564597392775
  O   2.70088547117500     -1.43393036486685     -0.44199587640933
  O   1.61168491015126     -1.02211730916205      1.40931019505216
