12
Coordinates from ORCA-job run
  C   -0.41319473331066      0.11903283822666     -0.04283526449083
  C   0.77551874243444     -0.27158690974937     -0.57104622775754
  H   0.97097710017557     -0.27986585239369     -1.63024297720648
  N   -0.84967125786336      0.12544976189058      1.22496190979293
  H   -0.15168459275638     -0.02161791708566      1.93807463863932
  H   -1.67923164189458      0.66291847209582      1.41924974531507
  N   -1.44705504624781      0.57138744282804     -1.01773772822775
  O   -1.22766484903387      0.40523562841467     -2.21121279759761
  O   -2.45175138331110      1.09188415314213     -0.53524819700061
  N   1.86252834697178     -0.68977934469252      0.25651434297390
  O   2.90239607323960     -1.01110227030025     -0.31909296659414
  O   1.70883324159637     -0.70395600237642      1.48761552215374
