12
Coordinates from ORCA-job run
  C   -0.47457657356918     -0.14359773675710      0.10569010481714
  C   0.69254407504258     -0.75508498909409     -0.16753883524043
  H   0.79332365360564     -1.83176743388903     -0.18974893889480
  N   -1.67071508607901     -0.74321617251993      0.38596540265251
  H   -2.27289001842352     -0.20487221869922      0.99199907817997
  H   -1.62474310025684     -1.72171542329520      0.62529003260038
  N   -0.63877076275454      1.32261436764436      0.02954189657430
  O   -1.00803679026783      1.85903531720757      1.07184061715787
  O   -0.46849501431434      1.85384988501280     -1.05813030005179
  N   1.90209471997317     -0.04891271807220     -0.51375902243936
  O   2.03061573238063      1.11848489821032     -0.14913613664269
  O   2.73964916466324     -0.70581777574828     -1.13301389871309
