12
Coordinates from ORCA-job run
  C   -0.44275258900411     -0.09696958612734      0.27190226157490
  C   0.68459217182503     -0.78462955703939      0.01766853965133
  H   0.87881818418422     -1.74875533057526      0.46949065969693
  N   -1.42680316887292     -0.48487335531486      1.14514239054120
  H   -1.10242673470724     -0.82173748472371      2.03730809915921
  H   -2.18157276236900      0.18042210373812      1.21954441271573
  N   -0.74588743797615      1.16092162934652     -0.45728457507663
  O   -1.66661804545255      1.84212213388951     -0.00766434163634
  O   -0.09055537453395      1.40694369380450     -1.46334879053388
  N   1.75272943920135     -0.32061078632185     -0.86133143229563
  O   1.87758007079272     -0.92599311091335     -1.92018228064922
  O   2.46389624691260      0.59315965023711     -0.45124494314759
