12
Coordinates from ORCA-job run
  C   -0.44508659992344     -0.11593661654630      0.21344252045276
  C   0.77528336063293     -0.67691899161872      0.13378616143031
  H   1.00695374005691     -1.63003678166602      0.58963348683640
  N   -1.54357472440917     -0.62309022293151      0.85101036517480
  H   -1.49483295571745     -1.60134357737381      1.09137545945489
  H   -2.42332635740398     -0.35290524753747      0.43492501609335
  N   -0.73377461570841      1.23350399102762     -0.31398120747943
  O   -0.12759796159525      2.17374911052523      0.17884385856459
  O   -1.62424283653904      1.28136165341985     -1.15971019453146
  N   1.90429188695814     -0.04513987373527     -0.50534688898848
  O   1.69540160749181      0.80203278689634     -1.37180268980701
  O   3.01050545615694     -0.44527623045994     -0.14117588720074
