12
Coordinates from ORCA-job run
  C   -0.44041335067077     -0.12439530819344      0.21748434269474
  C   0.78457610968756     -0.67071675432650      0.10957549403945
  H   1.03179795577899     -1.63154145981449      0.54033252813671
  N   -1.52407586328207     -0.65689336482551      0.85896123712951
  H   -2.41346402350562     -0.38413950509424      0.46602536093325
  H   -1.46289531677374     -1.63912982247133      1.07894767140795
  N   -0.75038647081760      1.23266620426124     -0.27651916548360
  O   -0.14766779493513      2.16864405684802      0.22852863019615
  O   -1.65275662724462      1.28919351045753     -1.10905222870731
  N   1.89669518883300     -0.01604374059309     -0.53558025067073
  O   3.01247270870170     -0.41587333691790     -0.20129273504887
  O   1.66611748422832      0.84922952066970     -1.37841088462724
