12
Coordinates from ORCA-job run
  C   -0.45136548050296     -0.12508577286392      0.19391254310481
  C   0.78343721372244     -0.65941606447799      0.17113746277607
  H   1.02229789787216     -1.59014255592525      0.66768678048477
  N   -1.55909656518655     -0.63941686313626      0.80902243814748
  H   -2.21940295766550      0.05766763840098      1.12209301760720
  H   -1.38447972513829     -1.36429312920174      1.48809231854408
  N   -0.80467511293192      1.08839753490072     -0.57072909452991
  O   -0.70802301057424      1.03633423241517     -1.78831576435252
  O   -1.23745085974397      2.02017676913178      0.10387190990512
  N   1.88966436191638     -0.08314662369143     -0.55376266682050
  O   1.86923847954147      1.12022400821434     -0.80643065280220
  O   2.80085575869099     -0.86229917376640     -0.83557829206439
