12
Coordinates from ORCA-job run
  C   -0.38155333313397      0.19773455281960      0.04423180070046
  C   0.84557350707386      0.08900089999596     -0.52743274048949
  H   1.25220587734000      0.83574684497681     -1.18859716260666
  N   -1.06605241911354     -0.65498827724485      0.82046444819577
  H   -0.54502405913180     -1.43337509066604      1.19472596403534
  H   -1.86148765256429     -0.28334371090993      1.31444462051134
  N   -1.14584726689550      1.43843458986890     -0.27395458861982
  O   -2.17692538703333      1.61718458666932      0.37259052549391
  O   -0.70023619187365      2.18658129767005     -1.13523570153439
  N   1.69403833165956     -1.03221772626471     -0.27365324271743
  O   2.79233810394872     -1.03006974912599     -0.83020854696996
  O   1.29197048972393     -1.93068821778912      0.48162462400093
