12
Coordinates from ORCA-job run
  C   -0.40650457068465      0.14598294195900     -0.01322386474386
  C   0.85907589846702      0.09731002468317     -0.50380143821498
  H   1.14258290427998      0.55029166861895     -1.43899304053694
  N   -0.91468248112956     -0.29487584818976      1.14643221738625
  H   -1.91815062954808     -0.35254802401049      1.21328033240705
  H   -0.32521134122289     -0.90807515634595      1.68848976741760
  N   -1.41175294129217      0.85072693452470     -0.85984477565079
  O   -2.58533855556773      0.73983680206648     -0.50842243427233
  O   -1.01046753801600      1.47423304636330     -1.83471212169489
  N   1.90611306540083     -0.58437992538045      0.18888915282699
  O   3.01382001423529     -0.58608997902748     -0.34869445066345
  O   1.65151617507795     -1.13241248526147      1.27260065573934
