12
Coordinates from ORCA-job run
  C   -0.49372336785432     -0.16242499876814      0.09362148794197
  C   0.70048419699220     -0.75033311285267     -0.08761427108222
  H   0.83316771448439     -1.81912396449623      0.02619796423352
  N   -1.67058002605794     -0.77474617197604      0.43656229838247
  H   -1.58397250809673     -1.64857585396081      0.93124235664528
  H   -2.33849226438595     -0.13471228533988      0.83952598479845
  N   -0.67091835827499      1.27932307584655     -0.17205735332509
  O   0.05445205665461      1.80535326554291     -1.00459611782872
  O   -1.56687579850716      1.84094040177715      0.46201100857097
  N   1.92313979267853     -0.04020823869556     -0.42418326643695
  O   2.52414555709357     -0.47059515965864     -1.40592211734390
  O   2.28917300527379      0.87410304258136      0.30621202544421
