12
Coordinates from ORCA-job run
  C   -0.36803488097248      0.21694450480010      0.06383084104749
  C   0.72135639583818     -0.08612760808167     -0.68849152226114
  H   0.85251294230133      0.26611789630746     -1.69786095981352
  N   -0.66001118437508     -0.07252583836288      1.33984099536496
  H   -0.07350950926192     -0.75985402000611      1.78802083497683
  H   -1.61436907862513      0.06166674008920      1.63282537486185
  N   -1.40768508423042      1.05836821783613     -0.59585745229330
  O   -2.46564294893274      1.18822245804062      0.01813682290118
  O   -1.14724918467601      1.54788939916110     -1.68795840046147
  N   1.77066127271771     -0.91644864493958     -0.18770538829232
  O   1.68491611902494     -1.36129692796632      0.96737187559261
  O   2.70805514119162     -1.14295617687805     -0.95315302162318
