12
Coordinates from ORCA-job run
  C   -0.44576739187344     -0.12956709754997      0.20417582917525
  C   0.76453462955079     -0.69931221146455      0.05857285468168
  H   0.99224450854963     -1.68550021865537      0.43991911350742
  N   -1.53879030053737     -0.66818394032523      0.82469286837487
  H   -1.35682803652133     -1.46523601364348      1.41511127323389
  H   -2.15330416991138      0.01424441973306      1.24494944453753
  N   -0.78951550111211      1.16954841233779     -0.40900737426015
  O   -0.76067480720266      1.24260161938841     -1.62898393058603
  O   -1.14737992189593      2.03953880872916      0.38181207651677
  N   1.85306320134397     -0.08811176710613     -0.66494122115355
  O   2.71716525633220     -0.86389408630488     -1.07495154307931
  O   1.86625253327763      1.13487207486119     -0.79234939094836
