12
Coordinates from ORCA-job run
  C   -0.38701121107617     -0.03774600071608      0.32617041649923
  C   0.88961128432902     -0.45961198205292      0.27501936925295
  H   1.33360052762844     -1.06145682854494      1.05634196673477
  N   -1.29310818181552     -0.27735377644377      1.32172857277772
  H   -1.05755342500668     -1.02460384364686      1.95658620587466
  H   -2.25277895286288     -0.30124920388951      1.00804696832623
  N   -0.96167211095205      0.87434834572829     -0.68520824445718
  O   -1.96497622288062      0.45213657639983     -1.25584853015609
  O   -0.44412385438228      1.97433075262525     -0.81272757057968
  N   1.80117593642272     -0.12076750198135     -0.79111941574007
  O   1.34066172939621      0.17712666555741     -1.89159013340981
  O   2.99717448119981     -0.19515320303536     -0.50739960512273
