12
Coordinates from ORCA-job run
  C   -0.45442891871310     -0.12697234817745      0.18432161406616
  C   0.77766582422006     -0.66767823768957      0.16266354853272
  H   0.99655848306559     -1.62939246894703      0.60656531815676
  N   -1.57921074573265     -0.66726210537809      0.74352738704851
  H   -1.52870551090293     -1.65004766986126      0.96392123572516
  H   -2.43854121789060     -0.39849343672187      0.28611079502659
  N   -0.73557590059346      1.23073549562330     -0.32599617518762
  O   -0.17483194695384      2.16752275637636      0.22387374197371
  O   -1.57656238836531      1.28604510087375     -1.22049667238236
  N   1.93168717283011     -0.00525092867358     -0.39518925159868
  O   1.76070532910379      0.86465584313647     -1.24727498092006
  O   3.02123981993234     -0.40386200056103      0.01797343955909
