12
Coordinates from ORCA-job run
  C   -0.44452416310342     -0.09490084461999      0.22312427476013
  C   0.67929590870433     -0.78274364536764     -0.05011382165545
  H   0.81161526761617     -1.81709733493642      0.23694273715823
  N   -1.55545999149227     -0.56018218202949      0.86975904333727
  H   -1.43856483807961     -1.42650844536852      1.37253902380168
  H   -2.06049643310705      0.14385065675693      1.38846709394331
  N   -0.66740142348373      1.28470658154123     -0.25482556708798
  O   -0.73650074458054      1.45741124771608     -1.46299287350541
  O   -0.83859697401601      2.11998933625113      0.63003163221436
  N   1.78663558147121     -0.23823386958932     -0.79709820923161
  O   1.91926260784806      0.98301037565937     -0.85414961740005
  O   2.54373520222286     -1.06830187601336     -1.30168371633449
