12
Coordinates from ORCA-job run
  C   -0.39998731478912     -0.07650288163881      0.30194571044563
  C   0.71101780729738     -0.75550750407780     -0.03754903748726
  H   0.92960681412755     -1.74153640754230      0.34951737694482
  N   -1.38944002923890     -0.48969692112874      1.15031924026147
  H   -2.30230305074015     -0.11565395796378      0.93432166106129
  H   -1.39675245618569     -1.47457270779192      1.36693223300778
  N   -0.64798201613617      1.31113902105543     -0.14042280655287
  O   -1.68309489374673      1.47496826682576     -0.78237203625588
  O   0.14215593909084      2.16937528728778      0.22493065771906
  N   1.74104390970851     -0.22335596903134     -0.89630376739599
  O   2.84875471433197     -0.74928485143195     -0.78215668892203
  O   1.44798057628051      0.67062862543767     -1.68816254282603
