12
Coordinates from ORCA-job run
  C   -0.37602208587386      0.22821433854258      0.06212838853348
  C   0.85041564777573      0.10795702195977     -0.50902356578655
  H   1.05404280002694      0.56027830317155     -1.46761597676453
  N   -0.86065258098287     -0.33383768159547      1.19205909621276
  H   -1.81490991473013     -0.10183519599330      1.42125242264065
  H   -0.21118208625460     -0.48617344585649      1.94519422219853
  N   -1.42305345420364      0.86340123466013     -0.78677230649507
  O   -1.06557975030538      1.69116758586205     -1.61479140820600
  O   -2.57234144474624      0.48002672188397     -0.58498730799804
  N   1.86657038111512     -0.77609009552081     -0.01428933256649
  O   1.62716401548226     -1.44114723274745      0.99919867150247
  O   2.92554847269667     -0.79096155436654     -0.64135290327121
