12
Coordinates from ORCA-job run
  C   -0.44015822022418     -0.09235998492868      0.23386560441708
  C   0.78494612438778     -0.64818218783394      0.20337146899155
  H   1.03353549614033     -1.53580798984341      0.76922192743773
  N   -1.52252715708104     -0.52710910615109      0.94731020338417
  H   -2.41236800662485     -0.31375217729126      0.52007030267385
  H   -1.46102204289609     -1.46810051519907      1.30469298736558
  N   -0.75220864303369      1.17920545279388     -0.45075299609690
  O   -0.14734593242756      2.17807998422104     -0.08903511528272
  O   -1.65726678048075      1.11497445454636     -1.27976288586865
  N   1.89622565241157     -0.09211528394066     -0.52969582840993
  O   3.01242012335939     -0.43708652612595     -0.14007259944922
  O   1.66476938646910      0.64125387975278     -1.48921306916252
