12
Coordinates from ORCA-job run
  C   -0.45396348229879     -0.10589993135304      0.19912701335848
  C   0.72536441392603     -0.73960346520432      0.06392995932925
  H   0.89578790334633     -1.73700507722466      0.44608838569031
  N   -1.58069159487107     -0.58657614125077      0.80642657688065
  H   -1.44889832233108     -1.39407546024444      1.39594953382922
  H   -2.16404335051228      0.12624702529197      1.22048276285189
  N   -0.72176461560052      1.21092653814955     -0.41444013106772
  O   -1.04094622368850      2.09706814556618      0.37510236658609
  O   -0.67576304578008      1.28519532872416     -1.63377819647306
  N   1.85319815909633     -0.18538767290637     -0.64480490367614
  O   1.93190737014520      1.03552204213815     -0.76923642234053
  O   2.68081278856843     -1.00441133168641     -1.04584694496845
