12
Coordinates from ORCA-job run
  C   -0.40648253443066     -0.07847591371824      0.29260161462509
  C   0.80730697644273     -0.63827409140977      0.13818275784172
  H   1.14230497164232     -1.47414699824948      0.73728286697556
  N   -1.37648721752856     -0.44980932373531      1.18180605313833
  H   -1.07340618559443     -1.04842842978115      1.93463783932646
  H   -1.97428309285172      0.30692533196395      1.48159548915078
  N   -0.90565899136682      0.99104943659106     -0.59607979694310
  O   -1.21375781046422      2.03672511331717     -0.02858968453333
  O   -1.03595707083201      0.72434417877147     -1.78189922163403
  N   1.75475923974028     -0.22444721549592     -0.86829947318730
  O   1.67704268670304      0.91619373643432     -1.32106084439728
  O   2.60461902854004     -1.06265582468811     -1.17117760036293
