12
Coordinates from ORCA-job run
  C   -0.41984306266615      0.10099352120208      0.01540875120772
  C   0.70419299084568     -0.14739540247598     -0.70081840464194
  H   0.81738467556111      0.10987781837318     -1.74073855510616
  N   -0.76601462775422     -0.22366218979877      1.27185371004777
  H   -0.05611560861733     -0.61495264232618      1.87030071988314
  H   -1.50182983617895      0.32851233595886      1.68501195160968
  N   -1.51312990086736      0.80536549832427     -0.70925261025183
  O   -2.35118323427318      1.37055134766967     -0.00787868420499
  O   -1.42606232069434      0.89337773232173     -1.92865688639362
  N   1.86729099403228     -0.69498355488370     -0.06696905187395
  O   2.90515575542592     -0.69046690522229     -0.72885102016526
  O   1.74115417518655     -1.23821755914288      1.03959007988944
