12
Coordinates from ORCA-job run
  C   -0.38478111558487     -0.02364609085559      0.32922094419719
  C   0.81765115868957     -0.61099038257930      0.18910257850560
  H   1.18403878452634     -1.35720659469861      0.88103779728184
  N   -1.30193432684078     -0.25275066567843      1.31715428675265
  H   -1.15977384766153     -1.09091670900934      1.85961104962163
  H   -2.26060639323636     -0.11327278276777      1.03183354542550
  N   -0.83967428853597      1.07205330108695     -0.55098770048369
  O   -0.18982370386962      2.10738482151872     -0.54503984840138
  O   -1.88677840590955      0.85209493387019     -1.15568392012040
  N   1.75691483434507     -0.26823536046046     -0.85103368901655
  O   1.33275011364922      0.23983181983583     -1.88745091952874
  O   2.93201719042847     -0.55334629026220     -0.61776412423366
