18

C	0.0	0.0	0.0
C	-0.368794	-0.07559	-1.497616
Br	2.0524	0.0	0.0
H	0.334817	-0.784818	-1.944991
N	-0.562005	1.076089	0.706939
H	-1.065106	1.716325	0.11039
H	-1.145159	0.794848	1.481803
C	-0.265908	-1.275842	0.670275
N	-0.475509	-2.292031	1.223861
C	-0.18565	1.277877	-2.182916
H	-0.998637	1.964978	-1.929273
H	0.769233	1.745528	-1.936557
H	-0.230091	1.137034	-3.266126
C	-1.787121	-0.601575	-1.697099
H	-1.896065	-1.625534	-1.333551
H	-2.560099	-0.012804	-1.198176
H	-2.006932	-0.604643	-2.768531
Br	-4.85997	0.0	0.0
