16
Coordinates from ORCA-job run
  C   -0.60993876863378     -0.01271049829882      0.24710193926808
  C   0.71117311467154     -0.66967239280464     -0.14312946974163
  Br  -0.91368133128437     -0.17082858946388      2.15864091725809
  H   0.66226696825829     -1.70923223526317      0.19298455023087
  H   0.74219512715508     -0.67744946568640     -1.23725484083739
  C   -1.80469110109804     -0.58755440509852     -0.49087476963143
  H   -1.90776960389863     -1.64324906763563     -0.23671669597037
  H   -2.72237285473098     -0.07006227427424     -0.20631360214513
  H   -1.65177740501739     -0.48576976943424     -1.56569053885410
  N   -0.48144689048527      1.46480322832575     -0.13038783109811
  O   -0.41093859774865      1.65311204745299     -1.34352595915319
  O   -0.40358579440256      2.32557389431273      0.73325772513557
  C   1.95492483948870      0.01841482346541      0.40579562914152
  H   1.92488243589629      0.09346332346709      1.49350652727159
  H   2.84412087183478     -0.55121545507892      0.12844398333094
  H   2.06663898999500      1.02337683601448     -0.00683756420532
