16
Coordinates from ORCA-job run
  C   -0.69961585843773     -0.04799481484160      0.40205381852487
  C   0.68882230734761     -0.61502516185672      0.65749700950261
  Br  -1.89656028780614     -0.61837134567492      1.83847932530654
  H   0.99175968502726     -0.33346950185848      1.66673360212107
  H   0.60022221721574     -1.70500868170726      0.63447728426721
  C   -1.30986386525884     -0.42833258337171     -0.92711826161412
  H   -1.34666554520685     -1.51699877604961     -0.99514081914698
  H   -0.70882776076069     -0.03445745809151     -1.74741183897810
  H   -2.31845633598797     -0.03137502370469     -1.02311657106382
  N   -0.61266623183648      1.47394192133263      0.52514188954204
  O   -0.00311722047529      1.91569349541953      1.49187235090224
  O   -1.14076910711142      2.14481280779499     -0.35714134049695
  C   1.72895516008595     -0.13885993656870     -0.35486324388882
  H   1.81943455867940      0.94959303335457     -0.35455278355241
  H   2.70631688059477     -0.54569970007892     -0.08735286222992
  H   1.50203140393067     -0.46944827409759     -1.36955755919547
