17

C	-0.568065	0.05216	-1.370742
C	0.0	0.0	0.0
F	-1.921436	0.059714	-1.424825
H	1.09059	0.0	0.0
N	-0.118656	1.255687	-2.196187
O	-0.667852	1.353784	-3.289965
O	0.729811	1.997644	-1.725189
N	-0.099351	-1.15361	-2.171933
O	-0.890881	-2.083461	-2.27725
O	1.046712	-1.097853	-2.597599
C	-0.359528	-1.315111	0.699517
H	-1.431158	-1.528074	0.719454
H	0.168252	-2.134872	0.210823
H	0.020907	-1.258425	1.719746
C	-0.485587	1.146297	0.745853
N	-0.849274	2.071387	1.376388
F	2.472303	0.0	0.0
