17

C	-0.466533	-0.037354	-1.411809
C	0.0	0.0	0.0
F	-1.799217	0.144195	-1.590287
H	1.09301	0.0	0.0
N	0.1867	1.003777	-2.313999
O	0.77132	1.934449	-1.781453
O	-0.002222	0.835354	-3.516377
N	-0.113566	-1.37823	-2.033653
O	-1.030172	-2.182117	-2.158115
O	1.065878	-1.54536	-2.305281
C	-0.380218	-1.275574	0.760731
H	0.220368	-2.103722	0.380659
H	-0.100118	-1.134153	1.805367
H	-1.442723	-1.527994	0.702793
C	-0.531263	1.17785	0.655913
N	-0.980246	2.099293	1.232836
F	2.479446	0.0	0.0
