17

C	-0.492124	-0.028027	-1.402003
C	0.0	0.0	0.0
F	-1.841286	-0.013254	-1.539927
H	1.094883	0.0	0.0
N	0.0059	1.122333	-2.272103
O	0.660097	2.009051	-1.745038
O	-0.3425	1.054648	-3.448547
N	0.012255	-1.281041	-2.102952
O	-0.77904	-2.212872	-2.191308
O	1.175127	-1.2516	-2.477419
C	-0.351339	-1.296742	0.740864
H	-0.063671	-1.168276	1.785252
H	-1.40932	-1.567289	0.686157
H	0.260177	-2.106595	0.340438
C	-0.548082	1.154687	0.681738
N	-1.002732	2.0549	1.286788
F	2.479366	0.0	0.0
