17

C	-0.316348	-0.004249	-1.453473
C	0.0	0.0	0.0
F	0.034785	1.14363	-2.05061
H	1.099656	0.0	0.0
N	0.380661	-1.141201	-2.187408
O	-0.064828	-2.256877	-1.935753
O	1.282864	-0.856906	-2.956151
N	-1.79385	-0.19782	-1.854103
O	-2.007186	-0.331732	-3.055702
O	-2.636776	-0.144931	-0.968953
C	-0.361479	-1.237474	0.819009
H	0.182001	-2.099024	0.435029
H	-0.005715	-1.058704	1.835547
H	-1.43188	-1.451469	0.842034
C	-0.501116	1.221748	0.594881
N	-0.878122	2.206963	1.115171
F	2.476582	0.0	0.0
