18

C	0.0	0.0	0.0
C	-0.378706	-0.036652	-1.532241
Br	1.956209	0.0	0.0
H	0.506416	0.338189	-2.052764
N	-0.514728	1.172021	0.654423
H	-0.31952	1.114632	1.648007
H	-1.532983	1.150067	0.545369
C	-0.346013	-1.250577	0.700531
N	-0.583566	-2.236018	1.297441
C	-1.528927	0.88818	-1.911119
H	-2.464934	0.615526	-1.421952
H	-1.681441	0.809516	-2.990136
H	-1.285547	1.925981	-1.683071
C	-0.630078	-1.465909	-2.002452
H	0.197356	-2.133605	-1.74345
H	-1.551046	-1.854084	-1.56349
H	-0.740157	-1.469819	-3.090381
Cl	-4.164819	0.0	0.0
