18

C	0.0	0.0	0.0
C	-0.507595	0.309755	-1.419024
Br	1.970527	0.0	0.0
H	-1.596541	0.313293	-1.282351
N	-0.513438	0.969239	0.925012
H	-0.298368	0.68207	1.874374
H	-1.536236	0.92371	0.810972
C	-0.312286	-1.39541	0.37332
N	-0.520584	-2.508474	0.692144
C	-0.165288	-0.770687	-2.43613
H	-0.613417	-0.506103	-3.397754
H	0.915415	-0.86391	-2.57939
H	-0.568106	-1.741465	-2.140151
C	-0.064905	1.69092	-1.889727
H	0.986817	1.692071	-2.190171
H	-0.205395	2.433182	-1.104011
H	-0.668573	1.981761	-2.754146
Cl	-3.601302	0.0	0.0
