14

C	-0.316183	0.034011	0.087505
C	-0.617631	0.165977	-1.401315
F	0.746182	-0.770419	0.317332
H	-1.470772	0.852106	-1.468317
H	-1.211634	-0.328731	0.600446
N	0.008997	1.39867	0.65235
O	1.035827	1.525615	1.308873
O	-0.811101	2.280633	0.41425
N	-0.885203	-1.166804	-1.932287
H	-1.760526	-1.450915	-1.480788
H	-1.091593	-1.070068	-2.920884
C	0.532713	0.766366	-2.094231
N	1.43598	1.251786	-2.665541
Cl	-3.527888	-0.955526	-0.09072
