14

C	-0.309418	0.031585	0.087184
C	-0.631701	0.202852	-1.393277
F	0.769484	-0.760523	0.279757
H	-1.496805	0.876216	-1.429305
H	-1.191858	-0.362149	0.599775
N	-0.000762	1.384305	0.688862
O	-0.839038	2.25831	0.487578
O	1.032106	1.50977	1.336129
N	-0.883495	-1.117657	-1.961296
H	-1.106674	-0.994289	-2.943263
H	-1.746639	-1.431728	-1.506202
C	0.499935	0.843214	-2.081289
N	1.388786	1.360484	-2.647232
Cl	-3.503417	-1.015425	-0.077873
