14

C	-0.334204	0.009315	0.025924
C	-0.413974	0.156298	-1.494343
F	0.834722	-0.607862	0.393996
H	0.371499	0.855135	-1.802005
H	-1.207525	-0.503487	0.440896
N	-0.282086	1.368903	0.69065
O	-0.128729	1.353312	1.905868
O	-0.371274	2.381952	-0.004166
N	-1.688824	0.625727	-2.001556
H	-2.438532	0.121065	-1.521236
H	-1.780715	1.599342	-1.741344
C	-0.075243	-1.145616	-2.095263
N	0.224351	-2.163514	-2.596092
Cl	-3.578019	-0.754338	0.327471
