17

C	0.0	0.0	0.0
C	-0.509194	0.085342	-1.440555
Cl	1.864364	0.0	0.0
H	-1.606155	0.095544	-1.307683
C	-0.4502	1.185403	0.824004
H	-0.05256	2.11956	0.424764
H	-1.544478	1.182359	0.804369
H	-0.103887	1.072246	1.85421
N	-0.478812	-1.20308	0.531949
H	-0.198146	-1.357535	1.487961
H	-0.277882	-1.987648	-0.071173
N	-0.136771	-1.107257	-2.191957
H	-0.790013	-1.243833	-2.95252
H	0.795967	-1.00184	-2.573624
C	-0.093303	1.335381	-2.095836
N	0.215727	2.306535	-2.680879
Cl	-3.825608	0.0	0.0
