17

C	0.0	0.0	0.0
C	-0.483445	-0.186224	-1.459616
Cl	1.79235	0.0	0.0
H	-1.579958	-0.126823	-1.389971
C	-0.435837	1.34657	0.560642
H	-0.012761	2.176024	-0.009729
H	-0.100627	1.43277	1.598208
H	-1.526996	1.384771	0.530457
N	-0.486304	-1.145298	0.736072
H	-1.509726	-1.067296	0.710115
H	-0.205261	-1.048324	1.706845
N	-0.127899	-1.452348	-2.083284
H	0.876017	-1.577332	-1.99449
H	-0.557449	-2.176576	-1.517993
C	-0.023101	0.919686	-2.307191
N	0.357572	1.798475	-2.986495
Cl	-3.648204	0.0	0.0
