17

C	0.0	0.0	0.0
C	-0.341737	0.299126	-1.494252
Cl	1.845306	0.0	0.0
H	0.223803	1.195037	-1.771987
C	-0.537671	1.076992	0.909007
H	-0.209531	0.904915	1.936669
H	-0.191109	2.063152	0.593021
H	-1.631714	1.027661	0.868105
N	-0.530935	-1.256692	0.355272
H	-0.082278	-2.034012	-0.113015
H	-0.58424	-1.402393	1.353016
N	-1.730707	0.499447	-1.815761
H	-2.333579	-0.180416	-1.349593
H	-2.058076	1.395901	-1.479251
C	0.178449	-0.807026	-2.323729
N	0.557714	-1.696949	-2.988311
Cl	-4.335509	0.0	0.0
