17

C	0.0	0.0	0.0
C	-0.321956	0.207712	-1.527647
Cl	1.795479	0.0	0.0
H	0.456161	0.857265	-1.938253
C	-0.472768	1.202148	0.798466
H	-1.564197	1.230639	0.796962
H	-0.106777	1.100967	1.821786
H	-0.096974	2.126883	0.359574
N	-0.51173	-1.193351	0.598357
H	-0.334877	-2.000876	0.011666
H	-1.520566	-1.084799	0.70549
N	-1.591336	0.862814	-1.745083
H	-1.824803	0.847267	-2.730617
H	-2.367892	0.433584	-1.230866
C	-0.167819	-1.098216	-2.213378
N	-0.081095	-2.127487	-2.775664
Cl	-4.065226	0.0	0.0
