17

C	0.0	0.0	0.0
C	-0.209087	0.309028	-1.531736
Cl	1.811348	0.0	0.0
H	0.37541	-0.481105	-2.035205
C	-0.498906	1.09516	0.908523
H	-0.210104	0.859131	1.935299
H	-0.083384	2.056171	0.612476
H	-1.589651	1.12246	0.832929
N	-0.510639	-1.26742	0.408633
H	-0.339019	-1.967785	-0.306099
H	-1.526833	-1.147006	0.498025
N	0.271142	1.657027	-1.868438
H	-0.035878	1.892763	-2.804591
H	1.282435	1.66234	-1.848
C	-1.54092	0.2066	-2.152253
N	-2.362458	0.220123	-2.99532
Cl	-3.69903	0.0	0.0
