17

C	0.0	0.0	0.0
C	-0.517896	0.139648	-1.427402
Br	1.968452	0.0	0.0
H	-1.606948	0.271821	-1.358831
H	-0.264871	-0.736388	-2.021715
C	-0.465871	1.11342	0.925331
H	-1.560612	1.113031	0.918348
H	-0.101222	2.087012	0.603026
H	-0.109313	0.914334	1.938863
C	-0.475022	-1.352359	0.514337
H	-0.123958	-1.507634	1.537084
H	-1.570521	-1.345508	0.505475
H	-0.103252	-2.168045	-0.110756
N	0.042744	1.2974	-2.173461
O	0.726963	1.050497	-3.168876
O	-0.210429	2.428263	-1.762395
Br	-3.958606	0.0	0.0
