17

C	0.0	0.0	0.0
C	-0.516791	-0.000578	-1.434007
Br	1.968425	0.0	0.0
H	-1.605978	-0.140283	-1.380781
H	-0.266435	0.930565	-1.939118
C	-0.475744	1.296608	0.640785
H	-0.12906	1.351677	1.675146
H	-0.100989	2.169003	0.099602
H	-1.571244	1.292518	0.628146
C	-0.46646	-1.196026	0.814952
H	-0.10083	-2.134623	0.403203
H	-0.113132	-1.093077	1.843967
H	-1.561156	-1.195047	0.805433
N	0.045675	-1.076229	-2.293232
O	0.698327	-0.727862	-3.279181
O	-0.177319	-2.24419	-1.980744
Br	-3.957149	0.0	0.0
