17

C	0.0	0.0	0.0
C	-0.517667	-0.058942	-1.43374
Br	1.968373	0.0	0.0
H	-1.60542	0.086132	-1.38549
H	-0.268356	-1.00971	-1.900455
C	-0.466382	1.232305	0.759233
H	-0.108103	2.150428	0.297901
H	-0.105547	1.183633	1.789065
H	-1.561124	1.226784	0.755198
C	-0.475806	-1.26678	0.698124
H	-0.101717	-2.162514	0.196827
H	-0.128865	-1.274198	1.733657
H	-1.571493	-1.261472	0.685638
N	0.04743	0.982771	-2.332448
O	-0.216071	2.159749	-2.090027
O	0.744334	0.599734	-3.274473
Br	-3.96032	0.0	0.0
