17

C	0.0	0.0	0.0
C	-0.276753	-0.12732	-1.535045
Br	2.04405	0.0	0.0
H	0.225571	-1.025965	-1.89744
N	-0.53616	1.106203	0.680973
H	-0.379615	1.948133	0.138443
H	-1.566069	0.868368	0.627716
C	-0.413866	-1.297729	0.672046
H	0.020383	-2.167493	0.174575
H	-1.507712	-1.296485	0.621983
H	-0.079528	-1.26818	1.71022
N	0.380934	0.982916	-2.324985
O	1.122374	0.649389	-3.245216
O	0.115706	2.140761	-2.010899
C	-1.666713	-0.161459	-2.029083
N	-2.491602	-0.235124	-2.87019
F	-2.767676	0.0	0.0
