17

C	0.0	0.0	0.0
C	-0.194214	-0.116533	-1.549736
Br	2.053785	0.0	0.0
H	0.274182	0.771998	-1.974518
N	-0.562826	1.216795	0.435583
H	-1.607106	0.96379	0.301402
H	-0.4077	1.284612	1.437956
C	-0.400249	-1.252977	0.756093
H	-0.091144	-1.151725	1.80051
H	0.049795	-2.157124	0.341798
H	-1.494357	-1.25831	0.683611
N	-1.614688	-0.077211	-2.115445
O	-2.166478	-1.145103	-2.332224
O	-2.010667	1.032666	-2.443652
C	0.423089	-1.318356	-2.112631
N	0.90676	-2.266745	-2.608949
F	-2.767053	0.0	0.0
