17

C	0.0	0.0	0.0
C	-0.389142	0.011828	-1.510542
Br	1.97569	0.0	0.0
H	0.382997	-0.533297	-2.055364
N	-0.531266	1.154274	0.640228
H	-0.325713	1.084721	1.632773
H	-1.564998	0.972988	0.506539
C	-0.410114	-1.346137	0.595045
H	-0.023873	-2.18865	0.013662
H	-1.504835	-1.317084	0.593568
H	-0.01952	-1.42028	1.614131
N	-0.301721	1.417148	-2.056914
O	-1.314712	2.102415	-2.064636
O	0.808497	1.769562	-2.455722
C	-1.672378	-0.580993	-1.916802
N	-2.387901	-1.18759	-2.630091
F	-2.759224	0.0	0.0
