17

C	0.0	0.0	0.0
C	-0.575333	-0.104713	-1.437101
Br	1.959946	0.0	0.0
H	-1.677357	-0.1754	-1.175797
N	-0.510565	1.185296	0.627101
H	-0.283408	2.004732	0.071013
H	-1.538194	1.017611	0.586181
C	-0.425939	-1.201329	0.837139
H	0.000497	-2.132264	0.467618
H	-0.083774	-1.021822	1.857395
H	-1.517165	-1.217144	0.792499
N	-0.141219	-1.318479	-2.191342
O	-0.680645	-2.38057	-1.880601
O	0.72782	-1.195353	-3.057343
C	-0.282726	1.078955	-2.229023
N	-0.086588	2.066219	-2.835469
F	-2.853823	0.0	0.0
