17

C	0.0	0.0	0.0
C	-0.1924	-0.098382	-1.568518
Br	2.036474	0.0	0.0
H	0.428513	0.683514	-2.009419
N	-0.571758	1.136325	0.582377
H	-0.435054	1.946096	-0.014068
H	-1.613015	0.858598	0.533353
C	-0.431337	-1.257024	0.725688
H	-1.52129	-1.27756	0.61182
H	0.046951	-2.14914	0.321338
H	-0.166506	-1.146109	1.778569
N	-1.573451	0.248425	-2.109204
O	-1.804843	1.4513	-2.152972
O	-2.261434	-0.643836	-2.577023
C	0.210655	-1.387186	-2.121341
N	0.563782	-2.412135	-2.574238
F	-2.784015	0.0	0.0
