17

C	0.0	0.0	0.0
C	-0.5778	-0.061476	-1.441721
Br	1.960224	0.0	0.0
H	-1.684083	-0.135259	-1.196805
N	-0.488961	1.187625	0.653312
H	-1.519423	1.05762	0.60994
H	-0.227971	2.014106	0.123743
C	-0.421675	-1.214187	0.826539
H	0.004448	-2.138807	0.440757
H	-1.513642	-1.239652	0.801988
H	-0.064294	-1.040978	1.842053
N	-0.136649	-1.257949	-2.217031
O	-0.650704	-2.332133	-1.908925
O	0.714571	-1.109567	-3.09395
C	-0.28008	1.155509	-2.181243
N	-0.096417	2.191217	-2.706015
F	-2.864982	0.0	0.0
