17

C	0.0	0.0	0.0
C	-0.582417	-0.05066	-1.426715
Br	1.952491	0.0	0.0
H	-1.690176	-0.054947	-1.191383
N	-0.52041	1.23632	0.5278
H	-0.190747	1.337616	1.481125
H	-1.546323	1.054599	0.531241
C	-0.431601	-1.234746	0.792219
H	-0.100808	-1.114106	1.827226
H	-1.525101	-1.239832	0.73511
H	-0.009125	-2.16062	0.401529
N	-0.253128	-1.331649	-2.132778
O	-1.010674	-2.282995	-1.934633
O	0.75601	-1.364925	-2.840411
C	-0.157797	1.071191	-2.246764
N	0.146389	1.972496	-2.93609
F	-2.865838	0.0	0.0
