15
Coordinates from ORCA-job run
  C   0.66309850299971      0.15168555201976      0.44303198836274
  C   -0.77647837734753      0.52051610890091      0.10415512273399
  F   1.05719689731937      0.72892751616882      1.58085181954669
  H   -0.78045743527772      1.61441707202756      0.17655787164081
  N   1.54212705454982      0.66545882137759     -0.69037508281216
  O   2.09162373423056     -0.15822403521937     -1.40456357738946
  O   1.57415528292259      1.88349476075424     -0.76999651950556
  N   0.91876542652551     -1.33604386175991      0.55933611683246
  O   0.07695346846503     -2.08223444020407      0.07221861853786
  O   1.96393209305370     -1.64764244577945      1.11053619653792
  C   -1.68470024284934     -0.00684680080697      1.13620839844568
  N   -2.44660077076586     -0.42556189958090      1.92608164601677
  N   -1.06477769829286      0.15981360681833     -1.26593495920790
  H   -1.33642512599916     -0.81087623399239     -1.33439688452203
  H   -1.79741280953382      0.74411627927585     -1.64371075521782
