15
Coordinates from ORCA-job run
  C   0.59046140964101      0.19020853811930     -0.36594757625341
  C   -0.88142701937602      0.47422382143790     -0.03422237656967
  F   0.83624922454517      0.58487454437361     -1.62325795463555
  H   -1.02190215212948      1.52391484163499     -0.31306932064892
  N   0.89749205775198     -1.28394904182090     -0.24955350606827
  O   1.31789642512235     -1.85374591457349     -1.24425037757531
  O   0.65125505331699     -1.75829637235972      0.85237948710680
  N   1.56626975048082      0.93161725229255      0.52410171714413
  O   2.62221713812075      0.37387776221956      0.79084604788114
  O   1.21353034393278      2.06740603109413      0.82193249668539
  C   -1.15520533897204      0.35913076840348      1.40011135914565
  N   -1.41656576574852      0.28589470277807      2.54185630743792
  N   -1.80245908310225     -0.33701466829483     -0.79397783889747
  H   -1.77415742702564     -1.31031315198700     -0.51865151062234
  H   -1.64565461655793     -0.24682911331767     -1.78929695413007
