15
Coordinates from ORCA-job run
  C   0.62511093482948      0.29441870147035      0.31298001508151
  C   -0.88745675318971      0.11069126499828      0.23139755859614
  F   0.88901862138720      1.51150453884403      0.80749407509246
  H   -1.25722715373222      0.30824920716804      1.24654289889607
  N   1.26290929358620      0.16264916570339     -1.04970359782250
  O   1.12477816768626     -0.94548946445137     -1.54943712785225
  O   1.82624503186697      1.14167871981220     -1.50468999987452
  N   1.31157700080373     -0.70428157328722      1.22034231681263
  O   2.51111768998043     -0.86451248909396      1.03976819616876
  O   0.61031176743117     -1.19146639879594      2.10117007437220
  C   -1.27477586743822     -1.25645422044464     -0.11569819967989
  N   -1.68429619928074     -2.32308357474261     -0.38480910192813
  N   -1.34998865614619      1.05180581840549     -0.77991216581948
  H   -2.21146677950473      0.73696315534689     -1.20337615598434
  H   -1.49585709827963      1.96632714906706     -0.37306878605867
