15
Coordinates from ORCA-job run
  C   0.65644699713239      0.18868923633837      0.43559600253912
  C   -0.81140857018957      0.46359018477794      0.12942804309574
  F   1.01637638467463      0.74738814891558      1.59206883234944
  H   -0.89855124179829      1.54687569835548      0.26931767781308
  N   1.49212700181719      0.80192248997633     -0.67935473999817
  O   1.47587466260525      2.02348994407480     -0.68649971161140
  O   2.06345960466455      0.04252734676522     -1.44556229556528
  N   1.00695447105819     -1.28343162702832      0.49150508304360
  O   2.01614538772441     -1.56611807791750      1.11798401388220
  O   0.25620806458578     -2.04288782253769     -0.11057568950290
  C   -1.64895018855713     -0.19463584864603      1.14885826584100
  N   -2.35053800758062     -0.72167559698417      1.92981837954803
  N   -1.10615261899449      0.16311689854037     -1.25058970880667
  H   -1.93162777908603      0.66064739780289     -1.55513381001562
  H   -1.23536416805626     -0.83049837243328     -1.38586034261216
