15
Coordinates from ORCA-job run
  C   0.55676254876139     -0.34659480142362     -0.12131643391697
  C   -0.78917875386120      0.29754336278197      0.16124099999936
  F   0.45027507974490     -1.36635323991716     -0.96557470857748
  H   -0.60952237798276      1.12302070411570      0.85128668398184
  N   1.25616807803234     -0.82976922022446      1.13811715876505
  O   0.93898982476448     -0.26909046417617      2.18038793934670
  O   2.08980633004427     -1.70960305709288      0.97493854930245
  N   1.48379599410533      0.70334095963570     -0.72346859346828
  O   1.63740868873498      1.69695453340490     -0.02635533441801
  O   1.97104505857235      0.45132399079066     -1.81070438752302
  C   -1.66888918810385     -0.69044853758341      0.81123150888002
  N   -2.41948148064079     -1.46856292131103      1.27079767809884
  N   -1.26810588407397      0.82068994374160     -1.10182134662029
  H   -1.99555122090974      1.50657040027875     -0.95089554057424
  H   -1.63352269718762      0.08097834697942     -1.68886417327592
