19

C	-0.390046	0.053899	-1.489807
C	0.0	0.0	0.0
Br	0.027857	-1.666445	-2.387159
H	1.097317	0.0	0.0
C	-1.833275	0.234625	-1.656406
N	-2.989468	0.428174	-1.754258
C	0.397149	1.129232	-2.23995
H	0.211199	1.067149	-3.31321
H	0.097851	2.12058	-1.891464
H	1.45969	0.978289	-2.029808
C	-0.54709	-1.211632	0.74123
H	-1.641484	-1.257325	0.683404
H	-0.134144	-2.14187	0.352348
H	-0.264241	-1.140296	1.79482
C	-0.452756	1.284456	0.703211
H	-1.544095	1.386811	0.70813
H	-0.013316	2.178726	0.258208
H	-0.10739	1.246963	1.739544
Cl	3.48149	0.0	0.0
