14

C	0.0	0.0	0.0
C	-0.530194	-0.132759	-1.42602
F	1.378289	0.0	0.0
H	-1.511187	-0.606834	-1.326945
H	-0.369564	0.91148	0.465206
C	-0.387875	-1.168487	0.821479
N	-0.484611	-2.144547	1.466367
N	0.3664	-0.97481	-2.189908
H	1.21937	-0.464048	-2.388325
H	-0.076175	-1.222907	-3.065432
N	-0.66666	1.234433	-1.956938
H	-0.91411	1.143539	-2.939439
H	-1.512268	1.580452	-1.495261
H	-2.928898	0.0	0.0
