14

C	0.0	0.0	0.0
C	-0.485066	-0.017509	-1.457784
F	1.383664	0.0	0.0
H	-1.551168	0.223957	-1.385193
H	-0.366444	0.907187	0.485672
C	-0.420976	-1.169844	0.786715
N	-0.512547	-2.145506	1.438198
N	-0.218576	-1.336825	-2.031271
H	-0.4278	-1.249452	-3.019424
H	-0.910802	-1.971019	-1.639398
N	0.210459	0.964598	-2.274183
H	1.202714	0.909395	-2.069764
H	-0.114165	1.889828	-2.017302
H	-2.901138	0.0	0.0
