14

C	0.0	0.0	0.0
C	-0.379285	-0.043816	-1.496176
F	1.388129	0.0	0.0
H	0.28293	-0.829526	-1.901491
H	-0.382726	0.898898	0.481097
C	-0.402017	-1.215276	0.726297
N	-0.612927	-2.19978	1.328842
N	-0.029547	1.282605	-2.023106
H	-0.553537	1.373167	-2.882091
H	0.959989	1.327806	-2.230085
N	-1.734222	-0.349555	-1.850125
H	-1.850765	-1.357525	-1.869597
H	-2.441232	-0.045652	-1.115599
H	-3.496249	0.0	0.0
