14
Coordinates from ORCA-job run
  C   -0.58771643328209     -0.12533054017200      0.45049587978077
  C   0.57258986567526      0.13342613975738     -0.49852619035875
  Br  -0.41461040844151      0.99642599394768      2.05565007852607
  H   0.36360726109269     -0.44555172769869     -1.40755626188263
  H   -0.53562159889052     -1.14790916164676      0.83365216127809
  H   0.56137576347233      1.18972947306010     -0.78750751130153
  C   -1.94159076618538      0.13535921241727     -0.18402482320647
  H   -2.07107981383187     -0.52655936586890     -1.04626535420385
  H   -2.75445794554655     -0.05017152070906      0.51931955362725
  H   -2.01254094748097      1.16980429057580     -0.52689907072546
  C   1.94148114889758     -0.25571770500218      0.04553457867501
  H   2.71363504617123     -0.10544794599027     -0.71246190723127
  H   1.96036941548881     -1.30931934597765      0.33774530790258
  H   2.20455941286099      0.34226220330727      0.91884355912021
