17

C	0.0	0.0	0.0
C	-0.500239	-0.106996	-1.428033
F	1.392597	0.0	0.0
H	-1.582902	-0.285845	-1.392439
H	-0.331756	0.947092	0.424208
C	-0.472345	-1.15257	0.85889
H	-0.090535	-1.017835	1.873705
H	-1.563571	-1.161234	0.879444
H	-0.094073	-2.104173	0.477107
C	0.236958	-1.149599	-2.256191
H	-0.209229	-1.229871	-3.245587
H	0.18044	-2.121715	-1.765355
H	1.289467	-0.875144	-2.355048
N	-0.36814	1.211669	-2.151509
O	0.096888	2.183593	-1.559521
O	-0.744354	1.226123	-3.322931
Br	-3.858656	0.0	0.0
