19

C	-0.532659	-0.021063	-1.446161
C	0.0	0.0	0.0
Br	-0.12694	1.694757	-2.332912
H	1.090993	0.0	0.0
C	0.237847	-1.105197	-2.187553
H	1.312434	-0.92803	-2.104723
H	0.007173	-2.069257	-1.728596
H	-0.054038	-1.122519	-3.240567
C	-2.036907	-0.226886	-1.534974
H	-2.340654	-0.259006	-2.583588
H	-2.293868	-1.182075	-1.068801
H	-2.584752	0.573035	-1.035983
N	-0.437533	-1.184662	0.687645
H	0.246794	-1.414002	1.398293
H	-1.338308	-1.022195	1.121201
N	-0.473713	1.24556	0.728632
O	-1.618624	1.206667	1.200686
O	0.279645	2.206792	0.805755
Br	3.526391	0.0	0.0
