19

C	-0.391625	0.016762	-1.480707
C	0.0	0.0	0.0
Br	-2.382322	0.007636	-1.630503
H	1.094073	0.0	0.0
C	0.139263	1.223777	-2.234913
H	1.218107	1.280729	-2.058405
H	-0.314156	2.156784	-1.907621
H	-0.052272	1.092846	-3.302554
C	0.129934	-1.268721	-2.104505
H	1.217226	-1.28134	-1.968578
H	-0.106005	-1.290296	-3.171124
H	-0.29258	-2.140918	-1.610837
N	-0.468363	-1.150876	0.691494
H	-1.429833	-1.021501	0.979476
H	0.106923	-1.299219	1.510473
N	-0.427504	1.293837	0.688281
O	0.173553	2.323342	0.39419
O	-1.349426	1.230916	1.506028
Br	3.473253	0.0	0.0
