19

C	-0.493191	-0.019106	-1.463688
C	0.0	0.0	0.0
Br	0.169098	1.605992	-2.368038
H	1.09095	0.0	0.0
C	0.166687	-1.209344	-2.149481
H	-0.237964	-2.138131	-1.735549
H	-0.043227	-1.191358	-3.221257
H	1.24718	-1.185575	-1.988689
C	-2.004743	-0.027651	-1.642702
H	-2.445355	-0.896872	-1.143019
H	-2.241779	-0.095939	-2.707007
H	-2.466519	0.869762	-1.235212
N	-0.413081	-1.124062	0.793161
H	-1.334066	-1.471708	0.571708
H	0.28624	-1.851208	0.744076
N	-0.507134	1.233952	0.697497
O	-1.693992	1.2124	1.038507
O	0.260687	2.171384	0.880664
Br	3.530654	0.0	0.0
