19

C	-0.364914	-0.003936	-1.495691
C	0.0	0.0	0.0
Br	-2.341672	-0.168697	-1.724778
H	1.093204	0.0	0.0
C	0.089003	1.254886	-2.214337
H	-0.084434	1.149104	-3.288206
H	1.159378	1.382705	-2.023039
H	-0.434269	2.142535	-1.861443
C	0.26828	-1.236473	-2.124081
H	0.05374	-1.265935	-3.194903
H	1.350903	-1.176661	-1.96401
H	-0.10785	-2.153956	-1.669795
N	-0.441645	-1.098092	0.793618
H	0.261597	-1.821741	0.800374
H	-1.345536	-1.452284	0.5134
N	-0.481072	1.281503	0.632548
O	0.222337	2.281772	0.494862
O	-1.565212	1.256568	1.212896
Br	3.484798	0.0	0.0
