12

C	-0.171038	-0.025767	-1.511789
C	0.0	0.0	0.0
Cl	-1.873069	-0.238373	-2.081077
H	1.098182	0.0	0.0
H	0.390349	-0.885947	-1.879598
C	0.374537	1.185087	-2.12103
N	0.766843	2.160445	-2.643436
C	-0.47402	-1.226257	0.60714
N	-0.824213	-2.238127	1.093471
C	-0.5599	1.180147	0.620619
N	-0.989904	2.153165	1.121721
F	2.426993	0.0	0.0
