12

C	-0.383351	-0.033558	-1.489567
C	0.0	0.0	0.0
Cl	0.214553	1.435923	-2.313269
H	1.096632	0.0	0.0
H	-1.467156	-0.041154	-1.63756
C	0.178326	-1.217982	-2.138847
N	0.558283	-2.177065	-2.69973
C	-0.482818	-1.204518	0.650772
N	-0.855125	-2.195789	1.163565
C	-0.528929	1.183735	0.649293
N	-0.937773	2.15053	1.18002
F	2.430692	0.0	0.0
