12

C	-0.38157	-0.041388	-1.489945
C	0.0	0.0	0.0
Cl	0.21618	1.423984	-2.320425
H	1.096619	0.0	0.0
H	-1.465071	-0.050601	-1.639806
C	0.182267	-1.228352	-2.132209
N	0.564034	-2.189724	-2.687471
C	-0.485682	-1.200453	0.656202
N	-0.881784	-2.178055	1.177297
C	-0.529495	1.186731	0.64321
N	-0.938976	2.156065	1.16891
F	2.431229	0.0	0.0
