12

C	-0.382417	-0.039604	-1.489777
C	0.0	0.0	0.0
Cl	0.215566	1.426695	-2.318602
H	1.096664	0.0	0.0
H	-1.466036	-0.048094	-1.639222
C	0.180553	-1.225879	-2.134091
N	0.561485	-2.186601	-2.691031
C	-0.482799	-1.201888	0.655419
N	-0.85513	-2.191063	1.172087
C	-0.529605	1.186168	0.644402
N	-0.940917	2.154021	1.171383
F	2.430711	0.0	0.0
