12

C	-0.382419	-0.036744	-1.489836
C	0.0	0.0	0.0
Cl	0.214928	1.431373	-2.315802
H	1.096655	0.0	0.0
H	-1.466016	-0.045388	-1.639176
C	0.180949	-1.221539	-2.136487
N	0.562433	-2.181113	-2.695047
C	-0.482939	-1.203155	0.653032
N	-0.855601	-2.1933	1.167589
C	-0.529332	1.184946	0.646847
N	-0.939007	2.151951	1.176679
F	2.430669	0.0	0.0
