12

C	-0.259788	-0.006467	-1.513535
C	0.0	0.0	0.0
Cl	0.321042	-1.531595	-2.232907
H	1.096404	0.0	0.0
H	0.359824	0.789229	-1.933461
C	-1.659003	0.191558	-1.889963
N	-2.781786	0.370854	-2.186368
C	-0.574305	-1.139142	0.684187
N	-1.01119	-2.070725	1.253675
C	-0.453617	1.257879	0.56344
N	-0.801793	2.29678	0.991497
F	2.439565	0.0	0.0
