12

C	-0.39501	-0.023412	-1.486581
C	0.0	0.0	0.0
Cl	0.238145	1.428533	-2.314784
H	1.096629	0.0	0.0
H	-1.478908	0.001668	-1.623122
C	0.126305	-1.223702	-2.139191
N	0.487782	-2.194117	-2.692321
C	-0.485391	-1.203462	0.651242
N	-0.86337	-2.192415	1.164121
C	-0.51918	1.185636	0.654832
N	-0.922583	2.154469	1.185518
F	2.428952	0.0	0.0
