13
Coordinates from ORCA-job run
  C   -0.38224356053702     -0.01253446493828     -0.53805469347119
  C   0.93452090316734     -0.72182675929012     -0.26843101833154
  Cl  -1.02136033317886     -0.47160958842529     -2.08940754370078
  H   0.75639248974948     -1.79413495207688     -0.39150855983703
  H   1.65948362194621     -0.40366868828873     -1.02027145897586
  N   -1.35966358009419     -0.37428377943099      0.58992459023911
  O   -1.37230115657325      0.39838511312912      1.53781772970245
  O   -1.94715441881123     -1.43655056932755      0.47160293060962
  N   -0.24146257492357      1.50772874939210     -0.50472793533187
  O   -1.27838072887379      2.13492249124960     -0.64737671310680
  O   0.89176292712065      1.94700041393942     -0.35624513876634
  C   1.46111365134397     -0.46614153657631      1.06887266161413
  N   1.89729275966424     -0.30928642935609      2.14680514935611
