13
Coordinates from ORCA-job run
  C   -0.43953201037058     -0.10173068430918     -0.48087559427639
  C   0.92503202853721     -0.73515131431543     -0.26562899537604
  Cl  -1.15209397615026     -0.66744848310053     -1.96355192236627
  H   0.79503481866101     -1.81480308546967     -0.16834748048912
  H   1.51818511065387     -0.53754222495053     -1.16336996530992
  N   -1.40703132020521     -0.39966664169776      0.66204382963518
  O   -2.49506099717272      0.14727756031180      0.58556115615978
  O   -1.00772459293872     -1.16771734666417      1.52807951191866
  N   -0.26057348225754      1.42368579775102     -0.50099941797189
  O   0.08367174872617      1.91139851327103     -1.56450687425512
  O   -0.38927844482333      1.97777028828489      0.58162112999328
  C   1.62226293381645     -0.21456452054174      0.90655797023043
  N   2.20710818352365      0.17949214143027      1.84441665210741
