13
Coordinates from ORCA-job run
  C   -0.33824665071717     -0.12656716614026     -0.35555819371238
  C   0.78474477106759     -0.67207885053503      0.50740570529066
  Cl  -0.35439370321309     -0.79904410309745     -1.95219166750523
  H   0.70006175473062     -1.75893926804338      0.55283908773628
  H   0.67451046021817     -0.27498822410615      1.51848990130980
  N   -1.69465567864952     -0.39683840334007      0.29943343277386
  O   -1.72429195410962     -1.26776248008587      1.15816913184448
  O   -2.62522785020169      0.26816276000329     -0.12825923008420
  N   -0.23452120823266      1.40723092553671     -0.37697758686334
  O   -0.31813021878967      1.89652245764780      0.74295787065499
  O   -0.06869638767188      1.97637613191336     -1.43914639012670
  C   2.07869004691660     -0.28374859913449     -0.04403040284743
  N   3.12015661865231      0.03167481938155     -0.48313165847078
