13
Coordinates from ORCA-job run
  C   -0.29219621584361     -0.00504969543145     -0.40065986020282
  C   0.75716322970763     -0.71909976589155      0.43408661424934
  Cl  -0.12316698998396     -0.27842524014428     -2.09897128478262
  H   0.58224288625768     -1.79528813092230      0.33432576471955
  H   0.62200654582415     -0.43687130756170      1.47965769955683
  N   -1.66937966558606     -0.46510936534005      0.11854845213030
  O   -2.39523739535887     -1.10613381198916     -0.61866485144562
  O   -1.86885890911746     -0.14067280621613      1.28306806148225
  N   -0.30256837830748      1.50300636570682     -0.12538207249908
  O   -1.20484829096386      2.12128080651222     -0.66870294870119
  O   0.56920340588209      1.93619607113572      0.61500505428265
  C   2.11401909443051     -0.41034849593192     -0.00112039682808
  N   3.21462068305923     -0.20148462392622     -0.34919023196151
