13
Coordinates from ORCA-job run
  C   -0.30067323322136     -0.02774263384832     -0.39390942441177
  C   1.11052273000394     -0.14375602234222      0.15644515292770
  Cl  -0.63808865123122     -1.15026052382839     -1.66420403034965
  H   1.80057055002130      0.16008704204023     -0.63743166534306
  H   1.21511891049162      0.54615585748967      0.99562941135604
  N   -1.35210994133829     -0.17746295815593      0.71162414984899
  O   -0.94420264737664     -0.46875437570188      1.82721729367487
  O   -2.50351618745503      0.02992899790744      0.36118204635619
  N   -0.48450281917799      1.43179103402483     -0.85638184308197
  O   -0.40182494121339      2.23453410954665      0.06552661101520
  O   -0.65580815396076      1.66003875206649     -2.03951890427661
  C   1.43003680588899     -1.50271238140449      0.57707018499089
  N   1.72247757856885     -2.59284689779408      0.89675101729317
