13
Coordinates from ORCA-job run
  C   -0.28664493636273     -0.01873857761532     -0.40478663271382
  C   1.11348000932309     -0.06074571978577      0.18298220042357
  Cl  -0.48708608928639     -1.05101565960022     -1.77685184314723
  H   1.13413931172172      0.56112413433465      1.07987399189999
  H   1.79564323061925      0.36746606114177     -0.55905558864863
  N   -1.35131447906906     -0.35458720205346      0.64472250446981
  O   -0.95147571597419     -0.71661435090797      1.74245812318268
  O   -2.50586789045245     -0.20916524251520      0.27417605706469
  N   -0.58519615609117      1.45400787826328     -0.74825519345646
  O   -0.72911884154116      1.77160017166827     -1.91425313773730
  O   -0.61032061911983      2.17564433315544      0.24162011552309
  C   1.54130063908452     -1.41821755663584      0.50001383967283
  N   1.92246153714839     -2.50175826944963      0.73835556346679
