13
Coordinates from ORCA-job run
  C   -0.29869332341727     -0.01442286167829     -0.39624834290815
  C   0.75590632321439     -0.71201356610523      0.44568889735144
  Cl  -0.15802196320954     -0.34524952470951     -2.08705125271965
  H   0.63919587402714     -0.39494040015450      1.48357550445322
  H   0.56844694064170     -1.78896678273137      0.38276417497002
  N   -1.67151961275733     -0.44389408127245      0.15864707319636
  O   -1.85359495493310     -0.07260292103860      1.31193598030334
  O   -2.41007030664410     -1.11055131586949     -0.54220780826521
  N   -0.29050610653539      1.50133552971585     -0.17144414851354
  O   0.60160756402171      1.95118915326962      0.53398799906417
  O   -1.19871451403763      2.10946811525546     -0.71625303234111
  C   2.10977765518501     -0.43265855554531     -0.01772123626519
  N   3.20818642444440     -0.24769278913618     -0.38567380832571
