13
Coordinates from ORCA-job run
  C   -0.36925877400315     -0.01881512108336     -0.54659240233421
  C   0.92961319154427     -0.74126222482179     -0.22894453778831
  Cl  -0.97781035715579     -0.50449453242227     -2.10222565885517
  H   1.67727279558130     -0.45181476491218     -0.97007667160790
  H   0.73772139926679     -1.81333071390917     -0.33169944428560
  N   -1.37863589502910     -0.34007458651382      0.56511973666511
  O   -1.97851804450750     -1.39649014406436      0.45725238404207
  O   -1.40294161957728      0.45474137714875      1.49431574358463
  N   -0.20599926506476      1.49925702169736     -0.54492390735718
  O   -1.22944927731060      2.13826915409205     -0.72660040792300
  O   0.93015323925099      1.92492384277372     -0.37936196525152
  C   1.42781827175835     -0.46253522908334      1.11457596540018
  N   1.84003433524647     -0.28737407890158      2.19916116571089
