13
Coordinates from ORCA-job run
  C   -0.36960338222685      0.00376030473267     -0.54666865219505
  C   0.90587893955715     -0.76524107362800     -0.24409102133903
  Cl  -0.99169526805665     -0.43103596650634     -2.11199485606115
  H   0.68032227941728     -1.82848708611581     -0.36802370176338
  H   1.66185432066019     -0.48472754908248     -0.98024949134801
  N   -1.38933644022775     -0.30811852357571      0.55833021885081
  O   -1.38484414154005      0.46572872313169      1.50549565134966
  O   -2.02586039585923     -1.34025259667256      0.42755058522447
  N   -0.15942712324651      1.51547028208406     -0.51404393210281
  O   -1.16285899102285      2.18932114841852     -0.68116243632665
  O   0.98954235723092      1.90248196047331     -0.34230796286807
  C   1.41373671254671     -0.52903846307893      1.10392342987498
  N   1.83229113276761     -0.38886116018042      2.19124216870422
