13
Coordinates from ORCA-job run
  C   -0.39038037712623      0.06833907901615      0.31458477163159
  C   0.80818283008178     -0.81926851338830      0.03365839881034
  Cl  -0.66643857570798      0.32019865708012      2.00625584400310
  H   0.66777341016610     -1.77433762566014      0.54215583956666
  H   0.86319429521896     -1.00500822273453     -1.04090267077167
  N   -0.20407046592622      1.39364466333349     -0.44283971400070
  O   -0.16636005245640      2.43541377365512      0.18389403681239
  O   -0.09463116252848      1.22889761853601     -1.65172342342569
  N   -1.65621332292320     -0.53419639055791     -0.29960548753018
  O   -1.62090206328875     -1.72835957528019     -0.56312000815367
  O   -2.59291455156075      0.23727243395754     -0.43464566997099
  C   2.03269431098529     -0.17190306160617      0.49302147927736
  N   3.01906572506588      0.34830716364881      0.85826660375146
