13
Coordinates from ORCA-job run
  C   -0.29424918351667     -0.02163134480925     -0.39929577678477
  C   0.77006571176898     -0.69461137731332      0.45065158327010
  Cl  -0.12870730543739     -0.34266771648916     -2.08956730806930
  H   0.63487045528786     -0.38477623596268      1.48836382548322
  H   0.61211242783898     -1.77582080228156      0.38201411965966
  N   -1.66132973728589     -0.48761244914504      0.14043619744480
  O   -1.86062823325375     -0.13204554872756      1.29591548867441
  O   -2.38031189557897     -1.16186595121911     -0.57343603699578
  N   -0.32710602894124      1.49337056471375     -0.16834364554287
  O   0.54023799836560      1.96140836955741      0.55580874036069
  O   -1.24033181388232      2.08160645153348     -0.72635672880095
  C   2.11997601927307     -0.37618860043162      0.00115420573827
  N   3.21540158536173     -0.15816535942532     -0.35734466443749
