13
Coordinates from ORCA-job run
  C   -0.21236823310960      0.08107927962499     -0.45386076408568
  C   1.11909807299198     -0.09548427590639      0.25280254542078
  Cl  -0.25216139735996     -0.65822451945434     -2.01992348409035
  H   1.91157554519177      0.30844828326403     -0.37932918851935
  H   1.09960429904297      0.47168161632661      1.18562428112918
  N   -1.32434500512900     -0.45356440160887      0.46445292057662
  O   -2.01416778971387     -1.38029254985063      0.08357438565345
  O   -1.36972987888400      0.13823873039380      1.53605409524329
  N   -0.54415606209528      1.56679448913160     -0.60732355778503
  O   0.38491545713360      2.35229753248116     -0.47884850386842
  O   -1.70908694212602      1.81822830747283     -0.87309015526609
  C   1.35858235299618     -1.50789585145574      0.53076193098040
  N   1.55123958106124     -2.64230664041906      0.76110549461119
