13
Coordinates from ORCA-job run
  C   -0.18437393346986      0.15196578513990     -0.44778176875847
  C   1.10129453552552     -0.14883895701673      0.30068817073020
  Cl  -0.13392413449807     -0.34139039793551     -2.10766743239948
  H   1.93216673748286      0.33632188298606     -0.21377595791776
  H   1.02772294090353      0.26889803957556      1.30674355513128
  N   -1.35245879092659     -0.49900633036843      0.31192588919159
  O   -2.02320454277055     -1.34735458403861     -0.24497448527615
  O   -1.45875052969562     -0.07594201975791      1.45661266915922
  N   -0.49743828626124      1.64887149573125     -0.39354792605355
  O   -1.64273053412712      1.95505736593551     -0.68631885737983
  O   0.42668105125858      2.39205200873751     -0.09282034242816
  C   1.31649066411670     -1.59035079002053      0.37252819171139
  N   1.48852482246187     -2.74928349896808      0.43738829428973
