13
Coordinates from ORCA-job run
  C   -0.27917722670716      0.06729391900259     -0.40530792362654
  C   0.78356319407740     -0.75283617331491      0.30617099923068
  Cl  -0.03718737155457      0.17249737301167     -2.11390696581691
  H   0.67596745365577     -1.79058633279466     -0.02589091030914
  H   0.59744640944783     -0.70652410731985      1.38078751809016
  N   -1.63961355752088     -0.56841630861915     -0.05799479002004
  O   -1.90833475272588     -0.49078904640007      1.13494003575975
  O   -2.28558501635079     -1.10120153708520     -0.94110430979689
  N   -0.39155645948225      1.47863147196712      0.18014750392891
  O   0.44019797399482      1.79766174407545      1.01818630393825
  O   -1.32112622226448      2.14388105409786     -0.24943849628645
  C   2.13380869990224     -0.29018098136764      0.00857803894132
  N   3.23159687552796      0.04356892474678     -0.23516700403310
