13
Coordinates from ORCA-job run
  C   -0.24728362273756      0.04724111480524     -0.44093308395691
  C   1.11623320363226     -0.22376362509019      0.16842349442746
  Cl  -0.55341235818742     -0.89367664770751     -1.86301990390755
  H   1.27177117985513      0.46563689384404      1.00086601446945
  H   1.88420684163376     -0.03510444045201     -0.58338403536777
  N   -1.31503911008548     -0.17990785234896      0.64179004732481
  O   -2.14889371545558     -1.05064892605001      0.47870567123120
  O   -1.17452752805802      0.56853172152539      1.60113061355087
  N   -0.38980861339241      1.52822880488182     -0.79686883220430
  O   -1.53166174002229      1.91045918840692     -0.99982762780914
  O   0.64511785366739      2.17622792333315     -0.87252844862858
  C   1.19150311694409     -1.60279597966399      0.64008273113786
  N   1.25179449220612     -2.70942817548390      1.02556335973260
