13
Coordinates from ORCA-job run
  C   -0.34681959527346     -0.08743220871632     -0.36051566506544
  C   0.81128438553764     -0.71462797404221      0.39398340170678
  Cl  -0.39353675977981     -0.54275004312349     -2.03134723031388
  H   0.72261068239602     -0.45566474254279      1.45109414480175
  H   0.74994128938252     -1.79988525989696      0.29870762643078
  N   -1.67853540607522     -0.47226387101438      0.28663103925898
  O   -1.66419874615094     -1.43655075542427      1.03939847615817
  O   -2.63622389246514      0.21138257200608     -0.03978538534189
  N   -0.27225254463117      1.43787444413402     -0.18034046784415
  O   -0.36045137218122      1.77464676708975      0.99398975654548
  O   -0.11527824508591      2.14340751128484     -1.15896202319683
  C   2.08045798287471     -0.22675557032301     -0.13606554195298
  N   3.10200222145200      0.16861913056873     -0.55678813118677
