13
Coordinates from ORCA-job run
  C   -0.24306012372062      0.05194318408273     -0.44221513003070
  C   1.11641899913320     -0.22541392860572      0.17288150095033
  Cl  -0.53674229603577     -0.86820151306306     -1.88046738628159
  H   1.88884640428927     -0.03046750141867     -0.57263455045515
  H   1.26763729957385      0.45537719648894      1.01303138538942
  N   -1.32063693701368     -0.19072350955464      0.62761518004927
  O   -1.16713699930483      0.51903062722096      1.61411651843871
  O   -2.17751031996815     -1.03078005368234      0.42754609348138
  N   -0.38414662480557      1.53810881095693     -0.77840992900318
  O   -1.52676829348382      1.92809853319796     -0.96159460247359
  O   0.65308108501157      2.18099005022381     -0.86327853267307
  C   1.18746421992904     -1.60861995861885      0.63263296481013
  N   1.24355358639551     -2.71834193722805      1.00977648779804
