13
Coordinates from ORCA-job run
  C   -0.28011868836532     -0.01335148442859     -0.41105417744825
  C   0.79640862371590     -0.77339393415517      0.34050912207950
  Cl  -0.09396734388176     -0.10321265629376     -2.12485412074601
  H   0.60623689873492     -0.70569005285098      1.41013879376964
  H   0.74285910618379     -1.82351469090148      0.04036797346829
  N   -1.67442375393025     -0.53267999896651      0.01617442731971
  O   -2.57696715149868     -0.45669830987054     -0.79959442148270
  O   -1.74110874138558     -0.92493350875372      1.17555169886074
  N   -0.33092706076830      1.46028965568337      0.05765886299775
  O   -0.82783851379293      2.26756763822924     -0.70934076813630
  O   0.08203752787959      1.65454536184368      1.19415060228897
  C   2.11691383345373     -0.23685960338822      0.02939401912442
  N   3.18189526365491      0.18793158385268     -0.21910201209575
