13
Coordinates from ORCA-job run
  C   -0.31863551837395      0.00421408609947     -0.38906301397519
  C   0.74356992458294     -0.75219099231240      0.39073420644549
  Cl  -0.26004461378714     -0.31820534352702     -2.08990132928603
  H   0.63913345461766     -0.51775054385194      1.45274621120399
  H   0.56379664596256     -1.82020468784453      0.23816407543346
  N   -1.67655941410696     -0.42760050380204      0.20165062548662
  O   -2.10583654063506     -1.50305429995697     -0.18024402129584
  O   -2.14376842587229      0.31197233189001      1.05638961992435
  N   -0.24104426727609      1.51224027654458     -0.13553764861001
  O   0.48564882224479      1.86528268304886      0.78442101428312
  O   -0.94650674400512      2.21147871850215     -0.84363187038691
  C   2.08732208549919     -0.40945990923840     -0.05966529979383
  N   3.17292459114946     -0.15772181555178     -0.42606256942919
