13
Coordinates from ORCA-job run
  C   -0.30361796415480     -0.03458419517532     -0.39136223673328
  C   1.11328661696385     -0.13073787196250      0.14805259031471
  Cl  -0.63848102822452     -1.17130677964684     -1.64972452238783
  H   1.21816709637264      0.56883155046192      0.97918811605481
  H   1.79325551777887      0.17189385047607     -0.65492664288936
  N   -1.34442723044305     -0.18623188607808      0.72349890774717
  O   -0.92449681078896     -0.46215074817399      1.83850102830852
  O   -2.50090515984758      0.00431186782649      0.38034746097965
  N   -0.50682184214628      1.41903328791258     -0.86429147263812
  O   -0.42560375022501      2.23030012549521      0.05033559022446
  O   -0.68924298153375      1.63591387670179     -2.04788385283519
  C   1.45048861380340     -1.48174624272694      0.57992896594410
  N   1.75639892244518     -2.56552683511037      0.90833606791035
