13
Coordinates from ORCA-job run
  C   -0.33958518273243     -0.02000077615577     -0.56396007009262
  C   0.94615991995088     -0.73756454445184     -0.18679537664152
  Cl  -0.87311743354371     -0.50770896478630     -2.14645834420192
  H   0.76476679643012     -1.80994525287718     -0.30363707985407
  H   1.72732166357477     -0.44114478058353     -0.88964530839791
  N   -1.39877192194847     -0.34859878537364      0.49870546409364
  O   -1.48787252826681      0.45402870468026      1.41698595590904
  O   -1.97098340921725     -1.41810874621476      0.37040973154982
  N   -0.18344657140978      1.49851464042571     -0.55369589871824
  O   -1.19789302289175      2.13343761794545     -0.79175010909353
  O   0.93998139073278      1.92931769555437     -0.32553994956848
  C   1.37396983609837     -0.46152870601597      1.18118803086650
  N   1.70047046322326     -0.27169810214679      2.29219295414927
