13
Coordinates from ORCA-job run
  C   -0.40023731785301      0.20286889982615      0.21217380724121
  C   0.77099628566998     -0.75717317750123      0.33307823609454
  Cl  -0.79090225516839      1.00059461449403      1.69499569939564
  H   0.99432310635111     -1.16116665026729     -0.65590051731588
  H   0.45846680767323     -1.57781408065198      0.98697723997841
  N   -0.16304859739408      1.24871231876681     -0.88269186179303
  O   0.93497175880257      1.24633540328110     -1.42140168574853
  O   -1.11568562384891      1.97560927752737     -1.11835190586560
  N   -1.59273863277652     -0.60928006741951     -0.33191364405981
  O   -1.38962322412355     -1.05428316292574     -1.45526389541223
  O   -2.57408458785359     -0.76217968773892      0.37140248693800
  C   1.95441080341114     -0.11782132355166      0.89572260923811
  N   2.91115147711003      0.36559763616086      1.37217343130917
