13
Coordinates from ORCA-job run
  C   -0.30423252798155      0.00794393369818     -0.39174093073423
  C   0.77481008960672     -0.73058038031306      0.38163422970312
  Cl  -0.18560381150364     -0.19786331155282     -2.10381356149193
  H   0.66938848810044     -0.49225760974430      1.44143922931307
  H   0.60483125536483     -1.80316949345999      0.24262110137019
  N   -1.66216004204624     -0.48261035208693      0.15057350785976
  O   -2.40746365452658     -1.09739027567269     -0.58944494823365
  O   -1.82721834470380     -0.20720295199945      1.33297726323890
  N   -0.31639111842003      1.50343932922579     -0.05685288809984
  O   -1.23723014967426      2.13627068683071     -0.54988816901826
  O   0.57344010367195      1.91358986507958      0.67515386878904
  C   2.11562571287031     -0.39238485368932     -0.08065510924872
  N   3.20320399924184     -0.15878458631569     -0.45300359344745
