13
Coordinates from ORCA-job run
  C   -0.42498313552278      0.14301593215229      0.21208871220561
  C   0.79814121651720     -0.75651900843033      0.26446063161220
  Cl  -0.95942320718853      0.66753071146661      1.76992452898906
  H   1.10878260738565     -0.98283611202742     -0.75702120528118
  H   0.50161227066948     -1.68799950461041      0.75753853991712
  N   -0.19106821377313      1.36344072871043     -0.68488204930896
  O   -1.17377624778512      2.06434723853195     -0.87056594637951
  O   0.93573502444181      1.50969394243105     -1.13742487470741
  N   -1.52464747057261     -0.63604534289140     -0.53744709943306
  O   -2.53660956082779     -0.95301133969571      0.05960594680777
  O   -1.22192018386029     -0.88341048052250     -1.69864815187933
  C   1.89880985717445     -0.15037596208832      1.00407414606261
  N   2.78934704334167      0.30316919697377      1.61829682139507
