13
Coordinates from ORCA-job run
  C   -0.44319132227097     -0.00329173229896     -0.48841822254376
  C   0.85063137570167     -0.78816115451932     -0.34818842490919
  Cl  -1.18730701202600     -0.31598939144739     -2.02951790583508
  H   1.47206756995282     -0.54493200208429     -1.21504593838909
  H   0.61473693770899     -1.85367405440438     -0.38039185023931
  N   -1.44921190026197     -0.33850987786398      0.60963040092044
  O   -1.13197837834715     -1.23158144907013      1.38520595787837
  O   -2.48262825046941      0.31009665624471      0.59184406791268
  N   -0.11710278137207      1.48877069067294     -0.32661194990177
  O   0.29600608918450      2.05950480184104     -1.32207481995743
  O   -0.21437670008179      1.92396066037103      0.81211599486950
  C   1.58079468497773     -0.47763047508524      0.87710695687958
  N   2.21055968730364     -0.22856267235604      1.83534573331507
