13
Coordinates from ORCA-job run
  C   -0.44695449922075     -0.00516185358205     -0.48504214448833
  C   0.86249066458473     -0.76722906753501     -0.36554438138791
  Cl  -1.29510408107760     -0.46469658487226     -1.93277930785053
  H   0.62458296468235     -1.83250478635951     -0.43888326805638
  H   1.49916952540150     -0.49660722843373     -1.21017692148640
  N   -1.28880823369794     -0.30244019549181      0.76464035372542
  O   -1.14849216383342      0.48657724456980      1.68840155317488
  O   -1.93113404603023     -1.33896870870185      0.74579353740191
  N   -0.24040088603260      1.50711381296659     -0.50669145144064
  O   -1.26010095031618      2.17683640806426     -0.53160742709910
  O   0.91997158744213      1.89851445771985     -0.51531487164592
  C   1.56432499040432     -0.51001216154893      0.88831547970889
  N   2.13945512769369     -0.35242133679535      1.89888884944413
