13
Coordinates from ORCA-job run
  C   -0.34609655684243      0.00221529159662     -0.56170771047599
  C   0.91720097749720     -0.76351734977787     -0.20461846899119
  Cl  -0.90185482944100     -0.43681756667564     -2.15071026922482
  H   0.69933157185968     -1.82744120584657     -0.33615661207684
  H   1.70312432689292     -0.48234956091633     -0.90841542458829
  N   -1.41041605626176     -0.31037576969950      0.50037781182902
  O   -1.45184448487317      0.46752168976049      1.44313700444102
  O   -2.03432559668474     -1.34698301572923      0.34671201023532
  N   -0.14044160145943      1.51443981560222     -0.52331593686661
  O   0.99927586839844      1.90400613356357     -0.30235559857674
  O   -1.13688987205213      2.18614099594776     -0.73502583307444
  C   1.36638575395333     -0.52440823210767      1.16356325950964
  N   1.73755049901311     -0.38143122571783      2.26751576785994
