13
Coordinates from ORCA-job run
  C   -0.43054567796585     -0.12137140136098     -0.48525574806913
  C   0.92482353975584     -0.75220999015648     -0.21191297786558
  Cl  -1.10981631364357     -0.74140979227761     -1.96190935516073
  H   1.54144188764600     -0.59387531378875     -1.10157068867565
  H   0.78527826216252     -1.82639326361643     -0.07493971087417
  N   -1.42628854892043     -0.36906810603921      0.64513170352728
  O   -1.04657200872120     -1.09272296492287      1.55715799685279
  O   -2.51361073214764      0.16935409999300      0.51544568610852
  N   -0.24245758184523      1.40077142141099     -0.56141890204071
  O   0.14244907140120      1.84155384912234     -1.63145802025854
  O   -0.40540287225653      2.00064466099864      0.49185904979142
  C   1.59774010945833     -0.18575412805710      0.95312677953612
  N   2.18196086507658      0.26848092869447      1.86374418712840
