14
Coordinates from ORCA-job run
  C   0.71142821444770     -0.65035933189726      0.31180337112131
  C   -0.66053427318421     -0.71798120914986     -0.34931188478608
  Br  0.52857389035106     -0.73996134416425      2.26906767497426
  H   -0.47975525113506     -0.84699728958797     -1.42484845590954
  H   1.26989675648278     -1.55626732239108      0.06654323905324
  H   -1.16910171353726     -1.62407677482788     -0.00761442993761
  C   1.52559285890641      0.57657759007549     -0.05623317057714
  H   1.60940750313376      0.64149599739064     -1.14634396481082
  H   2.53031708471066      0.51787268690153      0.36456616958616
  H   1.05838726270580      1.49072738626523      0.31114212176406
  C   -1.55352777164741      0.49685127234555     -0.12466611183740
  H   -1.12946201642704      1.39986294231720     -0.56797006575190
  H   -1.71012426500970      0.67853105096252      0.94002574005219
  H   -2.53109827979749      0.33472434576014     -0.58416023294071
