19

C	-0.571515	-0.009023	-1.398192
C	0.0	0.0	0.0
Cl	0.281332	1.267769	-2.420264
H	1.092082	0.0	0.0
N	-0.254249	-1.290498	-2.180485
O	0.695458	-1.967504	-1.820699
O	-0.971599	-1.516604	-3.158539
N	-1.979426	0.127351	-1.443336
H	-2.24831	0.979792	-0.969981
H	-2.301341	0.145476	-2.404675
C	-0.478356	-1.198642	0.817822
H	-0.123797	-2.138949	0.396796
H	-1.56921	-1.228185	0.904153
H	-0.046466	-1.115315	1.819026
C	-0.391666	1.294267	0.717321
H	-0.173595	2.176964	0.112827
H	0.222202	1.367721	1.618865
H	-1.445986	1.312005	1.023472
H	2.902859	0.0	0.0
