19

C	-0.254415	-0.095219	-1.502547
C	0.0	0.0	0.0
Cl	-1.856809	-0.821969	-1.922791
H	1.097559	0.0	0.0
N	-0.276849	1.3458	-2.054885
O	-1.337233	1.964056	-2.068606
O	0.818843	1.805017	-2.352346
N	0.770003	-0.79157	-2.21801
H	1.663543	-0.565876	-1.748163
H	0.612627	-1.785965	-2.109219
C	-0.387102	-1.290015	0.710715
H	-1.467571	-1.37508	0.862945
H	0.114236	-1.30753	1.683036
H	-0.043385	-2.168273	0.158484
C	-0.566396	1.218167	0.703705
H	-0.130845	2.142657	0.318222
H	-0.307592	1.15949	1.764968
H	-1.65588	1.280242	0.612669
H	2.859517	0.0	0.0
