19

C	-0.569801	-0.001496	-1.414757
C	0.0	0.0	0.0
Cl	0.23275	1.238607	-2.404403
H	1.094491	0.0	0.0
N	-0.268275	-1.370365	-2.044049
O	0.818979	-1.562075	-2.562999
O	-1.152981	-2.215435	-1.895795
N	-1.994269	0.185239	-1.578776
H	-2.225516	1.099861	-1.210901
H	-2.472582	-0.520697	-1.031244
C	-0.4055	-1.238154	0.795023
H	0.038141	-2.145289	0.38086
H	-0.002363	-1.124713	1.805193
H	-1.490848	-1.379831	0.872975
C	-0.424885	1.263742	0.741805
H	-1.481999	1.250924	1.037275
H	0.18453	1.337675	1.646834
H	-0.227673	2.163047	0.153819
H	2.889691	0.0	0.0
