19

C	-0.424607	0.039402	-1.422347
C	0.0	0.0	0.0
Cl	-2.345796	0.589304	-1.538147
H	1.093111	0.0	0.0
N	0.201602	1.166962	-2.237482
O	0.70604	2.104709	-1.638297
O	0.159108	1.0422	-3.461185
N	-0.224018	-1.118468	-2.14295
H	-0.450695	-1.005089	-3.120775
H	-0.668244	-1.919547	-1.724839
C	-0.374551	-1.337394	0.634397
H	0.213037	-2.152013	0.202236
H	-1.447181	-1.555341	0.555382
H	-0.1127	-1.29803	1.694632
C	-0.482458	1.145276	0.88067
H	-0.444692	2.106415	0.375084
H	-1.504732	0.974552	1.231846
H	0.188695	1.196667	1.743534
H	2.743616	0.0	0.0
