19

C	-0.576357	0.013902	-1.411709
C	0.0	0.0	0.0
Cl	0.216681	1.266439	-2.391212
H	1.094484	0.0	0.0
N	-0.278727	-1.347517	-2.059435
O	-1.15492	-2.199508	-1.898366
O	0.796515	-1.526997	-2.607099
N	-2.00283	0.199522	-1.564002
H	-2.475209	-0.505474	-1.010245
H	-2.231513	1.114329	-1.195262
C	-0.401427	-1.245265	0.786592
H	0.008093	-1.139946	1.794969
H	-1.486081	-1.387604	0.870189
H	0.03926	-2.149065	0.36241
C	-0.423102	1.256489	0.755592
H	-1.480001	1.241661	1.049807
H	-0.224469	2.162054	0.178159
H	0.185074	1.319414	1.661647
H	2.889295	0.0	0.0
