19

C	-0.203893	0.018061	-1.507077
C	0.0	0.0	0.0
Cl	-0.269895	-1.726346	-2.213351
H	1.099341	0.0	0.0
N	-1.589943	0.517056	-1.959532
O	-1.650741	1.148393	-3.010991
O	-2.549348	0.237516	-1.246555
N	0.778638	0.802542	-2.079667
H	0.798352	0.775496	-3.088439
H	1.693015	0.612928	-1.632194
C	-0.531239	-1.183876	0.782803
H	-1.61601	-1.284837	0.688536
H	-0.055704	-2.113158	0.468692
H	-0.284291	-1.029548	1.83866
C	-0.437687	1.331066	0.609442
H	0.096862	1.465311	1.554393
H	-0.168508	2.167086	-0.039235
H	-1.514075	1.358854	0.80454
H	2.873806	0.0	0.0
