19

C	-0.362436	-0.010541	-1.44386
C	0.0	0.0	0.0
Cl	-2.26529	0.544938	-1.67313
H	1.094582	0.0	0.0
N	0.329561	1.073831	-2.265048
O	0.907211	1.972362	-1.670553
O	0.278651	0.942451	-3.488402
N	-0.132902	-1.195247	-2.113171
H	-0.305941	-1.111126	-3.104859
H	-0.604009	-1.98161	-1.696187
C	-0.435475	-1.294845	0.675495
H	-1.510354	-1.48178	0.556807
H	-0.221788	-1.217561	1.744383
H	0.139843	-2.146695	0.303789
C	-0.490819	1.201434	0.795505
H	-1.549842	1.104333	1.053428
H	0.099195	1.252365	1.715569
H	-0.345762	2.136845	0.260696
H	2.771244	0.0	0.0
