19

C	-0.480439	-0.015164	-1.432739
C	0.0	0.0	0.0
Cl	0.243977	-1.341265	-2.370015
H	1.095585	0.0	0.0
N	-2.03685	-0.332466	-1.40029
O	-2.765721	0.663162	-1.33735
O	-2.43476	-1.490154	-1.334445
N	-0.25634	1.195318	-2.124581
H	-0.562604	1.121409	-3.086034
H	-0.751581	1.94875	-1.668831
C	-0.426901	-1.225518	0.79772
H	-0.247668	-2.148749	0.245297
H	0.190656	-1.259363	1.698528
H	-1.481473	-1.19913	1.093748
C	-0.392309	1.284511	0.72555
H	-1.47464	1.454705	0.76061
H	-0.020473	1.211945	1.750871
H	0.106456	2.149956	0.282489
H	2.828435	0.0	0.0
