18

C	0.0	0.0	0.0
C	-0.439478	-0.015314	-1.538372
Cl	1.789436	0.0	0.0
H	-1.515159	-0.076717	-1.537208
C	-0.362559	1.307052	0.777026
H	0.003959	1.197457	1.801281
H	0.112486	2.171924	0.310212
H	-1.440315	1.40174	0.791368
C	-0.389813	-1.092692	0.863986
N	-0.356146	-1.835793	1.793319
C	0.05467	-1.228186	-2.294067
H	1.134621	-1.254977	-2.437576
H	-0.434772	-1.2085	-3.272501
H	-0.26801	-2.135209	-1.775188
N	-0.120846	1.221851	-2.233435
H	-0.734428	1.940549	-1.867536
H	0.833889	1.509366	-2.057922
F	-2.333174	0.0	0.0
