18

C	0.0	0.0	0.0
C	-0.465317	-0.058657	-1.52831
Cl	1.801905	0.0	0.0
H	0.434218	-0.350335	-2.081569
C	-0.564569	1.125855	0.844336
H	-0.257759	2.094166	0.446847
H	-1.65761	0.983189	0.783491
H	-0.208551	1.03487	1.873837
C	-0.348627	-1.280623	0.631859
N	-0.546977	-2.313433	1.155475
C	-0.934435	1.311328	-1.995383
H	-0.200708	2.102052	-1.813601
H	-1.133384	1.252101	-3.067385
H	-1.870013	1.52276	-1.474851
N	-1.510147	-1.01118	-1.828124
H	-2.296572	-0.76167	-1.179312
H	-1.189469	-1.945537	-1.597509
F	-3.030398	0.0	0.0
