18

C	0.0	0.0	0.0
C	-0.464993	-0.013035	-1.529561
Cl	1.802355	0.0	0.0
H	0.43438	-0.290479	-2.090033
C	-0.564928	1.100688	0.876936
H	-0.209578	0.979814	1.903807
H	-1.658048	0.959058	0.81151
H	-0.259405	2.080603	0.508445
C	-0.347519	-1.300358	0.592387
N	-0.533965	-2.357081	1.071324
C	-0.928585	1.371159	-1.956684
H	-1.124693	1.344306	-3.03038
H	-0.191556	2.152773	-1.74928
H	-1.863999	1.572336	-1.432308
N	-1.509456	-0.955412	-1.858966
H	-2.295914	-0.727466	-1.202205
H	-1.188408	-1.896792	-1.659804
F	-3.029152	0.0	0.0
