16

C	-0.596478	0.005843	-1.39739
C	0.0	0.0	0.0
Br	0.233925	-1.412976	-2.444117
H	1.092716	0.0	0.0
H	-0.321252	-0.945451	0.449409
C	-2.100603	-0.153626	-1.415988
H	-2.533866	0.66135	-0.834337
H	-2.48182	-0.135647	-2.434104
H	-2.358565	-1.105673	-0.948965
N	-0.251049	1.309464	-2.108557
O	0.618467	2.016258	-1.610892
O	-0.873233	1.564425	-3.138566
N	-0.568097	1.123947	0.760179
H	0.117874	1.86992	0.737056
H	-0.661514	0.842741	1.727344
Br	3.69044	0.0	0.0
