16

C	-0.431331	0.086771	-1.453958
C	0.0	0.0	0.0
Br	-0.167467	1.911392	-2.111554
H	1.097887	0.0	0.0
H	-0.370058	0.862854	0.557335
C	0.302698	-0.890459	-2.335506
H	0.001647	-0.798122	-3.377252
H	1.37204	-0.699028	-2.223015
H	0.08302	-1.896823	-1.975176
N	-1.938639	-0.136059	-1.537879
O	-2.618817	0.26563	-0.59611
O	-2.386938	-0.683412	-2.541595
N	-0.458815	-1.286796	0.524121
H	0.289035	-1.704682	1.062201
H	-1.264094	-1.160576	1.120587
Br	3.601428	0.0	0.0
