16

C	-0.46818	0.103394	-1.448677
C	0.0	0.0	0.0
Br	-2.323048	0.746241	-1.509602
H	1.094615	0.0	0.0
H	-0.300493	0.931458	0.494126
C	0.421367	1.013046	-2.269214
H	0.102795	1.04239	-3.313226
H	1.449002	0.651111	-2.183813
H	0.378204	2.022212	-1.856575
N	-0.423186	-1.298606	-2.045872
O	-1.451288	-1.873332	-2.378128
O	0.712992	-1.753398	-2.126052
N	-0.516165	-1.195659	0.646816
H	0.237908	-1.639385	1.154182
H	-1.260776	-0.974626	1.293493
Br	3.617775	0.0	0.0
