16

C	-0.403205	-0.021762	-1.472794
C	0.0	0.0	0.0
Br	0.217634	1.595334	-2.354306
H	1.094804	0.0	0.0
H	-0.331787	-0.947494	0.431816
C	0.154397	-1.24006	-2.183066
H	-0.101333	-1.230373	-3.244239
H	-0.257913	-2.138995	-1.714307
H	1.239446	-1.236622	-2.055239
N	-1.929356	-0.078661	-1.615136
O	-2.519218	-0.688723	-0.721321
O	-2.468702	0.391364	-2.609362
N	-0.491615	1.090713	0.812653
H	-0.031485	1.950706	0.545162
H	-1.492581	1.20098	0.713347
Br	3.628494	0.0	0.0
