16

C	-0.402715	-0.009441	-1.463913
C	0.0	0.0	0.0
Br	-0.120878	1.734746	-2.279189
H	1.093643	0.0	0.0
H	-0.307264	-0.978007	0.39759
C	0.366098	-1.060484	-2.236997
H	0.133646	-2.048692	-1.825982
H	1.43275	-0.869843	-2.097347
H	0.103811	-1.041062	-3.293314
N	-1.896627	-0.294341	-1.616908
O	-2.578756	-0.339444	-0.592567
O	-2.32703	-0.490668	-2.750031
N	-0.514842	1.120722	0.760994
H	0.20779	1.44786	1.38725
H	-1.328372	0.849532	1.292853
Br	3.612183	0.0	0.0
