16

C	-0.604189	-0.003642	-1.404147
C	0.0	0.0	0.0
Br	0.127418	-1.500338	-2.404693
H	1.0975	0.0	0.0
H	-0.333377	-0.930591	0.47016
C	-2.115109	-0.085888	-1.40399
H	-2.509984	-0.011568	-2.417791
H	-2.408659	-1.048387	-0.981583
H	-2.50955	0.719694	-0.789347
N	-0.169241	1.283509	-2.103216
O	-0.989592	2.204147	-2.086293
O	0.96022	1.349466	-2.56466
N	-0.548425	1.137982	0.754744
H	-0.47718	0.914033	1.740129
H	0.070952	1.929259	0.610909
Br	3.662521	0.0	0.0
