14

C	0.0	0.0	0.0
C	-0.36407	-0.326732	-1.48612
Cl	1.784651	0.0	0.0
H	0.501001	-0.051048	-2.090847
H	-0.30979	1.032747	0.188153
N	-0.518782	-0.991724	0.884595
H	-0.25283	-0.760563	1.83532
H	-1.542512	-0.898124	0.811414
C	-1.488305	0.359074	-2.119827
N	-2.092332	0.982134	-2.914538
N	-0.450902	-1.824739	-1.671778
O	-1.550849	-2.347129	-1.758419
O	0.633662	-2.401273	-1.722651
Cl	-3.395926	0.0	0.0
