14

C	0.0	0.0	0.0
C	-0.564461	0.023702	-1.413995
Cl	1.78195	0.0	0.0
H	-1.666189	0.078318	-1.251692
H	-0.294083	0.940052	0.472336
N	-0.471167	-1.200074	0.637872
H	-0.144429	-1.203977	1.596012
H	-1.495225	-1.129724	0.650931
C	-0.200787	-1.140744	-2.20119
N	0.066856	-2.097038	-2.827585
N	-0.181642	1.287053	-2.127331
O	-0.263139	2.323418	-1.473409
O	0.139677	1.216736	-3.310517
Cl	-3.470816	0.0	0.0
