14

C	0.0	0.0	0.0
C	-0.516663	0.14165	-1.424019
Cl	1.818619	0.0	0.0
H	-1.621683	0.18134	-1.317158
H	-0.28385	0.901492	0.545965
N	-0.480946	-1.244524	0.521667
H	-0.205552	-1.31844	1.494189
H	-1.504308	-1.177139	0.493496
C	-0.112231	-0.954053	-2.290565
N	0.195375	-1.840796	-2.99542
N	-0.106476	1.459626	-2.022458
O	-0.170295	2.433911	-1.280442
O	0.212101	1.484053	-3.207492
Cl	-3.444155	0.0	0.0
