19

C	-0.021116	0.006637	-0.039403
C	-0.310539	0.003516	-1.548084
Cl	1.800427	0.010924	0.142371
H	0.182811	-0.873691	-1.980795
C	-0.597877	1.184437	0.723445
H	-1.687852	1.079718	0.674286
H	-0.268154	2.135794	0.31198
H	-0.283341	1.111801	1.768542
C	-0.552961	-1.295556	0.539743
H	-1.648355	-1.223537	0.511772
H	-0.187498	-2.157825	-0.0261
H	-0.221128	-1.395289	1.576656
N	0.475615	1.131912	-2.260485
O	1.27944	0.778267	-3.12753
O	0.225852	2.299477	-1.981587
N	-1.680536	0.132138	-1.855066
H	-2.343604	0.087605	-1.023613
H	-1.956262	-0.552969	-2.54281
F	-3.240405	-0.134582	0.193968
