15

C	-0.55999	-0.005659	-1.531291
C	0.061717	-0.029567	-0.153745
Br	0.094429	-1.479916	-2.641267
H	1.152552	0.015995	-0.126579
H	-0.209034	-0.982177	0.311511
C	-2.017668	-0.09167	-1.521148
N	-3.1836	-0.225519	-1.445697
N	-0.163238	1.300451	-2.228365
O	-1.05408	2.132603	-2.383205
O	1.015321	1.43835	-2.509466
C	-0.378631	1.135556	0.725943
H	-0.170506	2.095546	0.24528
H	-1.43254	1.102204	1.021693
H	0.314319	1.050922	1.565897
F	2.229077	0.270692	1.228915
