15

C	-0.317297	0.090825	-1.30908
C	-0.191427	0.094153	0.216534
Br	0.447979	1.749096	-2.007067
H	0.826464	0.441257	0.41267
H	-0.904776	0.829828	0.611527
C	0.286736	-1.060648	-2.018515
N	0.087528	-1.883506	-2.852736
N	-1.829106	0.091138	-1.641753
O	-2.36063	1.061312	-2.167542
O	-2.419302	-0.925756	-1.288216
C	-0.354338	-1.275628	0.865902
H	0.43599	-1.916119	0.476265
H	-1.328364	-1.721657	0.669505
H	-0.226726	-1.175081	1.94929
F	1.858724	-0.910928	-1.074675
