15

C	-0.472061	-0.078061	-1.528712
C	0.036493	-0.048931	-0.105813
Br	0.339113	1.301995	-2.636766
H	1.12638	-0.025078	-0.028006
H	-0.316206	-0.974304	0.366283
C	-0.233107	-1.359292	-2.185702
N	-0.014369	-2.392528	-2.701829
N	-2.000423	0.132848	-1.50979
O	-2.643334	-0.869766	-1.207613
O	-2.452768	1.255542	-1.672402
C	-0.39796	1.168986	0.695917
H	0.286946	1.181335	1.542563
H	-1.447847	1.147542	1.009448
H	-0.211128	2.085009	0.131699
F	2.352978	0.475278	0.908023
