15

C	-0.081037	-0.033267	-1.383419
C	-0.111343	-0.091921	0.133076
Br	-2.024758	-0.261795	-2.014571
H	0.914498	-0.365801	0.407885
H	-0.806153	-0.877414	0.436893
C	0.373294	1.20743	-1.987222
N	0.403053	2.269516	-2.498006
N	0.592627	-1.232397	-2.014037
O	0.899348	-1.144904	-3.192367
O	0.677147	-2.237252	-1.318989
C	-0.477543	1.254423	0.739412
H	-1.429409	1.632815	0.357679
H	-0.555826	1.164893	1.826958
H	0.306052	1.976878	0.507407
F	2.123258	0.310873	-1.092178
