15

C	-0.073884	0.020807	-1.385313
C	-0.111401	-0.094571	0.127494
Br	-2.017016	-0.179461	-2.033178
H	0.912993	-0.379769	0.396236
H	-0.808692	-0.889665	0.398775
C	0.384643	1.281853	-1.941476
N	0.41986	2.363061	-2.409934
N	0.598219	-1.155834	-2.058577
O	0.675433	-2.186727	-1.401762
O	0.911081	-1.024709	-3.2311
C	-0.478344	1.229298	0.781445
H	-1.426254	1.62488	0.407521
H	0.308837	1.957566	0.581914
H	-0.564444	1.099454	1.864326
F	2.129078	0.345332	-1.072844
