15

C	-0.358802	0.287725	-1.443846
C	0.0	0.0	0.0
Br	-2.372751	0.477805	-1.696562
H	1.113789	0.0	0.0
C	0.200609	1.560143	-1.895197
N	0.620022	2.600416	-2.247355
C	0.033783	-0.794172	-2.341049
N	0.338506	-1.638703	-3.099289
N	-0.490421	-1.319863	0.347874
H	-1.254284	-1.219663	1.005542
H	0.268633	-1.790411	0.826885
N	-0.402345	1.06249	0.902563
H	0.396958	1.667046	1.04962
H	-1.181187	1.611428	0.552904
F	2.551584	0.0	0.0
