15

C	-0.520951	-0.018717	-1.459216
C	0.0	0.0	0.0
Br	0.30396	1.433888	-2.483124
H	1.111311	0.0	0.0
C	-0.182355	-1.2762	-2.123918
N	0.081444	-2.299692	-2.638042
C	-1.97087	0.17495	-1.493994
N	-3.133474	0.351154	-1.479567
N	-0.542973	-1.23383	0.614966
H	-0.460354	-1.095388	1.617585
H	0.119664	-1.976283	0.400111
N	-0.491416	1.189507	0.638862
H	-1.37758	1.030702	1.105962
H	0.205729	1.516719	1.293166
F	2.606866	0.0	0.0
