15

C	-0.524201	0.046697	-1.45701
C	0.0	0.0	0.0
Br	0.259617	-1.418382	-2.495352
H	1.111071	0.0	0.0
C	-1.980151	-0.106773	-1.487059
N	-3.147683	-0.24332	-1.463357
C	-0.155491	1.300885	-2.113583
N	0.122128	2.321166	-2.62708
N	-0.500281	-1.194172	0.622899
H	0.205502	-1.550229	1.252118
H	-1.371652	-1.029321	1.113755
N	-0.530188	1.23039	0.634342
H	0.137849	1.969066	0.421853
H	-0.438175	1.079593	1.634618
F	2.612253	0.0	0.0
