15

C	-0.51914	0.085778	-1.44644
C	0.0	0.0	0.0
Br	0.11865	1.736241	-2.338021
H	1.113099	0.0	0.0
C	-0.023396	-1.043506	-2.234214
N	0.324701	-1.929984	-2.921458
C	-1.983242	0.107718	-1.506425
N	-3.158312	0.11052	-1.54257
N	-0.468448	-1.278191	0.49818
H	-1.277341	-1.144725	1.094498
H	0.284961	-1.714432	1.011666
N	-0.577695	1.103654	0.784813
H	-0.326431	1.975629	0.325761
H	-0.0305	1.10628	1.642346
F	2.61425	0.0	0.0
