15

C	-0.529577	0.143565	-1.447329
C	0.0	0.0	0.0
Br	0.223863	1.744652	-2.28577
H	1.112006	0.0	0.0
C	-0.145523	-1.011137	-2.260031
N	0.149337	-1.962739	-2.882598
C	-1.988337	0.274775	-1.449913
N	-3.157284	0.393289	-1.405794
N	-0.521179	-1.30986	0.460386
H	0.165465	-2.004034	0.171688
H	-0.457475	-1.287952	1.473457
N	-0.504657	1.095014	0.78046
H	-1.384827	0.865642	1.229652
H	0.191987	1.352044	1.466532
F	2.609242	0.0	0.0
