15

C	-0.566139	0.061513	-1.403279
C	0.0	0.0	0.0
Cl	0.096538	-1.235415	-2.451871
H	1.090676	0.0	0.0
H	-1.647758	-0.102796	-1.381661
C	-0.303147	1.351003	-2.038435
N	-0.101664	2.365999	-2.593093
N	-0.514095	-1.213566	0.679921
O	0.102514	-1.590967	1.677263
O	-1.531474	-1.769078	0.230687
C	-0.413115	1.191979	0.847082
H	-0.019609	1.040053	1.854181
H	0.048797	2.095151	0.44706
H	-1.498572	1.318448	0.896132
H	2.670822	0.0	0.0
