15

C	-0.36894	0.021804	-1.457241
C	0.0	0.0	0.0
Cl	-2.150793	0.208147	-1.746272
H	1.093533	0.0	0.0
H	0.083643	0.930845	-1.863304
C	0.115985	-1.087711	-2.277706
N	0.477179	-1.878604	-3.06725
N	-0.449161	-1.197333	0.680551
O	-0.606819	-2.233193	0.015721
O	-0.543244	-1.152754	1.916903
C	-0.387392	1.255642	0.748528
H	0.13387	1.265476	1.705098
H	-0.050868	2.12387	0.174886
H	-1.463352	1.328891	0.921627
H	2.510845	0.0	0.0
