15

C	-0.384073	0.049794	-1.452281
C	0.0	0.0	0.0
Cl	-2.166747	0.265514	-1.720269
H	1.092635	0.0	0.0
H	0.075386	0.960889	-1.845297
C	0.079569	-1.055355	-2.29179
N	0.443956	-1.882565	-3.040373
N	-0.453287	-1.202509	0.67047
O	-0.683697	-2.213875	-0.007045
O	-0.483184	-1.182667	1.911389
C	-0.371483	1.246968	0.773542
H	-0.047942	2.122823	0.204417
H	-1.443237	1.317795	0.972006
H	0.172997	1.243575	1.717306
H	2.513668	0.0	0.0
