17

C	-0.345629	-0.001068	-1.481707
C	0.0	0.0	0.0
F	0.11577	1.184694	-1.973156
H	1.093502	0.0	0.0
C	0.213111	-1.123864	-2.310646
H	1.277502	-1.195341	-2.078918
H	-0.273481	-2.065099	-2.0758
H	0.068022	-0.863807	-3.362499
N	-1.867687	0.042284	-1.664878
O	-2.481925	-0.884761	-1.14566
O	-2.353459	0.957078	-2.319705
N	-0.340427	-1.200686	0.748576
O	-0.801168	-1.070108	1.89236
O	0.00786	-2.278503	0.250046
C	-0.515582	1.188755	0.641759
N	-0.873588	2.205019	1.114067
H	2.414522	0.0	0.0
