17

C	-0.501901	0.078155	-1.427372
C	0.0	0.0	0.0
F	-1.869954	0.187912	-1.463295
H	1.093345	0.0	0.0
C	0.135509	1.244379	-2.143644
H	-0.238292	2.173081	-1.712161
H	-0.126115	1.212338	-3.203735
H	1.218573	1.185607	-2.01119
N	-0.155783	-1.172972	-2.234274
O	1.039192	-1.394205	-2.369812
O	-1.077984	-1.795902	-2.741672
N	-0.396436	-1.187767	0.735468
O	-0.505265	-2.243624	0.097618
O	-0.44281	-1.100545	1.969285
C	-0.401395	1.193519	0.71305
N	-0.640211	2.217942	1.23989
H	2.389907	0.0	0.0
