17

C	-0.521575	0.033611	-1.424553
C	0.0	0.0	0.0
F	-1.871145	-0.222558	-1.453874
H	1.093303	0.0	0.0
C	-0.244846	1.356758	-2.095424
H	-0.850226	2.126386	-1.616979
H	-0.519199	1.290558	-3.150664
H	0.813989	1.599596	-1.998528
N	0.126401	-1.04184	-2.295351
O	-0.586899	-1.923433	-2.750241
O	1.31676	-0.875967	-2.519954
N	-0.338786	-1.230149	0.694416
O	-0.132984	-2.274339	0.062837
O	-0.651669	-1.173483	1.890539
C	-0.474253	1.152163	0.731021
N	-0.820141	2.151813	1.246801
H	2.376445	0.0	0.0
