17

C	-0.501428	0.213072	-1.411417
C	0.0	0.0	0.0
F	-1.869004	0.345312	-1.438022
H	1.107173	0.0	0.0
C	0.151164	1.429591	-2.022614
H	-0.10756	1.493444	-3.081721
H	1.233595	1.347084	-1.893586
H	-0.21254	2.322159	-1.511534
N	-0.174159	-0.965941	-2.325687
O	1.017132	-1.206936	-2.461544
O	-1.102219	-1.510452	-2.905573
N	-0.39858	-1.24223	0.628036
O	-0.395383	-1.273605	1.86619
O	-0.562222	-2.230531	-0.102412
C	-0.380298	1.128015	0.821128
N	-0.614718	2.109604	1.425992
H	2.37002	0.0	0.0
