17

C	-0.492327	0.126541	-1.424051
C	0.0	0.0	0.0
F	-1.849762	0.323337	-1.476139
H	1.103175	0.0	0.0
C	0.230519	1.251638	-2.125746
H	1.305844	1.111769	-1.985347
H	-0.031181	1.24831	-3.186096
H	-0.073505	2.2013	-1.683991
N	-0.212363	-1.134591	-2.235983
O	0.927093	-1.571387	-2.167753
O	-1.110497	-1.542029	-2.960647
N	-0.439267	-1.189795	0.709304
O	-0.84731	-2.155893	0.049516
O	-0.253208	-1.196772	1.932556
C	-0.365937	1.184765	0.744764
N	-0.596672	2.199987	1.292354
H	2.38967	0.0	0.0
