17

C	-0.504718	0.066356	-1.424986
C	0.0	0.0	0.0
F	-1.86972	0.212679	-1.462439
H	1.107125	0.0	0.0
C	0.162228	1.200138	-2.166508
H	1.244062	1.110482	-2.040764
H	-0.178405	2.147776	-1.747933
H	-0.110348	1.156983	-3.223385
N	-0.193548	-1.20709	-2.208195
O	0.991299	-1.496627	-2.289989
O	-1.125935	-1.777314	-2.757147
N	-0.407805	-1.167447	0.75498
O	-0.37731	-1.075378	1.989674
O	-0.6101	-2.219243	0.130771
C	-0.376085	1.209249	0.698526
N	-0.612436	2.2442	1.20589
H	2.371991	0.0	0.0
