12
Coordinates from ORCA-job run
  C   0.00518976227880      0.05347728649677      0.41849467465882
  C   -0.97929127967615     -0.50268235152842     -0.59964930803477
  Br  -0.56593879823311     -0.43315874878201      2.20679593542159
  H   -1.96016479865083     -0.05389002627085     -0.43824653526875
  H   -0.62639296758554     -0.24300806198065     -1.60207750247067
  H   -1.06437154114010     -1.58698726484532     -0.51347663399297
  N   0.25698622078620      1.45967752899117      0.40140536839225
  H   -0.57175420533269      1.96630608368627      0.68249453254505
  H   0.55277504722343      1.75079119440703     -0.52219839670211
  N   1.34388455105580     -0.63530591293822      0.10229130493522
  O   1.57417211844592     -1.73452717814671      0.58157354103401
  O   2.03490589082828     -0.03969254908908     -0.71940698051767
