12
Coordinates from ORCA-job run
  C   0.01361695530376      0.09617212668318      0.24255820361687
  C   -1.09005907271865     -0.63180914097007     -0.47951397100141
  Br  -0.26361482176234     -0.17344281411336      2.22871662571030
  H   -1.13503250782593     -1.67330465542105     -0.17418827258669
  H   -2.04301036448807     -0.15273697997163     -0.24822895457970
  H   -0.90361203396109     -0.57188943038781     -1.55342837616927
  N   0.14172909086466      1.43068206954938     -0.14874441210105
  H   -0.72379393462431      1.94064298002170     -0.04131573672874
  H   0.90526132084116      1.89969108664260      0.32055084658464
  N   1.37077231084587     -0.56516841723910      0.00323720243493
  O   2.35560412017505      0.12299593991422      0.24048526166678
  O   1.37113893734990     -1.72383276470806     -0.39112841684668
