12
Coordinates from ORCA-job run
  C   0.01320728207249      0.09317479149538      0.24345945214386
  C   -1.09180994837413     -0.61801514436999     -0.49327741895655
  Br  -0.27591483351178     -0.20230818243914      2.22518323622715
  H   -1.14587126508661     -1.66289008941664     -0.20138845416701
  H   -2.04245562135681     -0.13485229128197     -0.26102560302018
  H   -0.89922030838965     -0.54556206847273     -1.56536539735193
  N   0.15106088141132      1.43201124935036     -0.12825016697279
  H   -0.71084913225226      1.94686419260770     -0.01575676759009
  H   0.91760244387898      1.88859443346710      0.34830321530317
  N   1.36683651234936     -0.57355536125902      0.00207315901436
  O   2.35499427293723      0.10613733892986      0.24942314554202
  O   1.36141971632186     -1.72859886861091     -0.40237840017201
