12
Coordinates from ORCA-job run
  C   -0.13281856690573      0.00963097678100      0.35542929623007
  C   -0.99030552645906     -0.43577952185125     -0.80408422494587
  Br  -0.72360311738602     -0.82430470159364      2.02100442223414
  H   -2.00131102690519     -0.05894186781486     -0.65372431972813
  H   -1.00354661145681     -1.51922564518148     -0.88431726925651
  H   -0.58381645187729     -0.02151989523811     -1.73251384900944
  N   -0.12801460011016      1.40501438255022      0.51900845106537
  H   0.08915204143662      1.86608693027349     -0.35660981697464
  H   0.53302307332771      1.69677704821861      1.22735392131135
  N   1.30552046994809     -0.57274857751188      0.14907996723976
  O   2.23814935842016      0.16557236512870      0.44852937530766
  O   1.39657095796767     -1.71156149376082     -0.28915595347377
