12
Coordinates from ORCA-job run
  C   -0.10472683465198      0.09568294138602      0.35224988986291
  C   -1.04128740571109     -0.62060003238201     -0.59012756278729
  Br  -0.54175364081625     -0.30976907127111      2.21261629458507
  H   -0.72063444374923     -0.44215852694686     -1.62169088254437
  H   -2.04569160102043     -0.22230939819136     -0.45109200802018
  H   -1.03506800207845     -1.69121806259412     -0.40530207719844
  N   -0.11781430319416      1.48896036252403      0.17202658795035
  H   0.02107932583035      1.72364496394357     -0.80371631277886
  H   0.58970686056803      1.94534117789595      0.73325370403903
  N   1.32570161237656     -0.51605903173463      0.17442565482523
  O   2.26237534390889      0.27518693296097      0.20987242444450
  O   1.40711308853775     -1.72670225559045      0.01648428762206
