12
Coordinates from ORCA-job run
  C   0.00943470139700      0.06188317366789      0.41723791524707
  C   -0.98153455489728     -0.52215455594359     -0.57861683432259
  Br  -0.53811887046843     -0.39275243022812      2.22112502771491
  H   -1.96390801058750     -0.07699191799128     -0.41644870385505
  H   -1.05766330253461     -1.60501541610356     -0.46928964689279
  H   -0.64089742217451     -0.28095084047646     -1.58990413386506
  N   0.24986589830874      1.46941255874066      0.36912174791576
  H   0.53176223458245      1.74466512625675     -0.56361557174600
  H   -0.57939908149456      1.97495320985793      0.65061899190827
  N   1.34968454922654     -0.62325586455575      0.10068243488286
  O   2.03172456238668     -0.03622765856796     -0.73453730125875
  O   1.58904929625548     -1.71456538465652      0.59362607427137
