15

C	0.0	0.0	0.0
C	-0.379512	-0.671094	-1.355433
Br	1.950263	0.0	0.0
H	0.523436	-0.68968	-1.969244
H	-0.347837	-0.617114	0.825921
C	-0.391164	1.382862	0.252218
N	-0.544856	2.490786	0.611524
N	-1.277476	0.135425	-2.257511
O	-1.067315	1.341383	-2.303565
O	-1.996655	-0.49144	-3.022746
C	-0.863897	-2.089513	-1.152179
H	-0.110589	-2.626089	-0.564473
H	-1.816577	-2.068592	-0.625235
H	-0.981775	-2.595545	-2.108466
Cl	-3.139928	0.0	0.0
