15

C	0.0	0.0	0.0
C	-0.376917	-0.678786	-1.352497
Br	1.950148	0.0	0.0
H	0.531198	-0.704286	-1.959288
H	-0.348933	-0.616795	0.826486
C	-0.394034	1.382998	0.24988
N	-0.54694	2.492777	0.607627
N	-1.26393	0.126585	-2.266497
O	-1.050652	1.332114	-2.317766
O	-1.979434	-0.503326	-3.033482
C	-0.872912	-2.095557	-1.151556
H	-0.139566	-2.637376	-0.54547
H	-1.838059	-2.062266	-0.647475
H	-0.973168	-2.602166	-2.110417
Cl	-3.140001	0.0	0.0
