15

C	0.0	0.0	0.0
C	-0.574626	-0.191924	-1.396941
Br	1.950168	0.0	0.0
H	-1.664611	-0.291007	-1.20829
H	-0.32054	-0.821126	0.638917
C	-0.401938	1.278595	0.578382
N	-0.620239	2.314738	1.086666
N	-0.125659	-1.524591	-1.909438
O	-0.080963	-2.452377	-1.103371
O	0.122006	-1.632019	-3.11023
C	-0.2898	0.918365	-2.378352
H	0.778851	1.028818	-2.571563
H	-0.685625	1.849113	-1.968002
H	-0.79664	0.71791	-3.320674
Cl	-3.427605	0.0	0.0
