15

C	0.0	0.0	0.0
C	-0.556505	-0.168847	-1.410478
Br	1.949467	0.0	0.0
H	-0.219638	-1.131128	-1.800545
H	-0.301242	-0.877717	0.576609
C	-0.446968	1.195942	0.705337
N	-0.758974	2.129209	1.346316
N	0.055114	0.838973	-2.336914
O	0.053429	2.012123	-1.975876
O	0.47752	0.419346	-3.413544
C	-2.066846	-0.025417	-1.448269
H	-2.390325	0.949386	-1.08602
H	-2.419738	-0.154268	-2.473081
H	-2.575791	-0.758591	-0.821885
Cl	-5.038686	0.0	0.0
