17
Coordinates from ORCA-job run
  C   -0.37564531602799     -0.03725530617288     -0.58220109580132
  C   1.05114715468324     -0.14961568641150      0.00234363777785
  Br  -0.33847733458228     -0.95142544440806     -2.32637796465698
  H   1.73754795511199      0.30616722870392     -0.71950248204798
  C   -1.39743666353557     -0.72489671491909      0.30540708174955
  H   -1.40542530730632     -0.23203829863199      1.28193255123223
  H   -2.39435380140020     -0.64336979147608     -0.13109213526979
  H   -1.16668032989941     -1.78381811633354      0.43785883682272
  C   -0.72208430751204      1.42228932426272     -0.82459711259205
  H   0.00896676442137      1.89579805825611     -1.48464692995586
  H   -0.73110582128904      1.94817343954500      0.13168807636324
  H   -1.70560217709726      1.50413572291322     -1.29062266786300
  C   1.45484422065745     -1.55601168685174      0.16585240256106
  N   1.77085805129726     -2.66393864564851      0.39641154329052
  N   1.11941805051102      0.57926045485166      1.27082375071996
  H   1.13346681998994     -0.05630208314229      2.05769926635549
  H   1.95856204197785      1.14184754546303      1.30902324131436
