17
Coordinates from ORCA-job run
  C   -0.38428216472436     -0.02053062775012     -0.48965540903028
  C   0.92784574880044     -0.48608694297112      0.18121083107368
  Br  -0.09234127489359     -0.21839913637903     -2.43748530103937
  H   1.08513633466655     -1.53534412849475     -0.11511613219287
  C   -1.53650525503705     -0.93804707121172     -0.11304791347272
  H   -2.43177137485752     -0.66994850441396     -0.67642223981298
  H   -1.29925617948140     -1.98355587322527     -0.32322350140576
  H   -1.75589757834936     -0.83378670890360      0.95360130069357
  C   -0.68888452410423      1.43711156440641     -0.19712720036693
  H   -1.59250469204581      1.74623846866232     -0.72568227648073
  H   0.14079145305318      2.07788853630038     -0.49009123587956
  H   -0.85625664430123      1.55806716889043      0.87801908108059
  C   0.73561983499057     -0.47173474859463      1.63910999936295
  N   0.58145543294182     -0.46977870359263      2.80315982260126
  N   2.04448186944414      0.39394687367284     -0.14370406299006
  H   2.86333641354057      0.11859195980779      0.38575153840545
  H   2.25903260035728      0.29436787379666     -1.12929730054625
