17
Coordinates from ORCA-job run
  C   -0.65363716568895     -0.14898268194339      0.14967861338167
  C   0.80710538634720     -0.59947322481741      0.37073209362646
  Br  -1.70048654068762     -0.91483422511341      1.63164137195812
  H   0.81449915337664     -1.69415943177111      0.36417688478800
  C   -0.79177486125271      1.36340815959826      0.19923204731710
  H   -0.42142092222798      1.77160997220917      1.14186728975326
  H   -0.23420080977468      1.80650175018954     -0.63187528764770
  H   -1.83921980222835      1.64964710691172      0.09042880821365
  C   -1.19029978395379     -0.72655661791437     -1.14982538044613
  H   -1.11595126752731     -1.81641313518604     -1.15378702036475
  H   -2.23958149543879     -0.45420392270892     -1.27736602249022
  H   -0.60799639499724     -0.33304590776808     -1.98436304767540
  C   1.31857142928129     -0.15377952686798      1.68197480324918
  N   1.80184450753857      0.25805462643939      2.67080069347760
  N   1.64039553648365     -0.13386752786821     -0.73609563177999
  H   2.47993880181338     -0.69782509615154     -0.79193124737887
  H   1.93221422893672      0.82291968276236     -0.57428896798198
