17
Coordinates from ORCA-job run
  C   -0.38723727386786     -0.02699690229682     -0.48733220730121
  C   0.92467755322265     -0.48979943331570      0.18615339913503
  Br  -0.10611483803110     -0.26129369242116     -2.43265729688511
  H   1.07064486404229     -1.54706915325276     -0.08646154524740
  C   -1.54403670623602     -0.92958955646684     -0.08954506727257
  H   -1.75413709927428     -0.80971300717325      0.97733981605617
  H   -1.31728387322877     -1.97963947036529     -0.28806242901037
  H   -2.44152034366639     -0.66130037193178     -0.64929283876571
  C   -0.67979588879753      1.43778628674230     -0.21896007687354
  H   -0.84789487894150      1.57755169868268      0.85383772045418
  H   0.15610332780024      2.06603590234917     -0.52132125195609
  H   -1.58003840531483      1.74624056399052     -0.75367249414014
  C   0.74099128847151     -0.43968559477026      1.64425817815362
  N   0.59386636482052     -0.40654494577753      2.80892295293751
  N   2.04752007940514      0.37226744571935     -0.16487902883573
  H   2.86562477363790      0.10448865433927      0.36976181959313
  H   2.25863105595804      0.24526157594807     -1.14808965004178
