17
Coordinates from ORCA-job run
  C   -0.42232999924247     -0.05073426086541     -0.53921106817328
  C   1.02466095587956     -0.30560410103298     -0.06412303454571
  Br  -0.71094947678776     -1.22451044944890     -2.09397199305069
  H   1.68969040719808     -0.06158265144880     -0.89878013063319
  C   -1.43958120587850     -0.41480363573947      0.52919625701261
  H   -1.31066590676221      0.24459038615992      1.39316863329262
  H   -2.45256907218674     -0.27439895270414      0.14842371980149
  H   -1.33497402798129     -1.45394075317090      0.84796137390323
  C   -0.57631350553437      1.38819291556658     -1.00423872709190
  H   -0.39546996568317      2.05823266336472     -0.16242797218402
  H   -1.58384598617019      1.55255601564821     -1.39060932340508
  H   0.13737749603414      1.62146545683551     -1.79763698382847
  C   1.23943612008514     -1.72506867436543      0.28074056210943
  N   1.43344672816837     -2.82150145557654      0.65654959432572
  N   1.34414522100961      0.58869596021193      1.04702797755371
  H   1.00985086144726      0.19439425224626      1.91858213486175
  H   2.34909135640454      0.68601728431946      1.12834898005178
