17
Coordinates from ORCA-job run
  C   -0.35005689003717     -0.04957630030763     -0.48169291212897
  C   0.95120776682203     -0.59385713620336      0.17599971325934
  Br  -0.07814718183429     -0.21667805011781     -2.43091607600503
  H   1.05741988944201     -1.63677930634413     -0.14494649590681
  C   -1.54449403251361     -0.91472331777740     -0.11100672081490
  H   -2.43084891493452     -0.59903088561786     -0.66407149875122
  H   -1.35585477004873     -1.96653980505084     -0.33866345368829
  H   -1.75221109990186     -0.81919299688910      0.95861406306110
  C   -0.58979982688106      1.41519166460214     -0.16169418329851
  H   -0.71944098578650      1.53655442198178      0.91863551488086
  H   -1.49482501445618      1.76841277425919     -0.65872108454712
  H   0.23900717284250      2.04251346604900     -0.49271949116594
  C   0.75104545646519     -0.59953898847819      1.63408765858596
  N   0.55804405350872     -0.56547249131455      2.79184841828953
  N   2.20354058119102      0.07957536799753     -0.10958966321719
  H   2.18777048957241      1.03488308234545      0.22466243433632
  H   2.36764330655003      0.08425850086580     -1.10882622288911
