17
Coordinates from ORCA-job run
  C   -0.35264045335934     -0.05842499490224     -0.48167456825671
  C   0.94667792096286     -0.59296711389799      0.18655836921089
  Br  -0.08424620400932     -0.26697413578871     -2.42705968111856
  H   1.04964339309527     -1.64292393001877     -0.11191963223295
  C   -1.54947692423771     -0.91143459639097     -0.09096142838073
  H   -1.36505496610133     -1.96831434567677     -0.29749375700717
  H   -2.43613580990751     -0.60397197929286     -0.64811428432659
  H   -1.75447532964107     -0.79362797194465      0.97701517526095
  C   -0.58708016766581      1.41348073645722     -0.19165960012158
  H   -0.71316676236405      1.55774130733568      0.88634595364093
  H   0.24257634597828      2.03145600099551     -0.53789018210760
  H   -1.49259696081004      1.75916251896636     -0.69310878634139
  C   0.74884819714547     -0.56867396620869      1.64498585100989
  N   0.59372545369239     -0.51145250195549      2.80747197884468
  N   2.20092893956818      0.07053788129376     -0.11246590193897
  H   2.36588125602793      0.05233507791278     -1.11143759488750
  H   2.18759207162580      1.03305201311583      0.20040808875242
