15
Coordinates from ORCA-job run
  C   0.51828430310581      0.13653952255945     -0.51414282133885
  C   -0.91457500129796     -0.13136803942854     -0.03241096065736
  H   0.47600893176514      0.61762857597836     -1.49065720066174
  H   -1.46285034004549     -0.67404939045215     -0.80515537850558
  N   1.10032356884399     -1.26259613180003     -0.81669184306523
  O   2.12829921818577     -1.59184415956274     -0.23693830835112
  O   0.44487025197248     -1.95635175405624     -1.59093433632565
  N   1.25587221149697      0.88128131121591      0.43001996009466
  H   2.01079227066380      1.37865471422145     -0.01902646225690
  H   1.61740200285144      0.29871753807115      1.17329180118640
  N   -1.60682250546108      1.20901197128107      0.12101939063269
  O   -2.26337486388304      1.41278728022190      1.13064844113443
  O   -1.47316164720470      1.96617140461035     -0.83509265602516
  C   -0.91529576959101     -0.84842238620971      1.23436958301237
  N   -0.91577263140211     -1.43716045665023      2.25070079112705
