15
Coordinates from ORCA-job run
  C   0.59184176389928      0.06355918447134     -0.55025434385138
  C   -0.85451809218271     -0.13027915958773     -0.04500285380729
  H   0.54527175198050      0.56827324057478     -1.51370719766970
  H   -1.44952457856362     -0.66477192419659     -0.79234418169286
  N   1.06392377731246     -1.35004412831883     -0.85275797434479
  O   0.51115990468285     -1.88992604170424     -1.80846160760742
  O   1.90095910623711     -1.84593055277740     -0.11164772039272
  N   1.50301117753871      0.71725396012140      0.30498276593336
  H   1.41447787627427      1.72121165335178      0.26499967409024
  H   1.50899123120061      0.37013429861443      1.25388105876183
  N   -1.51420283190962      1.23219842885327      0.10084278975695
  O   -2.35250347428584      1.35777395691765      0.98216606617492
  O   -1.17877178062664      2.07931135045651     -0.71949516174847
  C   -0.87683328088433     -0.82533605536416      1.23333096447869
  N   -0.81028255067303     -1.40242821141220      2.25446772191864
