15
Coordinates from ORCA-job run
  C   0.63226697477018      0.07507515913108     -0.49790161734535
  C   -0.84396236741697     -0.17516774907346     -0.11656121357303
  H   0.64840018952695      0.54723258780333     -1.47875757572033
  H   -1.34392030609898     -0.75135401392767     -0.90126023877119
  N   1.19553355606545     -1.32206723197457     -0.70884585968560
  O   1.98061873540794     -1.75531371539067      0.12271633217531
  O   0.76043281082791     -1.91459461050442     -1.69369573652455
  N   1.42848414270704      0.79880700642292      0.41283295339379
  H   1.31312824914051      1.79654325022633      0.32217143822055
  H   1.35697367460080      0.48935966682414      1.37194359320327
  N   -1.56301531402865      1.16253764227040     -0.06865724735101
  O   -2.41053421913660      1.32137212329039      0.79862998926087
  O   -1.25113803185568      1.96044697291019     -0.94556134417510
  C   -0.94897121214563     -0.84175784268577      1.17249076658588
  N   -0.95129688236426     -1.39211924532220      2.21045576030651
