15
Coordinates from ORCA-job run
  C   0.53950235082539     -0.33393083597247     -0.22260549284629
  C   -0.72004254251572      0.46767875546678      0.07653183761961
  H   0.32665658731374     -1.40752860974330     -0.17528953091662
  H   -0.47002431506977      1.51125647542277      0.26922577078980
  N   1.54377092465477     -0.09583774249975      0.88192563811817
  O   2.62739866461049     -0.64455415720497      0.71957931452790
  O   1.21477131556506      0.60224013775592      1.83530216633289
  N   1.14857101681050      0.15646805416795     -1.43481705584144
  H   0.56720577995420     -0.07334397298400     -2.23288606883098
  H   2.04319262632510     -0.30448692954299     -1.55756291391937
  N   -1.42179472999002     -0.03512931820009      1.32292323229869
  O   -1.28590260445561     -1.22088999802576      1.59829382979909
  O   -2.09140895147629      0.79306259154571      1.92217712627057
  C   -1.65379217865981      0.35305892250367     -1.03814979282183
  N   -2.36710394389203      0.23193662731052     -1.96364806058019
