15
Coordinates from ORCA-job run
  C   -1.05094282883847      0.19506255614462      0.20163754041816
  C   0.37465890266957     -0.31578616019653      0.21653303305501
  F   -1.12220346610094      1.54149556644345      0.15271932567032
  H   0.35401717108795     -1.39582755432691      0.36370136227935
  H   -1.57213113872049     -0.15768722400711      1.09679347769456
  N   -1.83316531886317     -0.39353977559331     -0.95456074881465
  O   -1.68304081197767     -1.60320257314365     -1.09575743441568
  O   -2.56565360832579      0.34410554851219     -1.58876930604118
  C   1.20827861274591      0.37544412015828      1.28282184998895
  H   2.20907446947775     -0.05332971277381      1.30127039961785
  H   1.27640995282607      1.44422130525464      1.07783810038011
  H   0.74999813729609      0.23707814407866      2.26419980770029
  N   1.04409545011232     -0.12216305789490     -1.11756016436037
  O   2.14617472734869     -0.64600376075132     -1.23495275314411
  O   0.46442974926218      0.55013257809569     -1.96591449002859
