15
Coordinates from ORCA-job run
  C   -0.99468422044526     -0.67594944315492      0.16894902960690
  C   0.49648091104158     -0.41833128323844      0.33830741972576
  F   -1.57355694751919     -0.73829696866664      1.39141336321813
  H   0.84635777813813     -1.17608953227935      1.04509217445192
  H   -1.20510708984557     -1.58310825740020     -0.39581639739594
  N   -1.60329464070581      0.46884358915987     -0.60144617463602
  O   -1.19715808398624      0.55266883296577     -1.75659228929904
  O   -2.39048642749556      1.20880513367368     -0.03180904985402
  C   0.81559587496421      0.97960986325430      0.81457612978734
  H   0.57662245987025      1.71944900424345      0.05125254110997
  H   0.23484184147996      1.19029388478743      1.71477682337843
  H   1.87503401159577      1.06879160932327      1.05070933816186
  N   1.19758503332342     -0.76771407000903     -0.95222500097927
  O   0.99630788095312     -1.90332576545552     -1.37315166804977
  O   1.92546161863119      0.07435340279633     -1.46303623922626
