15
Coordinates from ORCA-job run
  C   -0.87372260998787     -0.55601020163662     -0.45476010185074
  C   0.43008300388031     -0.27249642661842      0.25879362745823
  F   -1.14215516929944     -1.88440284139030     -0.41348538224300
  H   0.40883917193842     -0.77067023459032      1.22930716477940
  H   -0.89411687068925     -0.19981640737523     -1.48277491234545
  N   -1.95702736990799      0.17450161312149      0.29060682729206
  O   -2.32443661584661     -0.31820285767402      1.35064552699654
  O   -2.33502816100890      1.23107335664602     -0.20889943415543
  C   0.76225480619268      1.20453137191391      0.36816651024855
  H   0.05743489083910      1.70698027686648      1.03129437558384
  H   1.76324965321031      1.32140496878361      0.78648559739398
  H   0.72736989736575      1.68225419270714     -0.61193310797616
  N   1.51738482481523     -0.95268109514754     -0.52339085802473
  O   2.32825296868958     -1.61567896383559      0.11432492646346
  O   1.53261757980867     -0.75178675177061     -1.73538075962056
