15
Coordinates from ORCA-job run
  C   -0.93337718624190     -0.77752843004884      0.03308826461466
  C   0.51277100492346     -0.40405768651354      0.32912390271321
  F   -1.57529084882740     -1.01962783670617      1.20041017417781
  H   0.89156577806298     -1.19402833953241      0.98394119880969
  H   -1.01959669596614     -1.63616747138386     -0.63128809501040
  N   -1.60269265731367      0.38176760010554     -0.66089279605666
  O   -2.48876251964840      0.98614795734630     -0.07676845664944
  O   -1.13815324019741      0.62125439183959     -1.77135738316503
  C   0.66571811455365      0.96137444371665      0.95792131832057
  H   0.40405425609771      1.75085652889482      0.25404793724335
  H   0.01296874617253      1.02618717409147      1.83075295421137
  H   1.69516992670786      1.12034196172097      1.27576406564249
  N   1.32153774272541     -0.55581321590471     -0.93665096817655
  O   2.00137992818449      0.39311267462300     -1.30685766363299
  O   1.25170765076681     -1.65381975224880     -1.48123445304208
