15

C	-0.349525	0.021848	-1.475552
C	0.0	0.0	0.0
Cl	-2.138008	0.155889	-1.748317
H	1.093658	0.0	0.0
H	-0.092666	-0.979623	-1.829721
C	0.400572	1.042083	-2.307981
H	0.296684	0.796282	-3.367863
H	1.453857	0.989991	-2.012931
H	0.028467	2.046847	-2.129026
C	-0.47088	-1.203805	0.652798
N	-0.776107	-2.235979	1.125528
N	-0.382197	1.179774	0.769273
O	-0.608883	1.034734	1.975787
O	-0.323386	2.273549	0.198029
H	2.466701	0.0	0.0
