15

C	-0.341546	0.038325	-1.478631
C	0.0	0.0	0.0
Cl	-2.127572	0.188601	-1.756605
H	1.093638	0.0	0.0
H	-0.09147	-0.961134	-1.842248
C	0.420382	1.060565	-2.294419
H	1.467602	1.009243	-1.980012
H	0.045473	2.065279	-2.119493
H	0.336376	0.816872	-3.356815
C	-0.481877	-1.207079	0.638051
N	-0.79914	-2.234732	1.11304
N	-0.385076	1.175816	0.773341
O	-0.279867	2.276433	0.219067
O	-0.661195	1.018671	1.970196
H	2.468832	0.0	0.0
