15

C	-0.457635	-0.066039	-1.449248
C	0.0	0.0	0.0
Cl	0.384494	1.187191	-2.43103
H	1.092045	0.0	0.0
H	-1.516255	0.178681	-1.533132
C	-0.118865	-1.42102	-2.043537
H	0.945094	-1.61237	-1.903587
H	-0.6881	-2.210794	-1.551166
H	-0.346489	-1.432508	-3.110657
C	-0.40771	-1.168877	0.750511
N	-0.711962	-2.153027	1.321219
N	-0.452485	1.183653	0.727228
O	-0.165706	1.222743	1.928862
O	-1.007968	2.098943	0.107983
H	2.434849	0.0	0.0
