11
Coordinates from ORCA-job run
  C   0.11799765127422      0.00474339781224      0.43478520331649
  C   -0.94633824875519     -0.71141868556729     -0.37936536562846
  Cl  -0.38794141864767      0.19970447117332      2.11078273249067
  H   -0.61044328683269     -0.80013945487455     -1.41403762514656
  H   -1.11448704139000     -1.70510809087581      0.03566364269106
  H   -1.87435112149836     -0.13909150564485     -0.33409676621119
  N   0.30412675851767      1.39502217930916     -0.22280585400028
  O   1.02990072361155      1.38842263670944     -1.20839768645245
  O   -0.33659713656095      2.32925064595286      0.22472020787774
  C   1.40513877129384     -0.67945766048716      0.38828051971430
  N   2.41299434898758     -1.28292793350738      0.36247099134869
