11
Coordinates from ORCA-job run
  C   0.14723696654659      0.01898148662751      0.37459538951166
  C   -0.99259803476676     -0.74114480309917     -0.26487078334515
  Cl  -0.19512288935037      0.35223143385770      2.08574662782998
  H   -0.78407138176504     -0.88837380953464     -1.32666198200567
  H   -1.08959048081668     -1.71198035723657      0.22156198984718
  H   -1.91601100557029     -0.17715657676048     -0.15012910923083
  N   0.30651425610214      1.39564257261237     -0.30349459215047
  O   1.44310445284236      1.83799749390078     -0.39241940961534
  O   -0.73008822776959      1.93754255072450     -0.65740320665326
  C   1.41676352381615     -0.68948826598166      0.26013109063978
  N   2.39386282073149     -1.33325172511033      0.15394398517212
