16
Coordinates from ORCA-job run
  C   0.75009961652561     -0.68030987119154     -0.00810909301318
  C   -0.67709967936298     -0.14264115271953     -0.17301204180649
  F   0.60111893509427     -2.04006270101725      0.38123791497851
  H   -1.16767254427119     -0.81415761613327     -0.89207098733308
  N   1.46571564634117      0.07616852506276      0.93361486783155
  H   2.36858928407287     -0.32632177771695      1.14543495034440
  H   0.89512014455470      0.18385062698341      1.76458560648907
  C   1.46484194538088     -0.71976198934279     -1.29792269586026
  N   2.00751062155875     -0.74544084999394     -2.33826757338422
  C   -0.68814767343510      1.27862899402760     -0.70728773262229
  H   -0.20149498678731      1.94923512059425      0.00121537960578
  H   -1.71842192821648      1.60989359998586     -0.86306483887634
  H   -0.16877528759432      1.34475247644818     -1.66480988715443
  N   -1.28157964344520     -0.18932534247656      1.15655006934600
  H   -2.13033269972530      0.36192214138175      1.16939132381789
  H   -1.52147175069036     -1.14443018389198      1.39251473763710
