16
Coordinates from ORCA-job run
  C   0.76782479363066     -0.44879844176674      0.27285977987368
  C   -0.53075487524044      0.06252737896615     -0.35293313290042
  F   0.57386116945781     -0.55105325370266      1.64648589402853
  H   -0.37484045297733      0.07029253558454     -1.43923718222455
  N   1.85094370237044      0.46607022935885      0.07192453358902
  H   1.96272027890118      0.67115600708233     -0.91360100875601
  H   2.71620840888985      0.06840802428610      0.41877280471171
  C   1.06127020391823     -1.82505095839347     -0.20427824625643
  N   1.40496474075831     -2.86364150240962     -0.63136651709727
  C   -0.85559009785739      1.47317541522614      0.13324118178181
  H   -1.80295417879085      1.79683263381740     -0.30512000853151
  H   -0.95817280438055      1.47598761452251      1.22037392381482
  H   -0.08046558302510      2.19240615308871     -0.13337225731694
  N   -1.54984117251133     -0.93951643409386     -0.07330957287543
  H   -1.80131472171405     -0.89901872802709      0.90759268341221
  H   -2.38285941142943     -0.75077667353930     -0.61603287525323
