14

C	-0.282104	0.032418	-1.48141
C	0.0	0.0	0.0
Cl	-2.07269	0.141837	-1.850291
H	1.097397	0.0	0.0
H	-0.008777	-0.952244	-1.871281
N	0.408666	1.155143	-2.048752
H	0.467059	1.057061	-3.055641
H	1.358974	1.134548	-1.661622
N	-0.445589	-1.238035	0.619861
H	-1.375705	-1.131992	1.004832
H	0.199697	-1.457768	1.372065
C	-0.466016	1.208555	0.681387
N	-0.852011	2.122812	1.312674
H	2.73671	0.0	0.0
