14

C	-0.337023	-0.151698	-1.481026
C	0.0	0.0	0.0
Cl	-0.197158	1.489208	-2.328046
H	1.102596	0.0	0.0
H	-1.381773	-0.427715	-1.640424
N	0.552725	-1.131131	-1.982231
H	1.509722	-0.894086	-1.698206
H	0.486623	-1.237593	-2.985738
N	-0.500971	-1.212907	0.6892
H	-0.080333	-1.981101	0.170905
H	-0.039543	-1.223573	1.596145
C	-0.5705	1.179492	0.630079
N	-1.012248	2.107051	1.200675
H	2.807426	0.0	0.0
