16

C	0.0	0.0	0.0
C	-0.328717	-0.030281	-1.436341
Cl	1.80318	0.0	0.0
H	-0.00831	0.874597	-2.013738
N	-0.600421	1.108892	0.678394
H	-0.306021	1.989663	0.345914
H	-0.230621	0.976483	1.682052
N	-0.550948	-1.197739	0.844376
O	0.327877	-1.859823	1.456358
O	-1.588653	-1.554946	0.346567
N	-1.792869	0.248046	-1.59132
O	-2.355013	1.248396	-1.247968
O	-2.268487	-0.386791	-2.580938
C	0.068904	-1.21997	-2.100191
N	0.936462	-1.736402	-2.746179
H	-1.70357	0.0	0.0
