17

C	-0.581671	0.002302	-1.415124
C	0.0	0.0	0.0
Br	0.445339	1.410053	-2.500417
H	1.097287	0.0	0.0
C	-0.32777	-1.235629	-2.150446
N	-0.182666	-2.244798	-2.734848
N	-1.969023	0.292494	-1.395679
H	-2.064013	1.0972	-0.778429
H	-2.32334	0.501417	-2.320269
C	-0.495966	-1.211791	0.772927
H	-1.580375	-1.191925	0.934931
H	-0.235437	-2.139203	0.259087
H	0.01936	-1.225361	1.737795
N	-0.461457	1.25422	0.638286
H	-0.748052	1.05105	1.588051
H	0.361761	1.844342	0.703183
F	2.633867	0.0	0.0
