17

C	-0.584228	-0.001384	-1.413738
C	0.0	0.0	0.0
Br	0.464807	1.372418	-2.517865
H	1.097364	0.0	0.0
C	-0.358215	-1.252549	-2.135473
N	-0.222469	-2.271175	-2.705085
N	-1.965953	0.316387	-1.394835
H	-2.319299	0.516567	-2.322149
H	-2.042986	1.133669	-0.792245
C	-0.497607	-1.206045	0.780086
H	0.001935	-1.203646	1.753681
H	-0.219918	-2.136813	0.280783
H	-1.585368	-1.194194	0.924644
N	-0.449204	1.262205	0.631473
H	0.388531	1.825436	0.736069
H	-0.789099	1.063202	1.566443
F	2.630393	0.0	0.0
