17

C	-0.568145	-0.010043	-1.418435
C	0.0	0.0	0.0
Br	0.405276	1.456664	-2.480521
H	1.097394	0.0	0.0
C	-0.241321	-1.227348	-2.160416
N	-0.024598	-2.220775	-2.749323
N	-1.965823	0.215613	-1.413417
H	-2.108933	1.006046	-0.788365
H	-2.321674	0.416414	-2.339021
C	-0.489128	-1.215557	0.772279
H	-0.223417	-2.140587	0.257184
H	0.026744	-1.228143	1.736099
H	-1.572791	-1.20175	0.934214
N	-0.486718	1.247745	0.632604
H	0.313907	1.870696	0.648295
H	-0.710608	1.048571	1.59941
F	2.634808	0.0	0.0
