16

C	0.0	0.0	0.0
C	-0.357179	0.089715	-1.490588
Cl	1.742728	0.0	0.0
H	-1.439776	-0.023556	-1.558052
H	0.100419	-0.799796	-1.928701
N	-0.345697	1.275458	0.787519
O	-1.223139	2.004707	0.326832
O	0.245756	1.472433	1.843141
N	-0.815721	-1.116615	0.635006
O	-0.770743	-2.165532	-0.072792
O	-0.815112	-1.139074	1.88997
C	0.093618	1.340284	-2.23875
H	-0.165418	1.227585	-3.296088
H	1.172593	1.494869	-2.181188
H	-0.409651	2.229663	-1.861993
H	-2.205688	0.0	0.0
