18

C	-0.566219	0.033169	-1.404452
C	0.0	0.0	0.0
F	-0.226125	-1.091799	-2.103921
H	1.095086	0.0	0.0
N	-1.970531	0.190391	-1.410445
H	-2.187055	0.880844	-0.697201
H	-2.30504	0.467811	-2.324834
N	0.064109	1.174038	-2.247663
O	-0.15397	1.121713	-3.460465
O	0.643973	2.086056	-1.670487
C	-0.443961	-1.28152	0.688039
H	-1.522624	-1.296438	0.870361
H	-0.171337	-2.150226	0.088755
H	0.093995	-1.358158	1.63758
N	-0.531347	1.171425	0.731064
H	-0.561388	0.927362	1.715043
H	0.167596	1.902585	0.640177
H	2.937894	0.0	0.0
