18

C	-0.568441	0.033422	-1.40131
C	0.0	0.0	0.0
F	-0.199333	-1.071755	-2.116401
H	1.092615	0.0	0.0
N	-1.975303	0.152133	-1.406098
H	-2.315278	0.423854	-2.319907
H	-2.21136	0.833621	-0.691329
N	0.035046	1.198206	-2.233598
O	-0.23486	1.179562	-3.435567
O	0.655015	2.08637	-1.661247
C	-0.440819	-1.282142	0.68941
H	-0.174366	-2.150175	0.086623
H	0.104195	-1.360966	1.634982
H	-1.518176	-1.296326	0.879701
N	-0.535488	1.170138	0.7292
H	-0.554863	0.929824	1.713781
H	0.157421	1.905712	0.629277
H	2.942102	0.0	0.0
