18

C	-0.586968	-0.033631	-1.394904
C	0.0	0.0	0.0
F	-1.992416	-0.262915	-1.305243
H	1.091122	0.0	0.0
N	-0.291675	1.108389	-2.128199
H	-0.375499	1.899524	-1.500779
H	-0.866278	1.175586	-2.955023
N	-0.160737	-1.227783	-2.242384
O	-0.567407	-1.216574	-3.404833
O	0.514516	-2.115524	-1.737842
C	-0.50087	-1.112994	0.903816
H	-0.294448	-2.09708	0.485618
H	-1.576389	-1.021508	1.088635
H	0.03468	-1.03779	1.853653
N	-0.320001	1.338825	0.539009
H	-1.064643	1.279846	1.225827
H	0.526889	1.661644	1.00399
H	2.851923	0.0	0.0
