18

C	-0.423384	0.070461	-1.455748
C	0.0	0.0	0.0
F	-1.771197	0.32959	-1.548816
H	1.094334	0.0	0.0
N	0.286524	1.027993	-2.231371
H	0.193642	1.885663	-1.691137
H	1.271853	0.765285	-2.160524
N	-0.233132	-1.293776	-2.113199
O	0.864561	-1.527405	-2.60909
O	-1.180361	-2.077063	-2.063472
C	-0.537167	-1.187143	0.777594
H	-1.631824	-1.224191	0.759954
H	-0.197305	-1.10237	1.813624
H	-0.154045	-2.131977	0.385464
N	-0.349693	1.30871	0.565982
H	0.398551	1.569386	1.199734
H	-1.217603	1.25648	1.084813
H	2.871114	0.0	0.0
