18

C	-0.567035	-0.011392	-1.41526
C	0.0	0.0	0.0
F	-0.364782	-1.2177	-2.011464
H	1.100631	0.0	0.0
N	-1.957706	0.325088	-1.538352
H	-2.151518	0.945095	-0.753775
H	-2.475401	-0.5344	-1.398944
N	0.180763	1.012875	-2.276884
O	0.834222	0.626805	-3.231302
O	0.022174	2.180528	-1.930298
C	-0.463826	-1.236353	0.750751
H	-0.171243	-2.144426	0.224824
H	-1.547157	-1.235117	0.914476
H	0.035685	-1.251048	1.723627
N	-0.524186	1.196982	0.692448
H	0.029875	1.988073	0.377383
H	-0.291267	1.078773	1.673518
H	2.911947	0.0	0.0
