18

C	-0.494171	0.042344	-1.432394
C	0.0	0.0	0.0
F	0.100524	-0.937437	-2.187966
H	1.091853	0.0	0.0
N	-1.892862	-0.098984	-1.582829
H	-2.172368	0.17626	-2.516501
H	-2.389445	0.444174	-0.891003
N	-0.025206	1.332092	-2.18156
O	0.774658	2.09313	-1.655217
O	-0.513497	1.482647	-3.307362
C	-0.445459	-1.306124	0.645313
H	-1.518625	-1.314368	0.867676
H	0.113222	-1.406978	1.577998
H	-0.211347	-2.158977	0.004175
N	-0.405698	1.136355	0.824758
H	-1.352717	1.452538	0.643981
H	0.237783	1.897454	0.645108
H	2.913802	0.0	0.0
