18

C	-0.545308	0.167706	-1.408223
C	0.0	0.0	0.0
F	-0.384541	-0.989632	-2.126928
H	1.099915	0.0	0.0
N	-1.890781	0.607688	-1.458284
H	-2.427352	0.073751	-2.12573
H	-2.283893	0.62308	-0.527508
N	0.277809	1.216527	-2.19104
O	0.448243	2.283859	-1.614648
O	0.630178	0.955907	-3.333197
C	-0.436667	-1.347864	0.55436
H	-1.526371	-1.464979	0.567826
H	0.013196	-2.158809	-0.019556
H	-0.0643	-1.43114	1.580309
N	-0.562938	1.067147	0.852166
H	-0.156907	1.938681	0.524016
H	-0.168525	0.914081	1.775422
H	2.922725	0.0	0.0
