18

C	-0.233694	-0.145488	-1.4934
C	0.0	0.0	0.0
F	-0.087422	1.10136	-2.100781
H	1.105257	0.0	0.0
N	0.641106	-1.102854	-2.008692
H	0.680991	-1.059817	-3.01928
H	1.570893	-0.935937	-1.600687
N	-1.693443	-0.518426	-1.826948
O	-1.993718	-1.706517	-1.732781
O	-2.475932	0.388424	-2.098686
C	-0.489074	-1.189842	0.799359
H	-0.069569	-1.126913	1.808983
H	-1.580313	-1.196727	0.870289
H	-0.151229	-2.123478	0.350196
N	-0.612825	1.233081	0.495801
H	-0.162399	2.007838	0.018299
H	-0.338592	1.312303	1.470934
H	2.914054	0.0	0.0
