18

C	-0.562892	0.019225	-1.416565
C	0.0	0.0	0.0
F	-0.432142	-1.203438	-2.00527
H	1.093322	0.0	0.0
N	-1.928506	0.446109	-1.536402
H	-2.11877	0.975554	-0.687081
H	-2.503949	-0.386841	-1.549434
N	0.251049	0.984286	-2.289463
O	0.324661	2.131234	-1.860882
O	0.702952	0.582404	-3.350434
C	-0.4777	-1.24786	0.722109
H	-0.15029	-2.14634	0.200181
H	-1.567735	-1.264431	0.838197
H	-0.019493	-1.264204	1.715482
N	-0.517242	1.190299	0.710319
H	-0.33458	1.033575	1.695647
H	0.079485	1.967986	0.441481
H	2.909783	0.0	0.0
