18

C	-0.552901	0.195595	-1.403391
C	0.0	0.0	0.0
F	-0.436433	-0.954189	-2.137305
H	1.098629	0.0	0.0
N	-1.89141	0.669215	-1.445293
H	-2.220904	0.801408	-0.496325
H	-2.470322	0.051602	-1.994748
N	0.301903	1.230048	-2.166657
O	0.711679	0.953492	-3.28511
O	0.440261	2.3051	-1.595502
C	-0.456611	-1.343544	0.544632
H	-0.044402	-1.461356	1.551266
H	-1.548035	-1.42028	0.601184
H	-0.061371	-2.156845	-0.063126
N	-0.541785	1.069847	0.863164
H	-0.069826	1.926834	0.586781
H	-0.205798	0.864563	1.799227
H	2.917888	0.0	0.0
