18

C	-0.237396	0.098234	-1.489198
C	0.0	0.0	0.0
F	0.006293	1.408526	-1.894508
H	1.098561	0.0	0.0
N	0.562226	-0.83296	-2.16926
H	1.505226	-0.777586	-1.765871
H	0.583452	-0.618067	-3.158036
N	-1.682295	-0.096931	-1.973737
O	-1.861794	0.022046	-3.186018
O	-2.560809	-0.352882	-1.156731
C	-0.429904	-1.311484	0.631983
H	-0.196614	-2.152261	-0.022107
H	-1.499529	-1.324441	0.853281
H	0.138668	-1.441824	1.558105
N	-0.538335	1.172473	0.688777
H	-0.929284	0.882055	1.575189
H	0.241549	1.789052	0.889621
H	2.88699	0.0	0.0
