18

C	-0.493781	0.008853	-1.429604
C	0.0	0.0	0.0
F	0.014308	-1.08988	-2.109524
H	1.094952	0.0	0.0
N	-1.906049	0.084234	-1.552582
H	-2.320989	-0.674704	-1.0283
H	-2.162306	0.009941	-2.530271
N	0.020323	1.19046	-2.260633
O	0.716593	2.047743	-1.737007
O	-0.333061	1.177563	-3.441613
C	-0.451009	-1.284126	0.69125
H	-1.519596	-1.265005	0.942043
H	-0.224234	-2.170448	0.0947
H	0.105432	-1.350422	1.627445
N	-0.448692	1.159808	0.768217
H	-1.298328	1.538846	0.36959
H	0.275777	1.862707	0.693476
H	2.922841	0.0	0.0
