18

C	-0.17587	0.150598	-1.511216
C	0.0	0.0	0.0
F	-0.165366	1.520969	-1.856253
H	1.098062	0.0	0.0
N	0.785652	-0.598896	-2.165806
H	1.697072	-0.469114	-1.695654
H	0.820717	-0.421238	-3.159262
N	-1.579877	-0.223517	-2.02225
O	-2.528055	0.175789	-1.344965
O	-1.685791	-0.849405	-3.074773
C	-0.498848	-1.344261	0.49512
H	-0.175352	-2.14909	-0.168359
H	-0.076028	-1.517854	1.486212
H	-1.590874	-1.358576	0.575742
N	-0.4986	1.088766	0.816544
H	0.103743	1.890074	0.672386
H	-1.431022	1.339587	0.509112
H	2.898776	0.0	0.0
