18

C	-0.247179	-0.065691	-1.492101
C	0.0	0.0	0.0
F	-0.094774	1.190387	-2.07169
H	1.09524	0.0	0.0
N	0.58683	-1.033155	-2.064482
H	0.58586	-0.958383	-3.072986
H	1.530468	-0.898427	-1.679472
N	-1.699523	-0.377322	-1.894707
O	-2.584514	-0.200738	-1.060595
O	-1.891482	-0.736368	-3.054818
C	-0.416025	-1.272554	0.72802
H	-1.495204	-1.302833	0.904884
H	-0.123265	-2.161942	0.166639
H	0.104789	-1.297608	1.689987
N	-0.484046	1.231156	0.597322
H	0.249109	1.593404	1.195428
H	-1.306463	1.049636	1.158614
H	2.868504	0.0	0.0
