18

C	-0.545593	0.162629	-1.409553
C	0.0	0.0	0.0
F	-0.43414	-1.011527	-2.111031
H	1.104901	0.0	0.0
N	-1.872632	0.652763	-1.464809
H	-2.249107	0.731859	-0.530246
H	-2.440012	0.118787	-2.105397
N	0.315624	1.163761	-2.209103
O	0.563601	2.215111	-1.63271
O	0.610817	0.891272	-3.365448
C	-0.451761	-1.333695	0.572268
H	-0.038903	-1.427922	1.581351
H	-0.054065	-2.158812	-0.017194
H	-1.542667	-1.414569	0.631888
N	-0.546774	1.083866	0.840796
H	-0.213448	0.896101	1.78014
H	-0.071867	1.934297	0.552205
H	2.92117	0.0	0.0
