12

C	-0.539592	0.082817	-1.410927
C	0.0	0.0	0.0
F	-0.018924	1.188125	-2.066902
H	1.094325	0.0	0.0
H	-1.631937	0.194075	-1.416848
H	-0.251733	-0.810124	-1.975221
C	-0.466847	-1.247225	0.596693
N	-0.877639	-2.231578	1.094815
N	-0.40227	1.174312	0.793509
H	0.43707	1.477469	1.274223
H	-1.101603	0.937925	1.486664
F	2.582207	0.0	0.0
