12

C	-0.536486	0.094032	-1.412235
C	0.0	0.0	0.0
F	-0.009147	1.203408	-2.056257
H	1.094377	0.0	0.0
H	-1.628182	0.210084	-1.419148
H	-0.249707	-0.793843	-1.983535
C	-0.470073	-1.249441	0.587066
N	-0.88391	-2.235629	1.078899
N	-0.405909	1.169498	0.798362
H	0.434674	1.477824	1.272607
H	-1.096581	0.922921	1.498419
F	2.580832	0.0	0.0
