12

C	-0.528481	0.034961	-1.418381
C	0.0	0.0	0.0
F	-0.41359	-1.204804	-2.043233
H	1.099755	0.0	0.0
H	0.069457	0.75778	-1.976942
H	-1.586093	0.32263	-1.4467
C	-0.545535	-1.122287	0.750966
N	-1.019137	-1.988145	1.391707
N	-0.336501	1.30206	0.616609
H	0.501855	1.595947	1.104708
H	-1.087763	1.21367	1.289394
F	2.586456	0.0	0.0
