12

C	-0.518177	-0.002644	-1.423581
C	0.0	0.0	0.0
F	-0.40969	-1.26167	-2.010537
H	1.099749	0.0	0.0
H	-1.573683	0.291512	-1.469112
H	0.090633	0.698251	-1.997524
C	-0.55058	-1.10227	0.775946
N	-1.028362	-1.949284	1.438221
N	-0.338656	1.317323	0.577064
H	-1.104385	1.251706	1.236001
H	0.489876	1.62148	1.075469
F	2.589127	0.0	0.0
