12

C	-0.428211	-0.017523	-1.457409
C	0.0	0.0	0.0
F	-0.020677	1.160477	-2.080803
H	1.095532	0.0	0.0
H	0.043797	-0.856591	-1.975159
H	-1.520311	-0.069674	-1.57403
C	-0.528156	-1.207099	0.629035
N	-0.977204	-2.186298	1.101003
N	-0.427344	1.193897	0.73265
H	-1.235559	1.619911	0.290372
H	0.346421	1.843708	0.658164
F	2.584183	0.0	0.0
