12

C	-0.375027	0.079707	-1.44686
C	0.0	0.0	0.0
F	-1.768719	0.128327	-1.649232
H	1.095627	0.0	0.0
H	0.04768	0.999872	-1.851616
H	0.004469	-0.787262	-1.993044
C	-0.50049	-1.227576	0.618599
N	-0.910245	-2.192771	1.152604
N	-0.411966	1.208929	0.720108
H	0.252239	1.3495	1.471937
H	-1.336665	1.10441	1.119401
F	2.575056	0.0	0.0
