15
Coordinates from ORCA-job run
  C   -0.63940653612178      0.48727342121579     -0.18670600687570
  C   0.55198478408001      0.13174046431744      0.72510371359230
  Cl  -1.81332352633026      1.47151268361860      0.63722669917869
  H   1.01577562716821      1.09053632662692      0.97471792841077
  N   -0.15031416076709      1.26703900475950     -1.40303498451284
  O   0.98314652743781      1.72652426675484     -1.34436854886672
  O   -0.96569296988575      1.41052917687406     -2.29992398871441
  N   -1.26089930406980     -0.81106621601421     -0.69720250434297
  O   -2.08553810259439     -1.33024843717608      0.04180064048799
  O   -0.80889218008663     -1.24837761173409     -1.74509436601755
  N   1.47408821021668     -0.71700741509578      0.00869569743116
  H   1.48874561808540     -1.66440868957516      0.35693938009274
  H   2.40576691755268     -0.33209040891676     -0.00663505248365
  C   0.06069946063995     -0.47558572508171      1.96895246295176
  N   -0.25514036532506     -1.00737084057356      2.96752892966835
