15
Coordinates from ORCA-job run
  C   -0.10096318047836      0.36205137140449     -0.72557849719690
  C   0.79134773531706      0.02718097383646      0.48155237341083
  Cl  0.85282608124125      0.79695725143725     -2.10608629356251
  H   1.50064568375365      0.85833602511560      0.53144938019295
  N   -1.03477683037856     -0.79544005481331     -1.06554947660828
  O   -1.49791281066105     -0.83217627432048     -2.19201061276062
  O   -1.26744919351361     -1.56337798952699     -0.13756072407320
  N   -1.00585056973263      1.53783096871750     -0.33926277776994
  O   -0.40026075487870      2.54549102728091     -0.00693915407122
  O   -2.21383817406960      1.35524784627214     -0.36345425386805
  N   1.51347833212988     -1.19402263961448      0.21421417148023
  H   0.97564728706332     -1.99957646296616      0.50600879152084
  H   2.40322904145699     -1.19470170629146      0.69317575833985
  C   0.02034119381207      0.04590997485682      1.73798774847641
  N   -0.53546384106169      0.05028968861171      2.77305356648960
