15
Coordinates from ORCA-job run
  C   -0.65272840438389      0.50557121955089     -0.04043713692376
  C   0.63882497253733      0.08725032250961      0.67448362913452
  Cl  -1.62235784051215      1.55103056746149      0.95154940005136
  H   1.06916135286862      1.03470988362300      1.01398536351566
  N   -0.21070581682224      1.23657123389598     -1.31615774920869
  O   0.39618532874167      2.27471595436532     -1.11623382483837
  O   -0.45902108811574      0.69723027572152     -2.38127309512261
  N   -1.48268509967316     -0.68797978107903     -0.50269795133142
  O   -2.62110929487356     -0.45510355745391     -0.87120722304079
  O   -0.90972619916151     -1.77264899687655     -0.49365128137318
  N   1.56165865512272     -0.50919612968005     -0.26069563377131
  H   2.51455208633908     -0.39672774904205      0.05718835496391
  H   1.35847904314799     -1.48856288987043     -0.40431247297355
  C   0.30938637207851     -0.71143057090547      1.86777343356519
  N   0.11008593270635     -1.36742978222033      2.82168618735303
