15
Coordinates from ORCA-job run
  C   -0.06774368768412      0.31620483774462     -0.66165714787742
  C   0.76880002301193      0.03103352350233      0.61476058007758
  Cl  0.98354346973631      0.61606078032046     -2.01638569351468
  H   1.40934600008841      0.91622249295868      0.70377206357833
  N   -1.03221221002691     -0.80881988273735     -1.01295998137066
  O   -1.16523879901880     -1.68950958008413     -0.16927406048456
  O   -1.60229635218219     -0.71780159671933     -2.08777313692256
  N   -0.93347162284234      1.54864882027581     -0.38307211831726
  O   -2.12876859672071      1.35621879088748     -0.21245875819226
  O   -0.31316664974671      2.59538164989576     -0.27496023173834
  N   1.60501060174169     -1.13521358253983      0.59401503106229
  H   2.31580525870328     -1.07466658209068     -0.12175588713343
  H   1.06106362246714     -1.98058756100748      0.49146804494315
  C   -0.11064261920273      0.01640063752970      1.79066788340932
  N   -0.79202843832426      0.01142725206395      2.74661341248050
