15
Coordinates from ORCA-job run
  C   -0.62472111355683      0.51695968248507     -0.15467995706086
  C   0.60307129999467      0.11587027437096      0.68795666153680
  Cl  -1.68994679603686      1.57526181174136      0.72285104956688
  H   1.12278717156664      1.05536923698044      0.89716076636732
  N   -0.17603014707995      1.24922785999117     -1.41482292284204
  O   0.97663657297552      1.66099140184723     -1.43242881213283
  O   -1.03658895933699      1.40809452582514     -2.26595026836336
  N   -1.34388686789745     -0.75496579455297     -0.59939725445545
  O   -2.16708519577043     -1.20447235984854      0.18536792926598
  O   -0.96025770412562     -1.24622046109378     -1.65087585090545
  N   1.44422906757893     -0.77899012347289     -0.06938130244467
  H   2.39304928768491     -0.44369839515323     -0.13030309760312
  H   1.42436357616599     -1.72739569039056      0.27560971645374
  C   0.15822712754622     -0.45679753719933      1.96543957905250
  N   -0.12284731970875     -0.96923443153008      2.98445376356456
