15
Coordinates from ORCA-job run
  C   -0.16469378030672     -0.00387148822013     -0.67823193238705
  C   0.26273733635171     -0.20910713019701      0.77539619519113
  Cl  0.97485956848446     -0.64294380418095     -1.81133035746530
  H   -0.57013711879566      0.14186217734713      1.38871610419117
  N   -1.54927342845725     -0.58870598323285     -0.95297467037805
  O   -2.10385481461715     -1.15541097997453     -0.01981740854459
  O   -1.98127938506902     -0.40469526368585     -2.08062632535269
  N   -0.36805345682544      1.51047674857266     -0.86096561128228
  O   0.33075804681148      2.11039074388410     -1.65191595263472
  O   -1.25274893172362      1.95297556045625     -0.13952410417070
  N   1.40860471820207      0.64547632453788      1.01404692299228
  H   1.52431286777465      0.80600569139216      2.00612126795760
  H   2.25780924327393      0.22687882481793      0.65419728926590
  C   0.48188900702103     -1.63788889260050      1.04893022240030
  N   0.74907012787555     -2.75244252891629      1.30697836021702
