15
Coordinates from ORCA-job run
  C   -0.56726137385393      0.51676200474047     -0.08397851490473
  C   0.67423089364629      0.10348275536387      0.76426655332063
  Cl  -1.52495620746366      1.70178775509825      0.74822855900026
  H   1.12067439531172      1.05226683956297      1.07650399528343
  N   -0.13707090826216      1.12088633572295     -1.41487712972526
  O   0.95774736808852      1.67079270639313     -1.42278039253245
  O   -0.94591052809870      1.05810627978842     -2.32766723196085
  N   -1.38306156763439     -0.72270826413840     -0.43508593932798
  O   -2.50132187202890     -0.85086661933543      0.02962967821063
  O   -0.76962015233507     -1.51301081754937     -1.14661956653446
  N   1.69586843581582     -0.69504306525711      0.15267698884106
  H   2.17754974081040     -0.17313661645612     -0.56597788854461
  H   1.33057756012369     -1.55671460197421     -0.22934387721922
  C   0.14981412030171     -0.57407859180139      1.95892112869856
  N   -0.27625990442135     -1.13852610015801      2.89610363739498
