15
Coordinates from ORCA-job run
  C   -0.11679548906844      0.37936054638747     -0.62768077271922
  C   0.81509658615129      0.05783524164331      0.57102336510953
  Cl  0.82952971077897      0.76641313632836     -2.03656947358813
  H   1.48828028809679      0.91668072027891      0.64720020389364
  N   -1.02008764291764     -0.82280691067665     -0.87343446814900
  O   -0.80443200548853     -1.53082904876826     -1.84342711420232
  O   -1.85130630970680     -0.98901160647230      0.01146212993595
  N   -1.03611448662743      1.56214598457247     -0.35686201654559
  O   -2.05930794419511      1.61822644642809     -1.02093437072831
  O   -0.61681517280890      2.37600500550776      0.45607242190284
  N   1.59851509303789     -1.14008138208873      0.40482292939417
  H   1.03113591292100     -1.97773675522685      0.40641133926929
  H   2.17057042312065     -1.10736800337589     -0.42810895451001
  C   0.06329909478275     -0.02181054693025      1.82829503811733
  N   -0.48956805807649     -0.08802282760745      2.86172974281985
