15
Coordinates from ORCA-job run
  C   -0.07877978153848      0.30980209231915     -0.66362673581966
  C   0.77964932871145      0.03903702383242      0.60103231263567
  Cl  0.94787227830433      0.59770553766116     -2.03957114695517
  H   1.42022492979388      0.92597806068639      0.67023160218571
  N   -1.04778864825511     -0.82019068799186     -0.98659153429213
  O   -1.16533013959949     -1.69173207127692     -0.13116922781585
  O   -1.63455802319955     -0.74307461661268     -2.05341156488942
  N   -0.94168260992331      1.54423015329144     -0.38272084741839
  O   -2.13427627297407      1.35273334835260     -0.19366602212347
  O   -0.32049021210898      2.59220361579042     -0.29325688987609
  N   1.61686328819914     -1.12667206783608      0.57851494395863
  H   2.31114177510072     -1.07580821594273     -0.15411413731389
  H   1.07096787497263     -1.97332063456596      0.49874039571853
  C   -0.07960911875082      0.03523736430316      1.79181002149282
  N   -0.74520466873235      0.03387109798950      2.75879883051273
