13
Coordinates from ORCA-job run
  C   0.74469695348248      0.17489691234832      0.30607412308057
  C   -0.59506425571733     -0.03471846222564     -0.40935379552618
  F   1.41988340375032      1.15970123453223     -0.45455863464694
  H   -0.36910310106713     -0.49836354921720     -1.37846878535449
  H   0.59021954743767      0.61652076607259      1.29376507614375
  N   1.46631167459218     -1.02623310167355      0.42017899019741
  H   1.68188640003542     -1.42298283821819     -0.48506101575180
  H   2.31659439973337     -0.91555140377249      0.95445164609329
  N   -1.35521898264046      1.17796030355794     -0.66994686502485
  H   -0.75346904153754      1.83715631366132     -1.14843968241904
  H   -1.64835024928323      1.59867636120398      0.20427477175907
  C   -1.41444861149125     -0.97527840866356      0.36266851834784
  N   -2.08493813729450     -1.69178412760575      1.00541565310138
