13
Coordinates from ORCA-job run
  C   0.88312223926397      0.18832356644629      0.23232272085148
  C   -0.50227817517736      0.06426280470995     -0.40575396531213
  F   1.66578136400186      0.93930640292124     -0.64797377248870
  H   -0.35474280547609     -0.40203497207864     -1.38675824902888
  H   0.82275193970588      0.76365135250747      1.16086411103533
  N   1.42830480649071     -1.08754911660233      0.50273867294524
  H   1.58016220058057     -1.60807633995120     -0.35229491754287
  H   2.30318762652033     -1.01668098431709      1.00397776479975
  N   -1.08629209220368      1.37878864572157     -0.62123548216582
  H   -1.38168040106106      1.77392543376842      0.26412235530543
  H   -1.90812058216870      1.30079378854932     -1.20722043493972
  C   -1.34940918630912     -0.83003116835348      0.40868188625047
  N   -2.10178693416731     -1.46567941332151      1.04852931029042
