13
Coordinates from ORCA-job run
  C   0.73233844832783     -0.41466212573755     -0.10023576036218
  C   -0.64609517661050      0.18673230574252     -0.41288640727448
  F   0.56764313827705     -1.38508194230188      0.86880919221940
  H   -0.49317584908668      1.01512043718353     -1.11660312857393
  H   1.15241006817258     -0.92462399871289     -0.97822996009057
  N   1.56860831784548      0.61129580175700      0.47113887632608
  H   2.38720295974830      0.17970528628300      0.88369281099516
  H   1.88204301506349      1.24764050430639     -0.25241637838631
  N   -1.34551993435092      0.70045978525613      0.75324382689753
  H   -1.53306107284859     -0.07259549299849      1.38206436153482
  H   -0.70580616054375      1.32345591717677      1.23517282032315
  C   -1.46875953386324     -0.81999989585724     -1.09484699391209
  N   -2.09682822013104     -1.64744658209729     -1.63990325969657
