13
Coordinates from ORCA-job run
  C   0.95905078005663     -0.06667332926678     -0.42096406064419
  C   -0.55463274907443      0.14896694853834     -0.48751176839760
  F   1.29903094904007     -0.91590272460931     -1.46500822505606
  H   -0.78324994718279      0.50824532139886     -1.50048826456484
  H   1.46469879910699      0.88297479871036     -0.65468629496387
  N   1.31116642282432     -0.65281982034512      0.81944939737855
  H   2.28507543625619     -0.51622508990562      1.04801320288457
  H   0.72195906043200     -0.28564429811890      1.55543596861371
  N   -0.95253714560409      1.06487296131573      0.58293631538992
  H   -1.95994784819674      1.07184721922186      0.68427038941268
  H   -0.66058548417206      2.00632841828162      0.34544490741155
  C   -1.25505990055077     -1.12892969548275     -0.31391828027924
  N   -1.87396837293531     -2.11804070973829     -0.19297328718518
