13
Coordinates from ORCA-job run
  C   0.79801442912546     -0.56061751208340     -0.01413145317746
  C   -0.44741444699223      0.16304961939217     -0.52302237540822
  F   0.37178101754681     -1.31332708389313      1.10777185306355
  H   -0.14334409083995      0.76672744849008     -1.38238078374620
  H   1.15984013187040     -1.29447979283700     -0.73679284837889
  N   1.79934543154312      0.37770487322463      0.29051508219983
  H   2.61797667410542     -0.06203293757997      0.68724760904624
  H   1.43278622059366      1.08598155492841      0.91363623020043
  N   -0.91708282909619      1.05513026655623      0.52920535386988
  H   -1.65019117232339      1.65976304083524      0.18163695797077
  H   -1.29543694037930      0.50182046346995      1.28878993902153
  C   -1.45301098368114     -0.81510210690000     -0.98143356304809
  N   -2.27226344147268     -1.56561783360317     -1.36104200161338
