13
Coordinates from ORCA-job run
  C   0.97452891480652     -0.05782647434700     -0.38509837524740
  C   -0.53855581426971      0.13560002968084     -0.50889575065907
  F   1.36386943944844     -0.91362058654407     -1.40609055859501
  H   -0.73500090222638      0.48040561446523     -1.53361834207747
  H   1.47508385368476      0.89638250613661     -0.61102313531664
  N   1.28913104687929     -0.62528819423162      0.87407795903416
  H   2.25218757547214     -0.47260351928397      1.13615722757995
  H   0.66910045187382     -0.25715857128094      1.58386016285512
  N   -0.98771198812641      1.05757328890194      0.53588944266332
  H   -1.99817812481334      1.05145052970929      0.60021578247512
  H   -0.70026441699235      2.00044347011622      0.29846206683251
  C   -1.22763329565606     -1.14977826393525     -0.34633442624132
  N   -1.83655674008071     -2.14657982938726     -0.23860205330326
