13
Coordinates from ORCA-job run
  C   0.81413159035653     -0.53500518133794     -0.04816280995642
  C   -0.46405625532619      0.16192155379288     -0.51131732425388
  F   0.43798549255331     -1.32463296475025      1.06600408462010
  H   -0.19795809555965      0.79431373716205     -1.36254940535366
  H   1.18036843102136     -1.24130329871967     -0.79564979214885
  N   1.79432140727661      0.42634623282935      0.25414942101666
  H   2.63501658447939      0.00266762602374      0.62112712145537
  H   1.42201356627358      1.10866278112399      0.90234495325927
  N   -0.93496652644453      1.01520355040122      0.57224289306926
  H   -1.27902029522497      0.43311015449977      1.32664625331908
  H   -1.69350223150050      1.60548409926146      0.25597641411339
  C   -1.45164650555058     -0.83599739047571     -0.96573436820827
  N   -2.26368716235433     -1.60877089981089     -1.31507744093205
