13
Coordinates from ORCA-job run
  C   0.84954784345587      0.16978421678166     -0.34695059512219
  C   -0.66685813651777      0.07549886053820     -0.55930031172742
  F   1.45821151929897     -0.65038428918528     -1.30986629822681
  H   -0.86645227674361      0.26128907313202     -1.61858352090890
  H   1.17713946083633      1.19155532652952     -0.55768825560316
  N   1.19423744574110     -0.17311607758789      0.97976995700557
  H   1.00763464995416     -1.15240957336158      1.16331943027154
  H   2.16591818593308      0.02298998039802      1.17731517429310
  N   -1.43863694377028      1.01222584478434      0.23995082389240
  H   -1.32345730493971      1.94876398151777     -0.12719642773348
  H   -1.08342584748290      0.99704541386223      1.18933256010017
  C   -1.09342477055082     -1.30053554218249     -0.25820392308357
  N   -1.37943382521442     -2.40170721522654      0.02910138684275
