13
Coordinates from ORCA-job run
  C   0.85800429556688      0.23653420978200      0.16442987877538
  C   -0.58291430272059      0.05838390187123     -0.31309672220189
  F   1.40085280038285      1.25340857408119     -0.61790559525302
  H   -0.51457540958094     -0.28033625573596     -1.35787746827591
  H   0.85374139823740      0.63169254517557      1.18752993062152
  N   1.62340490122948     -0.94663227083308     -0.05401816209531
  H   1.13315338738007     -1.77370563438706      0.25987986081570
  H   2.51306471109581     -0.89377340933528      0.42356566020128
  N   -1.29535353421579      1.31469479216747     -0.12084119450803
  H   -2.23811418898001      1.24011675266315     -0.48244954969947
  H   -0.81199219863780      2.03313119261484     -0.64647527415555
  C   -1.22581789491471     -1.00463547757277      0.46697007913249
  N   -1.71445396484265     -1.87087892049131      1.09028855664281
