13
Coordinates from ORCA-job run
  C   0.96442311663974      0.12641604454907     -0.29928368964458
  C   -0.52620092828391      0.25910091317518     -0.60179870833936
  F   1.51682027713146     -0.70478103538948     -1.28404645361645
  H   -0.62489278132193      0.55449292365019     -1.64970992342608
  H   1.42612911790881      1.10895837770051     -0.40735247277525
  N   1.16499166904870     -0.35904697365908      1.01396939363818
  H   0.86868797953661     -1.32522102446339      1.09281047480439
  H   2.13254153707933     -0.28420377035921      1.29627096664054
  N   -1.06846746933886      1.30719883170585      0.24351349710884
  H   -2.05905327201200      1.42857123325467      0.07523003835545
  H   -0.92980587309354      1.04874269274731      1.21323472857891
  C   -1.17181410934510     -1.06181165687479     -0.43696387255610
  N   -1.69335926394928     -2.09841655603686     -0.25487397876852
