13
Coordinates from ORCA-job run
  C   0.84391046994702      0.23735892019581      0.16964228294406
  C   -0.56002828635481      0.01274695011597     -0.41474532372244
  F   1.44505158659848      1.15062275052642     -0.70883343418321
  H   -0.41241651634383     -0.49344397782428     -1.37788606361959
  H   0.77620843135447      0.74641327017008      1.13556334751873
  N   1.61997855024182     -0.93493982949108      0.27553427204489
  H   1.30075865283551     -1.71233396115603     -0.28179991492848
  H   1.82488735663081     -1.21689605109603      1.21872558200211
  N   -1.34948808443314      1.20744104498573     -0.66264669295904
  H   -1.53636468388646      1.68817681928980      0.20993435519078
  H   -0.80780999764751      1.82906063167229     -1.25078443417891
  C   -1.29356690539813     -0.90022819305993      0.47020261247764
  N   -1.85012057354424     -1.61297837432873      1.21809341141345
