13
Coordinates from ORCA-job run
  C   0.81750392645302     -0.57503671492836      0.09660849407665
  C   -0.45174852799526      0.07901779506835     -0.46431784465377
  F   0.37818422865445     -1.34028480515475      1.18889213227333
  H   -0.16341311427739      0.62742052752097     -1.36663722727238
  H   1.23977755055190     -1.28230575453144     -0.62109692577453
  N   1.77495514566614      0.36903679604750      0.50784546287940
  H   1.37942576762108      1.27959208361176      0.68790224065900
  H   2.61506708736706      0.39064948201135     -0.04308102531806
  N   -0.93567940761500      1.03968410223578      0.51748727886178
  H   -1.73202506792086      1.55009954079858      0.15784514852881
  H   -1.22798538569173      0.54183198444214      1.35038373621951
  C   -1.44074547863242     -0.94516035754035     -0.85120664070238
  N   -2.25331672418101     -1.73454467958154     -1.16062482977738
