13
Coordinates from ORCA-job run
  C   0.97029883737401     -0.07514739961472     -0.39560340929093
  C   -0.54283481145617      0.12520186123355     -0.50701457030862
  F   1.34199998627014     -0.96114114654799     -1.39706957805417
  H   -0.74937627245377      0.44251379569081     -1.53860293461552
  H   1.47422370027096      0.86928347369171     -0.65295467592406
  N   1.29592556977092     -0.61054212594995      0.87493627070725
  H   2.26364046601607     -0.45910681620697      1.12017585390680
  H   0.68873594082315     -0.21583034449016      1.58157689568486
  N   -0.97341065344847      1.07923387167150      0.51665225984196
  H   -1.98265554820331      1.07705721335550      0.59792061410355
  H   -0.68851548137011      2.01389100878565      0.24609106667941
  C   -1.23861081835767     -1.15012678925423     -0.29990838889342
  N   -1.85842091523572     -2.13428660236472     -0.14719940383712
