13
Coordinates from ORCA-job run
  C   0.88957059244092      0.14443349242235     -0.24758210412997
  C   -0.59945503858253      0.14805087991075     -0.61698758925871
  F   1.55365609277173     -0.64439359655239     -1.20046844412000
  H   -0.67789106952272      0.41424533692542     -1.67506979136299
  H   1.28687207703521      1.15771410739926     -0.35289060956845
  N   1.07783524744012     -0.30244800865744      1.07929798504509
  H   2.03249085288686     -0.17666951084307      1.38650691306416
  H   0.82195476252740     -1.27849908590640      1.17579170027892
  N   -1.40442484228068      1.07141783579170      0.16507301789542
  H   -1.20618480129126      2.02216398552801     -0.12131409170048
  H   -1.15082619693857      0.97456704788833      1.14184671684330
  C   -1.12201779369788     -1.21851772148238     -0.45946107705531
  N   -1.50257988278860     -2.31306476242415     -0.27474262593100
