13
Coordinates from ORCA-job run
  C   0.78331969204587     -0.62464426308360      0.06247177209332
  C   -0.40087164533463      0.18463146916220     -0.48180479464649
  F   0.21210504627103     -1.55223611876305      0.94927162978205
  H   -0.00483182436035      0.86931749234630     -1.23840538595355
  H   1.24923436784836     -1.21189448156508     -0.73233016881182
  N   1.72511363334297      0.18005099888730      0.72669881573233
  H   2.62146384898319      0.24696852892209      0.27753180194831
  H   1.34866824950261      1.06698733491960      1.02568296921124
  N   -0.94502590282106      0.97904303350356      0.61072090497794
  H   -1.33209980765009      0.35698451953703      1.31083655441887
  H   -1.68517304011090      1.58468124788405      0.28008043491574
  C   -1.38253856623199     -0.70059070724090     -1.13669164446513
  N   -2.18936405148499     -1.37829905450954     -1.65506288920283
