13
Coordinates from ORCA-job run
  C   0.81693168502066     -0.43594548497560     -0.14211731597847
  C   -0.62294394940887      0.06257286534952     -0.37678172299398
  F   0.70052461843086     -1.44099372786478      0.81824028684636
  H   -0.57810120538192      0.86561090088055     -1.12038248611473
  H   1.21588984065562     -0.90152226145509     -1.04726782523869
  N   1.72478347027598      0.54966202932380      0.31897313339326
  H   1.29572888244904      1.26576966020409      0.88496641689964
  H   2.29650737508067      0.94492602743782     -0.40956474012856
  N   -1.28755127963191      0.57701261942198      0.80926349309371
  H   -1.13767178397912     -0.04929070117216      1.59030291836106
  H   -0.96337344924552      1.50406868560575      1.04683487272357
  C   -1.42553616177973     -1.02873327921206     -0.95159792344970
  N   -2.03518804248575     -1.91513733354381     -1.41986910741350
