13
Coordinates from ORCA-job run
  C   0.81858622329845     -0.52184209784971     -0.09966054456683
  C   -0.46394077044964      0.20978614439654     -0.49247488216501
  F   0.44534402572541     -1.42542732697912      0.92546623781578
  H   -0.20061789744366      0.92827353496939     -1.27331015220388
  H   1.19202421696889     -1.14442245354709     -0.91493829788925
  N   1.79025598770218      0.41033577704542      0.30380461552687
  H   1.41067229609739      1.01961830066793      1.01727593247134
  H   2.63326251951325     -0.04234673328570      0.62840125120720
  N   -0.94352369999221      0.94366214875829      0.67182902219317
  H   -1.70431674554011      1.55947854024098      0.41535102775040
  H   -1.28663676678938      0.28492968715359      1.36075519494388
  C   -1.44289685575946     -0.74279555632817     -1.05064766054971
  N   -2.24721253333112     -1.47624996524234     -1.49085174453397
