13
Coordinates from ORCA-job run
  C   0.76551965957418     -0.45658335262224     -0.11194322988625
  C   -0.59103018377410      0.12298637168150     -0.52812123602009
  F   0.50577294171463     -1.37802187163111      0.92224044779918
  H   -0.40754348955884      0.79950254922471     -1.36846968181266
  H   1.21243092958970     -1.02818366435869     -0.92849849165417
  N   1.64792594930039      0.57246003808986      0.29139686198591
  H   1.31214108218855      1.01535650111888      1.13689568492868
  H   2.57481570473128      0.20827177058235      0.46655293927210
  N   -1.28920267089956      0.86499482209132      0.50792489071142
  H   -1.31318720167685      0.33278465098738      1.36864706237547
  H   -0.85150392322574      1.76211443062710      0.66689860006101
  C   -1.45049010353657     -0.96895530774554     -1.01206354254294
  N   -2.11564869442708     -1.84872693804553     -1.41146030521766
