13
Coordinates from ORCA-job run
  C   0.84711972989701      0.21826657364959      0.16906217719369
  C   -0.56880990849655      0.04380734919636     -0.40158849954523
  F   1.43844819158699      1.18923584371411     -0.65461995410348
  H   -0.44394684568881     -0.39931696012054     -1.39845326784029
  H   0.80340242594901      0.66113331325514      1.16842497486898
  N   1.61034538871027     -0.96556046893749      0.17314080458672
  H   1.88431786879240     -1.28965586486922      1.08436115833956
  H   1.25150764366811     -1.71513716544021     -0.39725785477667
  N   -1.35118629264174      1.25857870547137     -0.55584405772131
  H   -0.81461825302218      1.91220266250433     -1.11317572979094
  H   -1.51533109654907      1.68351967429226      0.34967540689197
  C   -1.29581753251955     -0.92001353168430      0.43377931245560
  N   -1.84643131968589     -1.67606013103139      1.14249552944142
