13
Coordinates from ORCA-job run
  C   0.84741302606671      0.15319818141180     -0.35915464490553
  C   -0.67063503168029      0.05700933813728     -0.55543080783386
  F   1.44543248149183     -0.70560446707456     -1.29491460091651
  H   -0.87882140692980      0.20195571827481     -1.61946158455870
  H   1.17722824603712      1.16472795803935     -0.61163751135409
  N   1.20164044720846     -0.14056693522623      0.97687016629785
  H   2.17621868200579      0.05690246824914      1.15834815359455
  H   1.01182760242538     -1.11137767613650      1.19851843038554
  N   -1.43212120713417      1.02729762125417      0.21344354852310
  H   -1.06797769386467      1.04776468407868      1.15939125225328
  H   -1.31589071429642      1.94830333145216     -0.19092975756784
  C   -1.10099731716226     -1.30478120052348     -0.19962620529453
  N   -1.39231711416769     -2.39482902193659      0.12258356137674
