13
Coordinates from ORCA-job run
  C   1.02331417538583      0.04262578053226     -0.40130319350822
  C   -0.48680433837409      0.23778171850377     -0.59723892911949
  F   1.43709429551903     -0.79290655590247     -1.43021278687747
  H   -0.64359215017602      0.61675668012193     -1.61067248718223
  H   1.50166119865979      1.01519027161325     -0.53412957913421
  N   1.41842547311839     -0.50514233169268      0.84262943247991
  H   0.82742860010884     -1.25116233361276      1.18087573010680
  H   1.61802950803650      0.18260527008747      1.54964541124017
  N   -0.95019139845347      1.23840424776992      0.35352878837540
  H   -0.96756510421833      0.84202357395142      1.28541487675177
  H   -1.89339914831917      1.52861005645583      0.12797983874170
  C   -1.17055499960243     -1.06494096366813     -0.47596964972759
  N   -1.71384611168487     -2.08984541415982     -0.29054745214653
