13
Coordinates from ORCA-job run
  C   0.99071059694314      0.21720656315544     -0.05552630897821
  C   -0.50392631711505      0.05442121915127     -0.38559943617579
  F   1.57787249729771      0.71710932253215     -1.19950063080434
  H   -0.54996005421733     -0.57954158506947     -1.27838452870023
  H   1.11432177920031      0.96360782807652      0.73647629754691
  N   1.65555282094991     -0.98003552422741      0.33017202291645
  H   1.33689029259008     -1.79204419043022     -0.18093534629455
  H   1.60056907395193     -1.15212215059354      1.32234317327241
  N   -1.12155843436752      1.32967905275138     -0.70142370178513
  H   -2.04344702316311      1.19049745877585     -1.09529531386601
  H   -1.22491632219785      1.88734708727049      0.13809667430320
  C   -1.15197330595067     -0.66825802683044      0.72969057034208
  N   -1.68113560392155     -1.18986705456205      1.63988652822321
