13
Coordinates from ORCA-job run
  C   0.96950742369393      0.12031234002260     -0.28532571463344
  C   -0.51544972904263      0.22869334463018     -0.62256240870924
  F   1.54714626690149     -0.74870311974252     -1.22169386583586
  H   -0.59478954877275      0.47724646669105     -1.68421610644388
  H   1.42669238533187      1.10063591436240     -0.42741336217196
  N   1.14709158981794     -0.30612104576421      1.05156649668755
  H   2.10920250642956     -0.21502408213158      1.34748696017311
  H   0.85321775911545     -1.26929788195519      1.16744157757927
  N   -1.08163669248522      1.30866925294060      0.16500883013932
  H   -0.96114771586699      1.09415450920735      1.14777746812779
  H   -2.06942736209839      1.41482687482434     -0.02822693064490
  C   -1.15628722111072     -1.08823120982824     -0.41343548328815
  N   -1.67611966191350     -2.11916136325679     -0.19740746097963
