13
Coordinates from ORCA-job run
  C   0.88510546801233      0.12936876707511     -0.26908076048333
  C   -0.61092826075476      0.13820204513982     -0.60896767369250
  F   1.52330904890483     -0.69073217827485     -1.21249889824199
  H   -0.70893092535824      0.37654312226992     -1.67200712531350
  H   1.28939723655154      1.13573007597349     -0.40870779198842
  N   1.09497449424128     -0.28393392436610      1.06588929772033
  H   2.05729706010287     -0.16059960352278      1.34953865945794
  H   0.83248949675827     -1.25494568959587      1.19178428131380
  N   -1.39122726152690      1.08952607947576      0.16431979476459
  H   -1.11824701947523      1.01603260398940      1.13789196383663
  H   -1.19118915766808      2.03049560666549     -0.15147220813436
  C   -1.14202333785981     -1.21920912862552     -0.40403315839143
  N   -1.52102684192810     -2.30747777620386     -0.18265638084777
