13
Coordinates from ORCA-job run
  C   1.03247357809824      0.03814513195078     -0.37351363997695
  C   -0.47343635652644      0.20546327653972     -0.61968000478389
  F   1.48507781788407     -0.83317964985294     -1.35624425847479
  H   -0.60532013487574      0.53596709884069     -1.65339933257885
  H   1.50307732012569      1.01026487820835     -0.53399699358951
  N   1.39658968828702     -0.45256717938506      0.90240678577840
  H   0.79925990032280     -1.18307313980213      1.26202006067686
  H   1.59007435692446      0.26326691003411      1.58233720189520
  N   -0.97473694904365      1.24222276031601      0.27082447945140
  H   -1.91809102138695      1.50318926375397      0.01255782675829
  H   -1.00385463015790      0.89194195980358      1.22069843929614
  C   -1.14582426173435     -1.09905889247212     -0.45946398742585
  N   -1.68428930791727     -2.12258241793496     -0.25354657702646
