13
Coordinates from ORCA-job run
  C   1.04026048521140     -0.31550787888678     -0.26540178694689
  C   -0.31025557478689     -0.19638161618188     -0.31775168547933
  H   1.61539022815589     -0.86847184255253     -0.99648844427235
  N   1.87086921477114      0.24639012764482      0.75757482660354
  O   1.36210153129441      0.87417611614058      1.69130109691421
  O   3.08375115013107      0.05917756994864      0.62756814029477
  C   -1.16177681739666      0.56398069709705      0.65712910004779
  H   -1.08304687303922      0.12594727508787      1.65205391582826
  H   -0.82783985427132      1.59632205201971      0.74769413220015
  H   -2.20772185120273      0.54090659562989      0.34497378079962
  N   -1.01050412194393     -0.88080878717650     -1.28504623762242
  H   -0.47771969084407     -1.26327447197324     -2.05091981021589
  H   -1.89250782607908     -0.48245583679763     -1.56168702815145
