13
Coordinates from ORCA-job run
  C   0.92012796018451      0.32953274667433      0.39005605329428
  C   -0.33277064158339     -0.03399008492372     -0.00185750429679
  H   1.10251283022167      1.05006381505620      1.17189115666228
  N   2.11949496989749     -0.15351583360562     -0.21263944750526
  O   3.18307175297827      0.29634267593809      0.21770354966200
  O   2.04638869614664     -0.98823396693025     -1.13027126668835
  C   -1.51221955363869      0.57528916381938      0.70037931839528
  H   -1.20136236352301      1.29995339865032      1.45127671988600
  H   -2.10039339315563     -0.20550458233408      1.18920284130980
  H   -2.16009937981177      1.08416469756048     -0.01965995138191
  N   -0.63125146439344     -0.97458176928817     -0.93137356698650
  H   0.12712748109290     -1.30204597508493     -1.51020357674913
  H   -1.56062689441554     -0.97847428553204     -1.31450432560172
