13
Coordinates from ORCA-job run
  C   0.98978782502876     -0.51870331303777     -0.05933562788003
  C   -0.30370398441421     -0.20257800519225     -0.32015968500096
  H   1.50936903569874     -1.33583443034187     -0.54238601894744
  N   1.83358311232128      0.18571929512896      0.85940397182141
  O   2.97617383325143     -0.26205647666997      0.99045426352932
  O   1.40180044115472      1.17260185313850      1.46313117121435
  C   -1.08193208504128      0.90788763309097      0.32412064772372
  H   -1.06436533265801      0.82111574380701      1.40927515936561
  H   -2.11487005167997      0.90118514070732     -0.02940243243653
  H   -0.63538223386809      1.87276239681594      0.08432318831924
  N   -0.97685611316728     -0.88042104476194     -1.31081461392130
  H   -1.97760947203268     -0.93043100457904     -1.21580653229628
  H   -0.55599497459339     -1.73124778810585     -1.65080349149109
