13
Coordinates from ORCA-job run
  C   0.88890615856996      0.26028666218821      0.50004239346840
  C   -0.33031264701383      0.00566792737677     -0.05134899976853
  H   1.00852924312172      0.73474317831112      1.46142141135955
  N   2.13073202845848     -0.10507063114386     -0.09952058288851
  O   2.13008307878435     -0.66351584079730     -1.20956598223561
  O   3.15591764246264      0.15634242440909      0.53246632174476
  C   -1.56214601922680      0.41713950052348      0.70283125295146
  H   -2.19328525698275     -0.45447684591142      0.90062103432090
  H   -2.14440385466505      1.12694415429432      0.10982171059283
  H   -1.31239625210460      0.88096656740220      1.65578463538329
  N   -0.55035918357316     -0.52726831520390     -1.27805333578782
  H   -1.46499806631053     -0.89496195865060     -1.47485802658878
  H   0.24273312847955     -0.93579682279811     -1.74864183255195
