13
Coordinates from ORCA-job run
  C   1.04911719963412     -0.20117294746955     -0.30629837005341
  C   -0.30619452599098     -0.15779826610819     -0.30506040320932
  H   1.60509437788018     -0.70638737384277     -1.08567719862983
  N   1.94039710816828      0.40275917964498      0.64831168743885
  O   3.14077640540243      0.21320920345660      0.43159691818072
  O   1.50848983810995      1.05155177968914      1.60300626233740
  C   -1.20301224840669      0.49578688703742      0.70248790247533
  H   -1.86372042618824     -0.25903276368893      1.14118494007300
  H   -1.83069878871553      1.23149319786597      0.19310690507432
  H   -0.64327898590828      0.97965215916806      1.49280168436950
  N   -0.99058614866643     -0.70499259207014     -1.37108512213757
  H   -1.92964225444067     -1.01237293160601     -1.17558146373239
  H   -0.47674155087815     -1.33169553207659     -1.97079374218660
