13
Coordinates from ORCA-job run
  C   0.88467378250307      0.03809724219977      0.56844838108617
  C   -0.32861994445802      0.03731049749141     -0.05085677620013
  H   0.99612550939507      0.16263632124956      1.63415602798923
  N   2.12716670635168     -0.16440531294259     -0.10285206017173
  O   3.14466138131291     -0.17155156708021      0.59235850514257
  O   2.13409174755988     -0.32548992592795     -1.33494329203522
  C   -1.56261336103460      0.23483589507147      0.78179290987742
  H   -2.09321879745179      1.13362732953842      0.45739529116407
  H   -2.23906370117063     -0.61695025027322      0.66357683936052
  H   -1.32102098924707      0.33525859744195      1.83876542209412
  N   -0.53663459178710     -0.04950008438267     -1.38799296979563
  H   -1.45889541206600     -0.29423372624128     -1.70440985090313
  H   0.25234767009259     -0.31963501614466     -1.95543842760824
