13
Coordinates from ORCA-job run
  C   0.90422989944520      0.38861440139030      0.37277066044205
  C   -0.33157285379262     -0.00564559664222     -0.04320648241017
  H   1.05347492794642      1.14431561671865      1.12794959659214
  N   2.12638583307026     -0.17203973308928     -0.10383355449643
  O   2.09120880107290     -1.05647553503311     -0.97591613553205
  O   3.17013066708619      0.25870131288642      0.38979602680540
  C   -1.53890863628238      0.65052506658527      0.56277327390259
  H   -1.26024539617266      1.38229946511960      1.31938005420127
  H   -2.18175970258322     -0.10024846720752      1.03206584102378
  H   -2.12054424135653      1.15381852285963     -0.21368947000270
  N   -0.58854532874246     -0.90036244645800     -1.02829131821657
  H   0.18761688523917     -1.45165031428722     -1.36117178558358
  H   -1.51247085493026     -1.29285229284253     -1.07962670672574
