13
Coordinates from ORCA-job run
  C   1.02402306911416     -0.00758388272101     -0.45128160471423
  C   -0.32599638592790     -0.09501746260471     -0.34733940655249
  H   1.55409403347473     -0.11110830038048     -1.38900198468022
  N   1.91590873417536      0.20619138449714      0.64910364834866
  O   1.47011895195396      0.29873475189009      1.79695351527289
  O   3.11321549729264      0.28904023937613      0.36148137525360
  C   -1.11884698344929      0.05068358293281      0.91920848107658
  H   -2.18807557955613     -0.00347872445987      0.70516770385993
  H   -0.86115432314271     -0.74221232774289      1.62125352854100
  H   -0.89107278623491      0.99080673261603      1.41884938348991
  N   -1.06844534520840     -0.42061742508114     -1.45929923629115
  H   -2.01947225757024     -0.09142754684702     -1.47245308022045
  H   -0.60429662492125     -0.36501102147507     -2.35264232338402
