13
Coordinates from ORCA-job run
  C   1.02819581037428     -0.06584250708515     -0.43712567388087
  C   -0.32420160944713     -0.12008998909739     -0.34109181347417
  H   1.56511868556924     -0.26178005494813     -1.35600338480183
  N   1.91313022288195      0.23196524040511      0.64947006839755
  O   1.45777172188220      0.43842250745549      1.77857140750998
  O   3.11466738662408      0.26553940603511      0.36953033254156
  C   -1.12669436599616      0.15210685712514      0.89818601552335
  H   -0.88762457079443     -0.57634242334502      1.67284132838826
  H   -2.19456315886722      0.09409667168390      0.67852897758905
  H   -0.88943598152015      1.13087475414202      1.31191614181597
  N   -1.06132133970004     -0.53251824474606     -1.42757000887860
  H   -0.58767838269362     -0.56497644185680     -2.31706047332288
  H   -2.00636441831300     -0.19045577576820     -1.48119291740737
