13
Coordinates from ORCA-job run
  C   0.90068260699555      0.37919260347266      0.39010693625349
  C   -0.32916941772569      0.00367729061390     -0.05880695503015
  H   1.04442904530496      1.17881304087369      1.09973820649211
  N   2.12126337868295     -0.25067681006856      0.00417760068306
  O   3.15779624623961      0.17663341388145      0.51567395977290
  O   2.09152018947053     -1.18734133831951     -0.81160855169700
  C   -1.53690492416722      0.73671655405607      0.45062617958145
  H   -2.07120324918643      1.20121920296141     -0.38195522960286
  H   -1.26379732802200      1.51138627950540      1.16542151442213
  H   -2.22139346124988      0.04042019341081      0.94440179396208
  N   -0.57635785090322     -0.94080387818870     -0.99965281780876
  H   0.19219646728889     -1.54108502143304     -1.25722509820519
  H   -1.51006170272803     -1.30815153076558     -1.06189753882325
