13
Coordinates from ORCA-job run
  C   1.04288909610058     -0.08979908990542     -0.39635929760496
  C   -0.31251630818006     -0.03187409665701     -0.37036140401217
  H   1.61057863650317     -0.26253552710436     -1.30128732034435
  N   1.88995341946476      0.08551104099121      0.74533711097411
  O   3.10111178754848     -0.03066105243186      0.53818839866170
  O   1.39560766410994      0.33368857857057      1.84940288421959
  C   -1.15705690353869      0.19155563263809      0.85059070497607
  H   -0.92592192955456     -0.53718897562975      1.62578068306168
  H   -0.95359943515417      1.17298303747241      1.27871517037839
  H   -2.21669350731780      0.13280957840594      0.59416450810243
  N   -1.01294784454266     -0.09971732082822     -1.55282147314342
  H   -0.50827025375529     -0.41059219490643     -2.36839386233621
  H   -1.95313442168368     -0.45417961061518     -1.49495610293286
