13
Coordinates from ORCA-job run
  C   1.05638872647020      0.02093000785733     -0.36900397301350
  C   -0.29593568017296     -0.09053257484631     -0.37406093114492
  H   1.66597299000829     -0.12351786564323     -1.25131057472369
  N   1.84351841440241      0.36183955364721      0.77837069523136
  O   3.06466652611003      0.39231445033822      0.60164233858003
  O   1.29269250576978      0.59958600836935      1.85765204174208
  C   -1.19476918162360      0.08680664735198      0.81541433219039
  H   -2.23129045856156     -0.11894733549220      0.54099779367476
  H   -1.12750225348345      1.10677125670301      1.19344632789320
  H   -0.89513679770586     -0.56635258117591      1.63333288381227
  N   -0.94999358014792     -0.30696561408200     -1.56484040236967
  H   -0.38860957606525     -0.59056926335635     -2.35273398014725
  H   -1.84100163500012     -0.77136268967112     -1.50890655172503
