13
Coordinates from ORCA-job run
  C   0.90679644231073      0.14990320985553      0.50434626901746
  C   -0.33606877512510      0.00289672329901     -0.03761849150299
  H   1.06403686099564      0.34270831806321      1.55446619224149
  N   2.11701097376297     -0.05199103405515     -0.21771404846179
  O   2.06722402589743     -0.24562285887149     -1.44522114483381
  O   3.16509378850217     -0.05732644643380      0.43086669108515
  C   -1.52988160389011      0.20804004172476      0.85760201513124
  H   -2.43404584257313     -0.21513294796368      0.41579992597327
  H   -1.70268273591157      1.27480158447001      1.01494573213743
  H   -1.37382916829056     -0.25656060738270      1.83144461489904
  N   -0.60251159259441     -0.21963674246413     -1.34317675653955
  H   0.17719923386505     -0.39489290467308     -1.95834653209365
  H   -1.51734160694913     -0.53818633556849     -1.60639446705331
