13
Coordinates from ORCA-job run
  C   0.88641451849990      0.54668760139780      0.14922287079463
  C   -0.32700597024648     -0.06273131872638      0.03671755631856
  H   1.00527102020576      1.54421642497003      0.54218423313815
  N   2.11746188890336     -0.03379820891946     -0.27780271001581
  O   2.11704090521314     -1.18329602944178     -0.74987914123385
  O   3.13321288666861      0.65339872920813     -0.15492089446945
  C   -1.54930212213046      0.67827368653232      0.49732462006472
  H   -1.30001661026172      1.67187915913898      0.86619976932183
  H   -2.25954479792753      0.78662284393080     -0.32781740849037
  H   -2.04503782813433      0.12227166606688      1.29724239356058
  N   -0.54025418233301     -1.33092497218396     -0.39029863238214
  H   -1.47376723482588     -1.58772108091163     -0.66015292708056
  H   0.23552752636865     -1.80487850106175     -0.82701972952628
