13
Coordinates from ORCA-job run
  C   0.91587757616126      0.50536066692717      0.11389969827472
  C   -0.33395574740315     -0.02429559308989      0.00019046088706
  H   1.10532576207929      1.46279781121392      0.57338310527853
  N   2.10783832679775     -0.15603870539071     -0.30673051400952
  O   3.17423868413299      0.42574839296050     -0.09926851470517
  O   2.02604000847876     -1.27021653123416     -0.85088396953327
  C   -1.50150623573725      0.76622251428119      0.51713416633662
  H   -2.03807440868819      0.19353231310320      1.27955797379626
  H   -1.18308957769220      1.70878910732278      0.95960880054343
  H   -2.19882306596560      0.97915522372718     -0.29701552398227
  N   -0.64760531053932     -1.18990639947501     -0.61728761722062
  H   -1.54471512781741     -1.59906501949749     -0.42157196906367
  H   0.11844911619308     -1.80308378084868     -0.85101609660210
