13
Coordinates from ORCA-job run
  C   1.04390195143518     -0.37031118474898     -0.15804713305744
  C   -0.30017810400576     -0.24375098058077     -0.29436998684742
  H   1.62832543207984     -1.10149276568683     -0.70103264264525
  N   1.85964093144104      0.44606372895419      0.69071092011898
  O   3.06227604121996      0.16921583973535      0.70717535083799
  O   1.34869242907899      1.35736068623789      1.34899444954100
  C   -1.16604237652927      0.74058182580548      0.43711816928630
  H   -1.03580851038282      0.65261450630753      1.51448942796091
  H   -2.21581289854716      0.58722040074734      0.17929211413502
  H   -0.88603656372145      1.76071209168952      0.17477800803009
  N   -0.95791308968358     -1.00831091568883     -1.23054935399725
  H   -0.45273454838425     -1.78811855661963     -1.62205250454220
  H   -1.92831069400072     -1.20178467615225     -1.04650681882074
