13
Coordinates from ORCA-job run
  C   1.02510176742223     -0.20408609297298     -0.39994497510280
  C   -0.32870038662196     -0.15821108168701     -0.32083350963038
  H   1.55576796304223     -0.59415961827831     -1.25856983947375
  N   1.91858895011518      0.22345988570681      0.63483116382999
  O   1.46891418115405      0.65812705727931      1.69960694309251
  O   3.12207819436876      0.12827039050386      0.37818467162064
  C   -1.12131709994381      0.37878560086233      0.83565826180408
  H   -2.18912565238815      0.34612921760138      0.61046527764708
  H   -0.82690739706684      1.39996798914006      1.07219742098408
  H   -0.93330781956962     -0.21194751876736      1.73205146587275
  N   -1.08228579160219     -0.70983135745847     -1.33124537995539
  H   -2.00361770296233     -0.32640317734618     -1.46170981412545
  H   -0.60518920594756     -0.93010129458345     -2.19169168656337
