13
Coordinates from ORCA-job run
  C   0.86088831894055      0.28967959036461      0.53148230731589
  C   -0.32967203689239     -0.03206629206439     -0.04699332628366
  H   0.94612237081605      0.59423884133600      1.56281974047918
  N   2.12060517794177      0.21778059246820     -0.13427593202708
  O   3.12066343331811      0.50201451389269      0.52734252808520
  O   2.15935638564150     -0.12429437325949     -1.32823007229070
  C   -1.58002129492283      0.05842519602950      0.77984082885606
  H   -2.27041289336721      0.78010530070694      0.33595567362803
  H   -2.08300959518867     -0.91268698757449      0.81307771747156
  H   -1.36341667394688      0.36560511438671      1.80175626917950
  N   -0.51514426987579     -0.36149419089741     -1.34877385238849
  H   -1.37569629767446     -0.81522399163682     -1.60173643862076
  H   0.31073737521026     -0.56108331375205     -1.89226544340474
