13
Coordinates from ORCA-job run
  C   1.04303028001092     -0.00198935668951     -0.40415984310890
  C   -0.30836232284374     -0.11259229308297     -0.35761524273924
  H   1.62388172269580     -0.20622419074955     -1.29404274238891
  N   1.86775439852856      0.40998935126501      0.69253220808184
  O   1.35129413968284      0.73447676944895      1.76624507268005
  O   3.08342137573448      0.40968389486011      0.47994796873654
  C   -1.16792641723930      0.13968445825513      0.84691809785968
  H   -0.83330237996188     -0.45000663516873      1.69865441263724
  H   -1.09947696576599      1.18487226099499      1.14860431918363
  H   -2.21094243866288     -0.09347724837677      0.62381742097679
  N   -1.00110058608757     -0.40356352463448     -1.51088503790627
  H   -1.88390615773414     -0.87250737492228     -1.39321125000755
  H   -0.46336464835710     -0.73734611119989     -2.29580538400491
