13
Coordinates from ORCA-job run
  C   0.90161989493603      0.39530328052365      0.37173745869797
  C   -0.33194320497029     -0.04049298440114     -0.00818292629203
  H   1.04606114415400      1.20500994707334      1.06968178433161
  N   2.12770617907400     -0.13791331500024     -0.12561479203847
  O   2.09777471390995     -1.07532397392513     -0.94081796647300
  O   3.16970593075951      0.37526105185692      0.28619777525788
  C   -1.54309022371082      0.62781556715728      0.57621325786865
  H   -2.14261911015038     -0.10028673164549      1.12846737644842
  H   -2.16772474770494      1.04336288929671     -0.22023264075757
  H   -1.26769985691955      1.43701383966062      1.25070962723230
  N   -0.58434368889320     -1.09188845061650     -0.82525911210414
  H   -1.50271191221336     -1.16793310453237     -1.22662938567232
  H   0.19726488172905     -1.47292801544764     -1.33627045649930
