17
Coordinates from ORCA-job run
  C   -0.70161982128078     -0.10566171491481      0.14902054567308
  C   0.79872556141500     -0.43480725842151      0.06718977069591
  Br  -1.39312166930905     -1.71061163872516      1.31943769326003
  H   0.93269648120103     -1.40617500155181     -0.41829132967004
  N   -0.85421647070630      1.12782371507274      0.76044338269480
  H   -0.27471277679015      1.22126174002477      1.58622527682365
  H   -1.81259264737370      1.40642767332714      0.91325424432528
  C   -1.49044932470203     -0.23417707028137     -1.13526566296634
  H   -1.20865578736896      0.56880739557731     -1.81726604223040
  H   -1.30807866157432     -1.19481714127472     -1.61551608308312
  H   -2.55692102115125     -0.15718104831811     -0.91498773879953
  N   1.41410426808394     -0.27068793634714      1.35914362058760
  H   2.39689499757865     -0.05197528026730      1.26508866578879
  H   1.29760714256827     -1.11980556289019      1.89591316961434
  N   1.43542941067720      0.55134616815475     -0.89345338198940
  O   1.21598061748989      0.34246955409906     -2.08372383081212
  O   2.10992970124256      1.46776340673637     -0.43721229991253
