17
Coordinates from ORCA-job run
  C   -0.67996101852653     -0.23172216484874      0.26959781713480
  C   0.85407589774849     -0.38771960258645      0.21643790350472
  Br  -1.27197622291627     -1.78137351208046      1.46902153394984
  H   1.12164043364700     -1.43731977671222      0.11802451372490
  N   -1.00503743659113      1.02000123087207      0.82404719433290
  H   -1.99964877743728      1.20129062739236      0.79182250906496
  H   -0.67119674563218      1.09952093927005      1.77673568245933
  C   -1.38179843502119     -0.44795172161797     -1.05665712539891
  H   -1.14662081494343      0.38004675657389     -1.72964930234806
  H   -1.07714057775961     -1.38490211727649     -1.51976033928317
  H   -2.46113505193898     -0.47561874317740     -0.89798160825946
  N   1.47516885370840      0.21673283997039      1.34158221831379
  H   2.41048590796556     -0.14053504364102      1.48048864149451
  H   1.52128713990129      1.21942417178105      1.19877714497340
  N   1.32890730214267      0.23407002008670     -1.10466203546895
  O   1.39614865657381     -0.51838968234296     -2.07406041298862
  O   1.58780088907939      1.43444577833717     -1.10476433520599
