17
Coordinates from ORCA-job run
  C   -0.67489385912271     -0.20140050665890      0.01678747085188
  C   0.86334416075264      0.06065753079089      0.04171611363466
  Br  -1.04888345830659     -1.33247353416698     -1.57269362826745
  H   1.05658860098613      0.60651871281375      0.97023999480544
  N   -1.21854268158253     -0.85878616382999      1.16390084318783
  H   -0.62740976771495     -1.61332382729739      1.48917669365069
  H   -1.35835525797793     -0.19710911249509      1.91814467210846
  C   -1.39920582830268      1.11967557165332     -0.18400349140180
  H   -2.47396062224634      0.93775960675888     -0.16076151608567
  H   -1.14360977957636      1.58294885454989     -1.13491427271884
  H   -1.13877012362801      1.80790892747154      0.62928446638903
  N   1.46246282365010      0.74813120383526     -1.05087669862914
  H   1.26408283958295      1.73708483737431     -1.01513694910599
  H   1.17979442862565      0.35766307818702     -1.94035376428234
  N   1.58669872268907     -1.25487112368603      0.22518627766670
  O   2.12847511922213     -1.75217629612344     -0.75202623273444
  O   1.54018468294941     -1.74920775917702      1.35433002093097
