17
Coordinates from ORCA-job run
  C   -0.70817943671458     -0.09970377467287      0.12119327564561
  C   0.78723615821602     -0.45546141078665      0.06405158208976
  Br  -1.46790916925028     -1.75776833285881      1.16743027036586
  H   0.91743847846112     -1.39789060165883     -0.47632097162533
  N   -0.85529778323899      1.09685159433776      0.80356026753635
  H   -1.81224135554075      1.38622027319273      0.94480906708902
  H   -0.29977089007926      1.12634803123109      1.65033454512927
  C   -1.45819048612050     -0.13100019453807     -1.19220412495569
  H   -1.27921717284086     -1.06340726465845     -1.72635497619741
  H   -1.13932594850146      0.70684190810878     -1.81320196131269
  H   -2.52939112949475     -0.04519645576585     -0.99994410685992
  N   1.36495922251711     -0.38445087823422      1.38175698752246
  H   2.35404519192827     -0.18021190903733      1.33075329534847
  H   1.21678171007521     -1.26307036721802      1.86009551696793
  N   1.47283212837711      0.57388949631585     -0.81416416316278
  O   1.28772421140756      0.44253974226165     -2.02114530951375
  O   2.14950627079901      1.44647014398126     -0.28164919406717
