17
Coordinates from ORCA-job run
  C   -0.71863629612577     -0.19692458719816      0.18111806417191
  C   0.75980846194534     -0.59058535822574     -0.01775015459735
  Br  -1.62546086964137     -1.97664563830217      0.63244018002392
  H   0.82869920960054     -1.52484131443012     -0.57033502860472
  N   -0.81954195793596      0.72966192784745      1.23521450229599
  H   -1.76160427077659      1.08310193073924      1.33919606650539
  H   -0.50418605330680      0.32825919593361      2.10980169922080
  C   -1.41008636051815      0.31015875784067     -1.06902870542924
  H   -1.27394023292087     -0.37432501076271     -1.90451364738938
  H   -1.00444389407546      1.28925775160175     -1.33476423933462
  H   -2.47947086975752      0.41353084047892     -0.87750579482862
  N   1.45016004553389     -0.65343686613854      1.22175144012797
  H   1.68838870395449      0.28598519608677      1.51944960041547
  H   2.29684603437130     -1.19995812435944      1.14339353555484
  N   1.38080561428035      0.44186361261187     -0.96956426447053
  O   1.33330840099344      0.18189137072985     -2.16984045793800
  O   1.86035433437915      1.45600631554674     -0.47006279572385
