17
Coordinates from ORCA-job run
  C   -0.70133865537269     -0.25614440062332     -0.02151131891273
  C   0.76988303255442      0.21605711338814      0.09765195520325
  Br  -0.77420346013652     -1.45575550070469     -1.61355190992055
  H   0.85037849777724      0.75790718496045      1.04544696280516
  N   -1.22275818311555     -0.98042115174296      1.09156460615276
  H   -1.55958243597946     -0.34406695482577      1.80314702428860
  H   -0.54623800293121     -1.61754154261319      1.49017635971960
  C   -1.59545596086636      0.93943402733040     -0.30243201883250
  H   -1.32172167929438      1.43933650718944     -1.22674201064437
  H   -1.49550304303327      1.66028503862220      0.51729443553831
  H   -2.62934729335098      0.59583810859954     -0.35342487675262
  N   1.18057967376604      1.03012755918088     -0.98151874120158
  H   2.11241128047759      1.39375633432275     -0.83111603269499
  H   1.17722883235600      0.50006499760419     -1.84476986029955
  N   1.69331166505872     -0.99984175189956      0.31704508466531
  O   2.49111503735851     -1.27615244593973     -0.57033184829063
  O   1.57124069473190     -1.60388312284878      1.38307218917657
