17
Coordinates from ORCA-job run
  C   -0.64103466617491     -0.13031582044297      0.00938386052848
  C   0.88267819155314      0.12744011939804      0.00340448677888
  Br  -1.20381698243133     -0.97091814446065     -1.75925507356628
  H   1.06901452464894      0.82745343134611      0.81988617681625
  N   -0.98773834215726     -0.92832000209380      1.12137793284102
  H   -1.98937536881279     -0.96077232130762      1.26144489162947
  H   -0.63371114465087     -1.87409823668198      1.04225560691018
  C   -1.36834461928893      1.20276994416329      0.05999668321174
  H   -1.13835708917129      1.69633056023148      1.00856513372815
  H   -1.06933559111474      1.84203156988240     -0.77027101618821
  H   -2.44678797842706      1.04947086730350     -0.00724738303996
  N   1.50565694771402      0.59297465937912     -1.18718722210606
  H   1.53613825272524      1.59924556189360     -1.23627363064435
  H   1.08479554361980      0.19844119042279     -2.01734708189255
  N   1.61397037648219     -1.12011498207075      0.44880914797484
  O   2.36156276711545     -1.01386390146581      1.41546779548979
  O   1.42568517837044     -2.13975449549679     -0.21101030847137
