17
Coordinates from ORCA-job run
  C   -0.60160826600357     -0.31498808411340      0.28438220512923
  C   0.92025625383419     -0.11286545565853      0.18156840317855
  Br  -0.90223178441975     -2.30557635513671      0.34200484058826
  H   1.39694765773059     -0.60935724045203      1.03568111150695
  N   -0.99713895277653      0.31485725376738      1.50234800835834
  H   -0.60361354359014     -0.15222074263304      2.31145497897229
  H   -2.00542542911893      0.32578701086576      1.59504961380056
  C   -1.41291173804221      0.23447702459175     -0.87269417288922
  H   -1.16339455071268     -0.26406101924176     -1.80420419035781
  H   -1.20742375504214      1.30040299830735     -0.98087420350927
  H   -2.47540823103055      0.08458979044533     -0.66601573737890
  N   1.19986079865453      1.28570658274715      0.02636088685104
  H   0.62901196903508      1.79764379923422      0.68835120770872
  H   2.17675439478676      1.47861498919289      0.21133426198928
  N   1.52066277598520     -0.84472550403637     -0.99953212134969
  O   1.15733993566688     -0.52379764744377     -2.12467212962484
  O   2.36832246504324     -1.69448740043615     -0.72954296297351
