17
Coordinates from ORCA-job run
  C   -0.69156471046703     -0.37381635423468      0.17919217431483
  C   0.85574984751039     -0.31311021129871      0.31404954443856
  Br  -1.16803682676781     -2.27376218983838     -0.04497127176110
  H   1.14815959160540     -0.95377248786324      1.14791538222954
  N   -1.33153906801167      0.06951634782861      1.39284345705104
  H   -0.94886479701078     -0.37902614384583      2.21679129269574
  H   -1.27753341323461      1.07682377095230      1.48224800119351
  C   -1.26654038148551      0.40744059105528     -0.98726515663738
  H   -0.99907260050465      1.46558796575005     -0.89987823764951
  H   -0.90302665568789      0.03895620371549     -1.94296928783043
  H   -2.35274075810010      0.32521189468204     -0.95051089038419
  N   1.42201056895659      0.99456255421563      0.49457683774490
  H   1.15353074337435      1.62753251613178     -0.24653798901781
  H   1.19056506474583      1.37815588236521      1.39895607754506
  N   1.54828402392487     -0.89590580827424     -0.88580207718991
  O   1.51037923366297     -0.21677525111110     -1.91117019991136
  O   2.11024013748962     -1.97761928023020     -0.75746765683150
