17
Coordinates from ORCA-job run
  C   -0.70349058746102     -0.35157498571622      0.17830189216967
  C   0.84548953116694     -0.34572240457107      0.30804542190734
  Br  -1.24611938411024     -2.23153396445004     -0.06330232238377
  H   1.11862614233543     -1.00321178701366      1.13531291458942
  N   -1.32361445559105      0.10176201306224      1.39842872055665
  H   -0.95109788499953     -0.36452764736107      2.21717843145399
  H   -1.23866867119462      1.10622074818617      1.49520813719589
  C   -1.25483070834314      0.46077176875843     -0.97848247015252
  H   -0.95425494615259      1.50892170176083     -0.87905745272293
  H   -2.34306446590827      0.41251668426985     -0.94152331926611
  H   -0.90374836968028      0.09141222850951     -1.93845385748865
  N   1.45712049394211      0.94003808790007      0.49839534304975
  H   1.24033979690926      1.32306197771383      1.40671129418831
  H   1.20812543575594      1.58890210964097     -0.23581833523530
  N   1.51377777536017     -0.94143880618468     -0.89915536448381
  O   1.49706138848753     -0.25258184690922     -1.91845551399119
  O   2.03834890948337     -2.04301587759593     -0.78133351938678
