17
Coordinates from ORCA-job run
  C   -0.70432849989913     -0.06808795494843      0.15683934554682
  C   0.76284784182681     -0.49991964403857     -0.00669801356861
  Br  -1.49757760975780     -1.74109910428919      1.15579169030047
  H   0.80958454197389     -1.41565484350302     -0.60371215345006
  N   -0.74500492019306      1.09347530404274      0.90976716179169
  H   -1.67409557298152      1.42769562806198      1.12042853222000
  H   -0.14232944530808      1.04615627157883      1.72271933314352
  C   -1.52804654611974      0.01486187529848     -1.10927223551175
  H   -1.19867570555907      0.86887145680383     -1.70211556089109
  H   -2.58018607337231      0.14547115059974     -0.84901877848897
  H   -1.43191265184144     -0.89382593074288     -1.70234530816867
  N   1.41580377250045     -0.53464946030614      1.27682571573315
  H   1.24147837018454     -1.42853996177212      1.71651973612707
  H   2.41105785514564     -0.38480958980356      1.17862890221987
  N   1.45603603876316      0.53970688917933     -0.86694793211248
  O   2.21267317979470      1.34070677408988     -0.32971617605773
  O   1.19367542484296      0.48964113974914     -2.06569425883322
