17
Coordinates from ORCA-job run
  C   -0.66412209867820     -0.16745259639131      0.12397537354985
  C   0.81889752385281      0.23748789301956      0.08471494695434
  Br  -0.90039207167560     -1.48636406663804     -1.44933577173980
  H   1.02074154226636      0.78169199680908      1.01260634706224
  N   -1.02306773185905     -0.72518080721898      1.35853253328509
  H   -0.43115622755182     -1.49209937996001      1.64671830951919
  H   -1.99996812759151     -0.98311533786292      1.38882981822877
  C   -1.56122877844735      1.01213484139761     -0.20230872343480
  H   -1.39342235675609      1.78931607522280      0.54836534584803
  H   -1.35205862303604      1.41734966321263     -1.18745029909614
  H   -2.60585604869828      0.69650358156546     -0.15643055931517
  N   1.14110870738759      1.02355100638130     -1.04186831047386
  H   2.09156522917915      1.36334674144653     -0.98757798407157
  H   1.03973399513834      0.48303881247832     -1.89276608552678
  N   1.71637214508808     -1.01881857084519      0.21240750258092
  O   1.59086175076064     -1.69498724626934      1.23214953460543
  O   2.51299117062097     -1.23740260634748     -0.69056197797573
