17
Coordinates from ORCA-job run
  C   -0.67807906732061     -0.14313605508284      0.06482449193436
  C   0.82011216556465      0.19028022008778      0.15847346942520
  Br  -0.85699036596038     -1.33201522344454     -1.61586517172604
  H   0.97785271338815      0.65640701922935      1.13609408453957
  N   -1.14986183822880     -0.77031530819732      1.22615975819812
  H   -0.61665537790056     -1.58608481988374      1.49416030550236
  H   -2.13714560727018     -0.97984012074234      1.16897568591705
  C   -1.49654876028418      1.09962597508800     -0.23194324485610
  H   -1.34859952217228      1.81176114239797      0.58452381191043
  H   -1.19972839443435      1.56390186687199     -1.16727018085031
  H   -2.55472333785632      0.83346584329983     -0.28102003232802
  N   1.25741903124345      1.03937476979563     -0.88033183107911
  H   1.19637361508583      0.56718018774916     -1.77465409630406
  H   2.21519829065613      1.32750775183657     -0.73362481190293
  N   1.65011581084656     -1.11444294547302      0.25243294935431
  O   2.49912664100738     -1.30602876321483     -0.60801076342861
  O   1.42213400363555     -1.85564154031770      1.20707557569378
