17
Coordinates from ORCA-job run
  C   -0.67249938156488     -0.15672147087266      0.08340015447370
  C   0.81993791207014      0.21061505986501      0.13483184275241
  Br  -0.86766189486320     -1.36824933525157     -1.57940391387605
  H   0.99151980541769      0.69267531938179      1.10229769407605
  N   -1.10020789073416     -0.78102616742427      1.26290568364297
  H   -0.54278125595753     -1.58195248026005      1.52615160918015
  H   -2.08420109586546     -1.01069492857007      1.23517626012477
  C   -1.52597694352818      1.06397603753562     -0.20628154844290
  H   -2.57831893918357      0.77273849140804     -0.23280564309473
  H   -1.37911827904447      1.78522440512541      0.60242994457528
  H   -1.25801722285403      1.52757028425361     -1.15054868063343
  N   1.21281518340145      1.05478034727874     -0.92539501975709
  H   1.14480681411745      0.56848169256090     -1.81149631989062
  H   2.16504100356964      1.37111918032782     -0.80315023044198
  N   1.67980478988303     -1.07467699871347      0.22461557620852
  O   1.48961800510980     -1.80916175103884      1.19268828008266
  O   2.50723939002627     -1.26269768560604     -0.65741568897976
