17
Coordinates from ORCA-job run
  C   -0.70281461381155     -0.25114602284528     -0.05511193642814
  C   0.76659811761453      0.20824932503929      0.12757006894966
  Br  -0.74125447736508     -1.36158445202376     -1.70717391004863
  H   0.82371950454304      0.69748225157221      1.10519725910920
  N   -1.25579014127925     -1.03453344763558      1.00378930131727
  H   -1.57377538117082     -0.43430162855346      1.75502701189521
  H   -0.59658942632803     -1.71117244020590      1.36532200768757
  C   -1.58574426417599      0.96283766789268     -0.28883217875735
  H   -1.50517018508945      1.63447457883493      0.57372163957421
  H   -1.28609412962501      1.51432750102194     -1.17507060695904
  H   -2.61887900331629      0.62723018970259     -0.38556526032889
  N   1.20733317051069      1.07829895315537     -0.89460034855279
  H   1.22960008750213      0.59435150114487     -1.78427223865461
  H   2.13419263320074      1.43278134925013     -0.69828475865464
  N   1.67963697252754     -1.02176802875501      0.30368048718839
  O   2.49648245385142     -1.25522143497390     -0.57890473667981
  O   1.52954868241137     -1.68130586262111      1.33250819934235
