15

C	0.0	0.0	0.0
C	-0.483322	0.037033	-1.446953
F	1.351741	0.0	0.0
H	-0.245884	-0.94059	-1.884505
H	-1.58585	0.099618	-1.358214
N	-0.609892	1.170558	0.687667
O	-1.76736	0.876601	1.207076
O	-0.314164	2.309434	0.22133
N	-0.421908	-1.177657	0.705327
H	-1.437318	-1.105146	0.789789
H	-0.200935	-1.972192	0.115469
N	0.139745	1.086569	-2.260459
H	0.064924	1.938983	-1.710814
H	-0.437277	1.210994	-3.087328
H	-2.939821	0.0	0.0
