15

C	0.0	0.0	0.0
C	-0.559872	0.270341	-1.38648
F	1.401551	0.0	0.0
H	-1.337545	1.026641	-1.261481
H	0.257998	0.683106	-1.980448
N	-0.147954	1.358777	0.828815
O	-0.057908	2.424695	0.227385
O	-0.215548	1.249576	2.051182
N	-0.558712	-1.057318	0.675618
H	-1.592852	-0.933788	0.538154
H	-0.347785	-0.962652	1.664505
N	-1.08199	-0.945726	-2.008203
H	-1.294541	-0.703277	-2.972115
H	-1.989051	-1.072228	-1.547312
H	-3.022303	0.0	0.0
