15

C	0.0	0.0	0.0
C	-0.52592	0.133047	-1.412313
F	1.360914	0.0	0.0
H	-1.621593	0.196241	-1.282897
H	-0.292434	-0.840744	-1.881584
N	-0.289429	1.301052	0.797604
O	-1.146507	1.282379	1.668686
O	0.414539	2.265903	0.506047
N	-0.569096	-1.05839	0.739847
H	-1.592079	-0.823869	0.750796
H	-0.492332	-1.897134	0.172966
N	-0.009215	1.280128	-2.148057
H	1.001442	1.23533	-2.186481
H	-0.361479	1.239408	-3.096785
H	-3.174739	0.0	0.0
