15

C	0.0	0.0	0.0
C	-0.516441	0.2647	-1.399387
F	1.359031	0.0	0.0
H	-0.458884	-0.723424	-1.880996
H	-1.583414	0.500507	-1.277669
N	-0.228475	1.247178	0.9604
O	0.08315	2.359582	0.552806
O	-0.598989	1.004099	2.106959
N	-0.603717	-1.13637	0.521604
H	-0.449525	-1.160311	1.524562
H	-1.638531	-0.948792	0.377105
N	0.205229	1.31147	-2.126615
H	1.194012	1.093664	-2.11908
H	-0.104675	1.276627	-3.091194
H	-3.078413	0.0	0.0
