18

C	-0.019621	-0.010631	0.006772
C	-0.509317	-0.053244	-1.459239
F	1.39077	0.071053	-0.01938
H	-1.610163	0.007618	-1.312002
N	-0.537374	1.123598	0.71557
H	-0.303875	1.960611	0.187512
H	-1.56638	0.973874	0.621912
C	-0.426095	-1.263398	0.749905
H	0.040043	-2.155314	0.326765
H	-1.516288	-1.302257	0.687094
H	-0.111969	-1.151451	1.789173
C	-0.096025	-1.30009	-2.244081
H	0.983207	-1.461923	-2.175681
H	-0.612645	-2.176313	-1.849897
H	-0.364841	-1.200431	-3.299037
C	-0.045264	1.143576	-2.156175
N	0.333649	2.092237	-2.73814
F	-2.90839	0.141738	-0.056168
