18

C	-0.011058	-0.008861	0.007036
C	-0.491721	-0.005467	-1.462658
F	1.399127	0.079644	-0.007951
H	-1.59373	0.046001	-1.32064
N	-0.53781	1.099273	0.749531
H	-0.304677	1.954203	0.250808
H	-1.56566	0.9489	0.644637
C	-0.416175	-1.287162	0.70615
H	0.057162	-2.162282	0.256716
H	-1.505746	-1.328947	0.635807
H	-0.108096	-1.208103	1.750256
C	-0.068152	-1.224353	-2.285132
H	-0.583718	-2.115023	-1.923271
H	1.011269	-1.384083	-2.214719
H	-0.330348	-1.091302	-3.338065
C	-0.028352	1.215372	-2.117047
N	0.350606	2.184747	-2.663782
F	-2.899601	0.133844	-0.068918
