15

C	-0.653188	0.05016	-1.365569
C	0.0	0.0	0.0
Cl	-0.084756	1.401764	-2.370761
H	1.097335	0.0	0.0
H	-1.735565	0.136632	-1.277685
N	-0.422479	-1.233615	-2.111724
O	0.726035	-1.532401	-2.401474
O	-1.431371	-1.8946	-2.364185
N	-0.421381	-1.240369	0.618583
H	0.358095	-1.600608	1.156097
H	-1.212791	-1.070105	1.226458
N	-0.497761	1.163752	0.763758
H	-0.164714	1.998005	0.284384
H	0.047365	1.143742	1.625354
H	2.876216	0.0	0.0
