15

C	-0.549435	-0.004537	-1.404171
C	0.0	0.0	0.0
Cl	-2.327333	-0.238865	-1.441555
H	1.093163	0.0	0.0
H	-0.102395	-0.808635	-1.981377
N	-0.205595	1.270127	-2.128274
O	0.89006	1.248097	-2.687862
O	-0.97898	2.217818	-2.09826
N	-0.331038	-1.295344	0.589468
H	0.41877	-1.523863	1.233767
H	-1.205043	-1.24598	1.101468
N	-0.388794	1.20657	0.698131
H	-1.295931	1.123258	1.138688
H	0.318048	1.402881	1.397391
H	2.779352	0.0	0.0
