15

C	-0.503779	0.012356	-1.428334
C	0.0	0.0	0.0
Cl	0.16223	-1.301537	-2.411853
H	1.099206	0.0	0.0
H	-0.244276	0.963342	-1.885416
N	-2.01301	-0.064147	-1.460561
O	-2.553777	-1.165957	-1.436476
O	-2.602742	1.018086	-1.432452
N	-0.518321	-1.162423	0.738693
H	-0.474421	-1.982193	0.14093
H	0.172627	-1.326799	1.466883
N	-0.393916	1.245843	0.630445
H	-1.224738	1.080865	1.187116
H	0.366008	1.52917	1.243295
H	2.815905	0.0	0.0
