18

C	0.0	0.0	0.0
C	-0.47803	0.016739	-1.456557
Br	1.982388	0.0	0.0
H	-0.027916	0.883991	-1.956088
H	-1.567053	0.166424	-1.365191
C	-0.467223	1.26231	0.712559
H	-0.128037	2.157394	0.181396
H	-1.566918	1.193561	0.702146
H	-0.087205	1.297262	1.738571
C	-0.472107	-1.238161	0.750292
H	-1.57192	-1.204806	0.68089
H	-0.153126	-1.189122	1.796066
H	-0.07359	-2.157113	0.312547
C	-0.198295	-1.252785	-2.251401
H	-0.797813	-2.082876	-1.872492
H	0.857472	-1.537406	-2.215695
H	-0.474309	-1.107312	-3.300631
F	-3.116716	0.0	0.0
