16

C	-0.632825	-0.040881	-1.553106
C	0.11099	0.034645	-0.219372
Br	-2.552672	-0.212466	-1.361947
H	1.171823	0.106282	-0.485282
H	-0.294399	-0.911509	-2.108383
N	-0.299196	1.154439	-2.406834
O	0.7503	1.037524	-3.039239
O	-1.004306	2.156088	-2.373704
N	-0.058078	-1.254347	0.432477
H	0.755517	-1.35234	1.04695
H	-0.87732	-1.211749	1.030235
C	-0.246491	1.245102	0.632601
H	-1.29017	1.196226	0.957216
H	-0.09394	2.19228	0.107989
H	0.408916	1.215783	1.504506
Cl	2.657433	-0.542754	2.080745
