16

C	-0.607727	0.000802	-1.613523
C	0.116729	-0.009823	-0.269996
Br	-0.271977	-1.553908	-2.706218
H	1.181657	0.087434	-0.503514
H	-0.33147	0.870625	-2.205802
N	-2.092092	0.142463	-1.414209
O	-2.59166	1.20121	-1.798644
O	-2.691786	-0.756013	-0.834505
N	-0.025176	-1.260598	0.441169
H	0.746395	-1.276564	1.109644
H	-0.895984	-1.265873	0.959646
C	-0.296557	1.234047	0.524848
H	-0.214466	2.156259	-0.061046
H	-1.328275	1.142143	0.881796
H	0.378067	1.29483	1.379765
Cl	2.667593	-0.145039	2.020822
