15

C	-0.160309	0.059809	0.011605
C	-0.59936	0.13314	-1.439483
Br	1.685188	-0.508128	0.214699
H	-1.626684	0.508796	-1.395329
H	-0.81441	-0.637669	0.543424
N	-0.321341	1.381229	0.727017
O	-0.749391	2.331773	0.077144
O	-0.047965	1.395245	1.920242
C	-0.637582	-1.260224	-2.07498
H	0.359682	-1.699694	-2.126952
H	-1.040257	-1.184151	-3.087237
H	-1.305834	-1.882664	-1.479388
C	0.226703	1.044148	-2.23384
N	0.890495	1.71903	-2.929046
Cl	-3.133911	-1.031931	0.385226
