15

C	-0.146973	0.057019	0.014835
C	-0.587234	0.248282	-1.425145
Br	1.702481	-0.51361	0.169291
H	-1.616081	0.61474	-1.350525
H	-0.795518	-0.687064	0.486639
N	-0.315923	1.312976	0.837972
O	-0.748479	2.312279	0.269271
O	-0.043629	1.22865	2.028553
C	-0.619323	-1.088111	-2.173192
H	-1.024931	-0.931188	-3.17491
H	-1.282861	-1.761024	-1.629492
H	0.380107	-1.516432	-2.262966
C	0.233624	1.226116	-2.141675
N	0.887802	1.962779	-2.78103
Cl	-3.115388	-1.071163	0.299294
