17

C	-0.42044	0.087525	-1.431698
C	0.0	0.0	0.0
F	-1.766685	0.371837	-1.606724
H	1.094974	0.0	0.0
H	0.160195	0.834097	-1.974425
N	-0.181731	-1.208849	-2.165601
O	-1.074591	-2.052226	-2.137753
O	0.904148	-1.334487	-2.720401
C	-0.534263	-1.222339	0.730005
H	-1.626412	-1.307391	0.686274
H	-0.100776	-2.141216	0.329659
H	-0.231236	-1.158584	1.778812
C	-0.404767	1.29817	0.693114
H	-0.019955	2.163502	0.143893
H	0.060187	1.319104	1.68169
H	-1.489342	1.408989	0.806979
F	2.640418	0.0	0.0
