17

C	-0.526531	-0.001126	-1.406332
C	0.0	0.0	0.0
F	-0.059514	-1.065615	-2.131333
H	1.096174	0.0	0.0
H	-1.621566	-0.005709	-1.478417
N	-0.124093	1.250071	-2.155372
O	-0.902059	2.202677	-2.044518
O	0.916133	1.244951	-2.795509
C	-0.466363	-1.284887	0.674986
H	-1.561794	-1.348307	0.767701
H	-0.032765	-1.33015	1.677439
H	-0.107598	-2.158286	0.12745
C	-0.464024	1.230346	0.768023
H	-0.131186	1.130434	1.804824
H	-1.555155	1.364356	0.764555
H	-0.006401	2.138634	0.372738
F	2.636927	0.0	0.0
