17

C	-0.422404	0.047753	-1.432159
C	0.0	0.0	0.0
F	-1.7806	0.268052	-1.613739
H	1.094957	0.0	0.0
H	0.125873	0.809494	-1.987945
N	-0.12398	-1.246228	-2.151947
O	0.954217	-1.316999	-2.734393
O	-0.967412	-2.137951	-2.095634
C	-0.526809	-1.210058	0.756876
H	-0.2352	-1.114995	1.806975
H	-0.078903	-2.133598	0.384353
H	-1.617762	-1.308873	0.705242
C	-0.418295	1.310367	0.661584
H	-1.505583	1.415102	0.763644
H	-0.035298	2.166797	0.096873
H	0.036469	1.357803	1.654937
F	2.636302	0.0	0.0
