11

C	0.0	0.0	0.0
C	-0.547834	0.512698	-1.299017
Cl	1.768975	0.0	0.0
H	-0.237539	-0.160861	-2.100786
H	-0.352894	-0.992376	0.267852
H	-1.638965	0.523586	-1.225601
H	-0.167311	1.514284	-1.495059
N	-0.393161	0.880767	1.167237
O	-0.482337	2.084758	0.960462
O	-0.520208	0.318906	2.249126
Br	-3.806044	0.0	0.0
