15

C	-0.300829	0.004789	-1.502652
C	0.0	0.0	0.0
Br	-0.005477	-1.849993	-2.231989
H	1.098619	0.0	0.0
N	-1.778594	0.247836	-1.8068
O	-2.582034	0.004822	-0.915983
O	-2.045275	0.660193	-2.927992
N	0.444862	1.012222	-2.100743
H	0.296792	1.067405	-3.097091
H	1.431339	0.93281	-1.85031
C	-0.501593	-1.144506	0.746462
N	-0.855894	-2.060237	1.389287
C	-0.457317	1.25356	0.597019
N	-0.81569	2.261357	1.081619
Cl	3.158569	0.0	0.0
