15

C	-0.431722	0.015041	-1.467808
C	0.0	0.0	0.0
Br	-2.456094	0.398346	-1.561382
H	1.096734	0.0	0.0
N	0.151376	1.215611	-2.206682
O	0.528556	2.161651	-1.533567
O	0.163596	1.127591	-3.42876
N	-0.041123	-1.12296	-2.139291
H	-0.229238	-1.083502	-3.13038
H	-0.327927	-1.986452	-1.703976
C	-0.449255	-1.259069	0.590332
N	-0.796871	-2.298108	1.015008
C	-0.491722	1.118806	0.79701
N	-0.866298	1.982838	1.498704
Cl	3.119415	0.0	0.0
