15

C	-0.56231	-0.099895	-1.425462
C	0.0	0.0	0.0
Br	0.247066	1.25793	-2.548921
H	1.106656	0.0	0.0
N	-0.10707	-1.455204	-2.048924
O	0.798777	-2.070181	-1.506952
O	-0.728775	-1.79512	-3.052668
N	-1.967214	0.028781	-1.460043
H	-2.395555	-0.629913	-0.817535
H	-2.309549	-0.13505	-2.398542
C	-0.508829	-1.119735	0.794055
N	-0.980417	-2.008955	1.40148
C	-0.445503	1.257081	0.603361
N	-0.790461	2.255447	1.117115
Cl	3.148597	0.0	0.0
