15

C	-0.285912	0.004991	-1.522001
C	0.0	0.0	0.0
Br	-2.175921	-0.295867	-1.88685
H	1.094567	0.0	0.0
N	0.056101	1.402094	-2.092523
O	0.565187	2.204746	-1.318698
O	-0.181548	1.577533	-3.277119
N	0.509483	-0.926057	-2.239316
H	1.475261	-0.843541	-1.905888
H	0.181109	-1.870024	-2.073689
C	-0.399996	-1.304249	0.528506
N	-0.704041	-2.362755	0.937379
C	-0.606931	1.063931	0.782896
N	-1.137322	1.873354	1.448877
Cl	3.139114	0.0	0.0
