13

C	-0.456088	0.036927	-1.425102
C	0.0	0.0	0.0
F	-1.81296	0.206228	-1.574825
H	1.091955	0.0	0.0
H	-0.296909	0.949961	0.45704
C	0.217548	1.098378	-2.183906
N	0.736443	1.982949	-2.754972
N	-0.126603	-1.298988	-2.105608
O	0.996369	-1.40949	-2.576118
O	-1.010567	-2.145744	-2.079501
C	-0.585555	-1.096614	0.741399
N	-1.030755	-1.974242	1.384803
F	2.47593	0.0	0.0
