13

C	-0.441707	0.079124	-1.42902
C	0.0	0.0	0.0
F	-1.792578	0.291273	-1.58597
H	1.091976	0.0	0.0
H	-0.291905	0.942399	0.475653
C	0.264585	1.135852	-2.168969
N	0.7301	2.035412	-2.762681
N	-0.14716	-1.25163	-2.135015
O	0.958209	-1.369919	-2.643163
O	-1.038861	-2.088504	-2.092326
C	-0.597683	-1.106724	0.714398
N	-1.045942	-1.995625	1.339985
F	2.476688	0.0	0.0
