13

C	-0.416806	0.009289	-1.428279
C	0.0	0.0	0.0
F	0.028865	1.144879	-2.047797
H	1.09348	0.0	0.0
H	-0.345785	0.926816	0.463485
C	0.034382	-1.170458	-2.178389
N	0.415646	-2.114221	-2.763508
N	-1.961273	0.106558	-1.609529
O	-2.559927	0.785393	-0.783913
O	-2.454372	-0.433689	-2.596707
C	-0.548208	-1.148403	0.688513
N	-0.979695	-2.08909	1.246696
F	2.479942	0.0	0.0
