13

C	-0.362062	0.053129	-1.446358
C	0.0	0.0	0.0
F	-1.713109	-0.094525	-1.70546
H	1.092102	0.0	0.0
H	-0.347525	-0.954839	0.401269
C	0.093876	1.276203	-2.116648
N	0.414008	2.293163	-2.608074
N	0.28919	-1.155142	-2.131918
O	1.091448	-0.953266	-3.033338
O	-0.097763	-2.242762	-1.722808
C	-0.571922	1.106181	0.732583
N	-1.018064	2.002611	1.348997
F	2.475984	0.0	0.0
