13

C	-0.339777	-0.12065	-1.447445
C	0.0	0.0	0.0
F	-1.667842	-0.415526	-1.705162
H	1.093709	0.0	0.0
H	-0.331742	-0.912265	0.501202
C	0.015904	1.065605	-2.234184
N	0.249832	2.034012	-2.855366
N	0.429334	-1.328031	-2.001835
O	1.190523	-1.1535	-2.943041
O	0.166231	-2.392114	-1.457373
C	-0.594321	1.170112	0.601401
N	-1.062049	2.120598	1.112074
F	2.47447	0.0	0.0
