13

C	-0.340098	0.02114	-1.466532
C	0.0	0.0	0.0
F	0.046603	-1.119376	-2.083363
H	1.094814	0.0	0.0
H	-0.332258	0.933773	0.457335
C	-1.758546	0.266433	-1.792428
N	-2.897225	0.44707	-2.019513
N	0.438052	1.185193	-2.102814
O	1.200159	0.926534	-3.015996
O	0.177459	2.286211	-1.634096
C	-0.599347	-1.140734	0.65191
N	-1.071713	-2.069615	1.196501
F	2.483943	0.0	0.0
