17

C	-0.298457	-0.075657	-1.45179
C	0.0	0.0	0.0
Br	-2.241081	-0.124627	-1.953262
H	1.097445	0.0	0.0
H	0.117347	-0.976572	-1.895755
N	0.28992	1.042682	-2.269203
O	1.05051	0.705013	-3.173828
O	-0.022785	2.197347	-1.998431
C	-0.408522	-1.306398	0.66785
H	-1.496708	-1.42418	0.750317
H	-0.002443	-2.164574	0.123384
H	0.02505	-1.33217	1.671213
C	-0.525562	1.207256	0.753364
H	-0.228267	1.109788	1.801775
H	-1.619555	1.285562	0.709576
H	-0.095149	2.132256	0.373313
F	2.584543	0.0	0.0
