17

C	-0.565231	0.034456	-1.398114
C	0.0	0.0	0.0
Br	0.235211	1.406021	-2.525882
H	1.095007	0.0	0.0
H	-1.642351	0.211966	-1.434743
N	-0.398236	-1.299307	-2.081149
O	-1.421541	-1.99022	-2.128816
O	0.707152	-1.638967	-2.474728
C	-0.440745	-1.277242	0.711981
H	0.014681	-2.156224	0.250213
H	-0.066196	-1.233309	1.737916
H	-1.530341	-1.417181	0.739807
C	-0.47036	1.233705	0.759153
H	-0.113302	2.147807	0.279983
H	-1.566148	1.287535	0.851677
H	-0.040238	1.209639	1.764003
F	2.624807	0.0	0.0
