17

C	-0.33258	0.066345	-1.465743
C	0.0	0.0	0.0
Br	0.087186	-1.542794	-2.47134
H	1.096902	0.0	0.0
H	0.229542	0.867375	-1.941017
N	-1.783334	0.399814	-1.707661
O	-2.020379	1.56189	-2.048665
O	-2.638284	-0.446104	-1.458403
C	-0.551784	-1.191102	0.759545
H	-0.244009	-2.131142	0.29813
H	-0.129685	-1.172252	1.768647
H	-1.645597	-1.184193	0.837709
C	-0.400163	1.322002	0.653066
H	-1.486554	1.458319	0.74446
H	0.010218	2.170693	0.098769
H	0.038097	1.349654	1.654148
F	2.620718	0.0	0.0
