17

C	-0.306452	-0.023844	-1.452931
C	0.0	0.0	0.0
Br	-2.242946	-0.174051	-1.947381
H	1.097454	0.0	0.0
H	0.168453	-0.870138	-1.943086
N	0.215713	1.180902	-2.186631
O	1.153244	0.97337	-2.952529
O	-0.303463	2.272207	-1.971315
C	-0.410409	-1.319518	0.638575
H	-1.497329	-1.418478	0.752851
H	0.05593	-1.38434	1.625438
H	-0.04146	-2.168199	0.054107
C	-0.516711	1.194443	0.780396
H	-0.214516	1.074567	1.825199
H	-1.609704	1.286031	0.741992
H	-0.079095	2.125199	0.419937
F	2.582257	0.0	0.0
