17

C	-0.490448	0.003897	-1.428439
C	0.0	0.0	0.0
Br	0.272347	1.434067	-2.511275
H	1.095025	0.0	0.0
H	-1.573216	0.09683	-1.53651
N	-0.167382	-1.304694	-2.103663
O	1.000211	-1.582715	-2.329867
O	-1.139601	-2.035906	-2.326233
C	-0.487046	-1.27327	0.688567
H	-1.578057	-1.40253	0.641522
H	-0.011521	-2.158441	0.26028
H	-0.188948	-1.231714	1.739469
C	-0.516695	1.237641	0.718261
H	-0.118092	2.14835	0.267605
H	-0.173672	1.213532	1.756043
H	-1.615864	1.297995	0.721357
F	2.626411	0.0	0.0
