17

C	-0.34507	0.061237	-1.46233
C	0.0	0.0	0.0
Br	0.12267	-1.530133	-2.475538
H	1.096818	0.0	0.0
H	0.184157	0.882781	-1.94031
N	-1.808684	0.345618	-1.68923
O	-2.630977	-0.53646	-1.455538
O	-2.08969	1.506374	-2.001245
C	-0.540505	-1.195067	0.762161
H	-1.632445	-1.185709	0.863134
H	-0.245845	-2.13302	0.288096
H	-0.097184	-1.184296	1.76217
C	-0.401924	1.318599	0.658505
H	0.000121	2.170371	0.102785
H	0.044097	1.346119	1.65621
H	-1.488014	1.450233	0.75837
F	2.619025	0.0	0.0
