16

C	0.0	0.0	0.0
C	-0.349117	-0.066195	-1.538569
Cl	1.793121	0.0	0.0
H	0.60849	0.092921	-2.043824
H	-0.322856	-0.892651	0.523763
C	-0.518293	1.178831	0.683151
N	-0.570948	2.196415	1.285323
C	-1.276342	1.001567	-2.11809
H	-2.317246	0.761522	-1.918135
H	-1.07535	1.983413	-1.680178
H	-1.093751	1.065017	-3.202344
C	-0.807052	-1.470681	-1.909946
H	-0.929582	-1.557594	-2.99629
H	-0.074501	-2.220926	-1.592732
H	-1.759328	-1.662762	-1.410242
H	-2.290391	0.0	0.0
