16

C	0.0	0.0	0.0
C	-0.544606	0.015574	-1.425763
Cl	1.793318	0.0	0.0
H	-1.635777	0.01551	-1.209481
H	-0.346286	-0.900493	0.509277
C	-0.416882	1.16983	0.783509
N	-0.54075	2.153589	1.415499
C	-0.175674	-1.260483	-2.166966
H	-0.671237	-1.274691	-3.142566
H	-0.518902	-2.139009	-1.611158
H	0.903126	-1.352428	-2.333732
C	-0.160551	1.2701	-2.193131
H	-0.500692	2.166042	-1.667047
H	-0.644805	1.259192	-3.17455
H	0.920622	1.348932	-2.350954
H	-2.985085	0.0	0.0
