16

C	-0.292792	-0.009803	-1.487273
C	0.0	0.0	0.0
Cl	-0.36439	1.72697	-2.153449
H	1.095591	0.0	0.0
H	-0.319993	-0.977566	0.37202
N	0.616143	-0.829919	-2.148795
H	0.544413	-0.779451	-3.155115
H	1.566338	-0.67965	-1.808968
N	-1.699995	-0.514049	-1.83903
O	-1.894993	-0.836908	-3.007509
O	-2.535351	-0.562172	-0.940086
C	-0.571257	1.123667	0.844758
H	-1.654087	1.207148	0.734109
H	-0.111155	2.077361	0.587663
H	-0.343911	0.920565	1.894792
Cl	3.446643	0.0	0.0
