15
Coordinates from ORCA-job run
  C   -0.79697797395343     -0.07377204732940     -0.22771398378920
  C   0.70358471575068      0.06208252408317      0.07455735275417
  F   -1.16749476470924     -1.36754778274636     -0.27665447702243
  H   0.93100046613054      1.11189555545208      0.25809868409082
  N   -1.48831216246746      0.54982845632774      1.00457308127484
  O   -1.28320001332483      1.74682775413082      1.15266960567866
  O   -2.12898385793710     -0.20174914089043      1.71862180708782
  C   -1.25406729227029      0.66375997770157     -1.40134669819085
  N   -1.61722507582123      1.29043197953964     -2.32678970077727
  N   1.49975533029003     -0.29369193063455     -1.17608373856021
  O   0.94712552194115     -0.97919967842425     -2.03293303072449
  O   2.65286616012488      0.11286311669896     -1.18862728046124
  N   1.13201051406249     -0.75288607277977      1.14672456275976
  H   0.60412341553325     -1.60556016221178      1.25984268021271
  H   1.26679501665057     -0.26228254891744      2.01506113566690
