15
Coordinates from ORCA-job run
  C   -0.77617780542461      0.48334202205924     -0.07472023382566
  C   0.60768723498970     -0.06505629584377     -0.45264037239224
  F   -1.00514678152399      1.54365230033738     -0.90104803255964
  H   0.50886678746504     -0.53826924414178     -1.43685260326809
  N   -1.88930212487814     -0.51213402449610     -0.40248457411983
  O   -2.76963133397365     -0.67987018732494      0.42708453564607
  O   -1.80925165285687     -1.00372281226032     -1.52091850423268
  C   -0.85152314689120      0.89703879305997      1.32223385785732
  N   -0.85754143919419      1.24214416371204      2.44495411441078
  N   0.95693023765705     -1.18484490417139      0.50006361707438
  O   2.13351723670560     -1.32833591229619      0.80508743779616
  O   0.01897744549691     -1.89079464654243      0.85601890799631
  N   1.56444320159417      0.99014752706632     -0.34955995089782
  H   1.73815347521832      1.41341442678043     -1.24987268240662
  H   2.43099866561587      0.63328879406153      0.03365448292156
