15
Coordinates from ORCA-job run
  C   -0.82915174803828      0.42705554371607     -0.16957413781136
  C   0.60333056690957      0.01364067645151     -0.51163813669383
  F   -1.24139228013118      1.31053137973442     -1.11820442241182
  H   0.60693840688629     -0.35897689215290     -1.53616943025363
  N   -1.78306440946036     -0.75877662673542     -0.29962386845611
  O   -2.73869685270987     -0.79363277879612      0.46059750268832
  O   -1.53315751365766     -1.51770536623508     -1.22759554943070
  C   -0.94183371707742      1.02943341816007      1.15703122258799
  N   -0.94386893090343      1.58148397455595      2.19409302966817
  N   1.00323520759124     -1.18602562062169      0.34796089625593
  O   2.10327417559448     -1.66050666690892      0.09432284407204
  O   0.23333941976293     -1.54754046996782      1.23631299594248
  N   1.47570384790151      1.11628239757854     -0.37554223043778
  H   1.62722445612652      1.38952225632696      0.58751864175682
  H   2.35911937120565      0.95421477489443     -0.83748935747653
