15
Coordinates from ORCA-job run
  C   -0.72897147123133      0.27822650369075     -0.61183809911593
  C   0.76775074133070      0.14272871790144     -0.28603227250209
  F   -0.98351570952332     -0.05527890850312     -1.89167765272383
  H   1.29908385897876      0.44094614284911     -1.19487495465022
  N   -1.55444158171454     -0.64872703219439      0.29768864017364
  O   -1.18620608641441     -0.65817094333388      1.46672178826027
  O   -2.48954247638823     -1.23891768401951     -0.20463848809801
  C   -1.20714004423207      1.63968771289916     -0.35402962452266
  N   -1.64116469435726      2.71992647630335     -0.19544878813530
  N   1.10519409789788     -1.36183988543282     -0.14701407603740
  O   2.08353382518544     -1.62305674847827      0.53974430440601
  O   0.40950911639935     -2.15560457212845     -0.77032852307179
  N   1.17160363823360      0.93346000151021      0.80372433132070
  H   2.17744632401029      0.98793350713961      0.87343093780438
  H   0.77886046182513      0.59868671179681      1.67357247689223
