15
Coordinates from ORCA-job run
  C   -0.74146984843479      0.39977132134963     -0.06013097484837
  C   0.65937365224770     -0.08649355008429     -0.48813209500539
  F   -1.03157393580339      1.47453068708667     -0.85607568431910
  H   0.54681002720970     -0.52448566428009     -1.48300665261795
  N   -1.83703804756292     -0.61470797505759     -0.37200550863796
  O   -2.71274445753697     -0.77747935397634      0.46340558982786
  O   -1.75548269862101     -1.11863707076926     -1.48423332648086
  C   -0.78711958348293      0.80004499503417      1.34324069196993
  N   -0.71055899498414      1.18684824861058      2.45029907619188
  N   1.04551648808467     -1.24029110452048      0.43355635285667
  O   0.09651115586672     -1.88198955553502      0.88272448065908
  O   2.22944706088822     -1.45879342134379      0.62160114505073
  N   1.66208494397544      0.90176812025062     -0.48967141192080
  H   1.63941299994197      1.48116778948765     -1.31441523707776
  H   1.69683123821174      1.45974653374753      0.35284355435205
