15
Coordinates from ORCA-job run
  C   -0.83149009723103     -0.07213760271613     -0.09616963389972
  C   0.68025481495507      0.14230453787272      0.00185315235916
  F   -1.14037264419233     -1.30468559199051      0.36689189549157
  H   0.92961123697114      1.12846826641671     -0.38875942617352
  N   -1.45522361381580      0.96863336417497      0.85047076177910
  O   -2.06413688294106      0.54587621434383      1.81384886607067
  O   -1.24794167954069      2.12630691433143      0.51945541334499
  C   -1.41285750779665      0.13705325844923     -1.41989446142400
  N   -1.92426061502543      0.29458013189926     -2.46616362373077
  N   1.31394465432584     -0.85384848897873     -0.98631116732470
  O   1.76151758352845     -1.89316745568371     -0.51544932050288
  O   1.30619824339663     -0.51737268676007     -2.16631200668936
  N   1.07757038178216     -0.01962941421083      1.34224597293336
  H   0.98453734240719     -0.98069924077457      1.64532806509790
  H   2.02364878317652      0.29831779362641      1.49796551266821
