15
Coordinates from ORCA-job run
  C   -0.77661555987621      0.18198837954569     -0.55245351180408
  C   0.73021423952741      0.13739173367421     -0.25457487513663
  F   -1.12920697060656     -0.48429675109481     -1.67654661968713
  H   1.21734918019910      0.67168504500987     -1.07423030174640
  N   -1.57864343682284     -0.47891803094213      0.57339743804056
  O   -2.75657366085653     -0.16281025936314      0.65165987074266
  O   -0.98378160762867     -1.32227846039547      1.23577461763607
  C   -1.19873266775802      1.58190668557118     -0.65284656580484
  N   -1.54830525355814      2.69458640665476     -0.79217426004479
  N   1.29576458793901     -1.29041200267129     -0.37487092001909
  O   1.84887724156680     -1.75381574982480      0.61259748494900
  O   1.19036094426853     -1.81528648631601     -1.47654208647825
  N   0.96687278685820      0.76816199221634      0.98600735492259
  H   1.89971242618695      1.15021092230406      1.04319150409263
  H   0.82270775056098      0.12288657563154      1.75261087033769
