15
Coordinates from ORCA-job run
  C   -0.80042920387251     -0.07774668799237     -0.24271196219034
  C   0.65887943728615      0.16481498910207      0.14715613108122
  F   -1.06892764868523     -1.40140057639685     -0.17379280992423
  H   0.88002765259942      1.22908915416015      0.07141523989571
  N   -1.63683036973467      0.64037319747556      0.83149115389211
  O   -1.48225506845900      1.85215234751821      0.85145301307075
  O   -2.33828902821685     -0.05310371250646      1.54194662629301
  C   -1.20254671570720      0.45870774478032     -1.54076429116168
  N   -1.57055871602411      0.87289905800740     -2.57715945162471
  N   1.50640271562751     -0.50050671239579     -0.95292550070511
  O   1.96554022413419     -1.60940239236712     -0.70476506029522
  O   1.63962316613737      0.14205195576243     -1.98970337117715
  N   0.87395564552570     -0.33663772314423      1.44459146267452
  H   0.81788754577608     -1.34691596633051      1.46744828809299
  H   1.75952036361313     -0.03437467567282      1.82532053207813
