15
Coordinates from ORCA-job run
  C   -0.75884132330636      0.25859712226876     -0.58516524343971
  C   0.75329518930808      0.15664234112925     -0.32333742257013
  F   -1.06224249109764     -0.08835259679652     -1.85064078801045
  H   1.23880428352116      0.44962930193929     -1.25902685438160
  N   -1.52258616910676     -0.68111811033870      0.36494755169826
  O   -2.46272024132165     -1.29854583517488     -0.09337839870954
  O   -1.10528222010105     -0.67135283206472      1.51741393123324
  C   -1.25672952675766      1.60997499891015     -0.31222590920862
  N   -1.71597388598944      2.67495918490224     -0.12406547862983
  N   1.12285573036155     -1.34007333064402     -0.17612788688418
  O   0.43556345706486     -2.14981196378802     -0.78819915658014
  O   2.11216939391297     -1.57924901608389      0.50268400529218
  N   1.18785791972412      0.97144038948756      0.73623662560109
  H   2.19454984357485      1.04424121306073      0.76302935090039
  H   0.83928004021298      0.64201913319278      1.62685567368906
