15
Coordinates from ORCA-job run
  C   -0.73910347459948      0.45721355360687     -0.15615217972457
  C   0.68737206997014     -0.04935706684608     -0.47946618182381
  F   -0.98653928642857      1.48180205673748     -1.01232745053433
  H   0.66935747143422     -0.36537432318340     -1.52433351726575
  N   -1.74396382063157     -0.65261559158359     -0.45569586746824
  O   -2.10412480927868     -1.32679817844268      0.50031579094395
  O   -2.03369532571068     -0.78767368543757     -1.63414413947502
  C   -0.89169820123054      0.90821630802666      1.22313800636627
  N   -0.94678785244265      1.33868558368627      2.31533642534252
  N   0.92533741708304     -1.28546443486091      0.34462276954865
  O   0.61637580777523     -2.35541250122925     -0.17142439595126
  O   1.37881002726460     -1.10780364865971      1.47028014975170
  N   1.72797737366267      0.88219451366765     -0.24212587543425
  H   1.69622869097242      1.65287277112325     -0.89437632987002
  H   1.74745391215985      1.20951464339501      0.71535279559416
