15
Coordinates from ORCA-job run
  C   -0.81923795913159      0.10907275295221     -0.52667842022049
  C   0.70038143573879      0.15010588346968     -0.28527024289644
  F   -1.18251060800641     -0.72212275574107     -1.53084952549003
  H   1.13841140021569      0.70434352295996     -1.11792606364378
  N   -1.51708123232730     -0.42836714385201      0.72449354573981
  O   -2.52550859959307      0.14445779676033      1.11034615340017
  O   -1.00568296659615     -1.44213355439434      1.18686980598871
  C   -1.29511769827955      1.46819914996859     -0.79208871256843
  N   -1.61066761274557      2.57297240532523     -1.03648099101562
  N   1.32697552195249     -1.24860930282086     -0.41944992067447
  O   1.82730612612574     -1.73598627695644      0.58549198145089
  O   1.31371442421139     -1.72859029108458     -1.54621360748117
  N   0.93794112337915      0.79220859677699      0.95004675537232
  H   0.86382353933945      0.13578919736254      1.71854474444207
  H   1.84725310571693      1.23066001927377      0.97916449759647
