15
Coordinates from ORCA-job run
  C   -0.81085342916894      0.46484886220273     -0.16022751728698
  C   0.60594095040769      0.00479449066316     -0.50828461755867
  F   -1.18286273890310      1.38982139807845     -1.08567611968915
  H   0.60009541493507     -0.33663022167947     -1.54360481029956
  N   -1.80958144867094     -0.67907173302484     -0.32786235564378
  O   -2.76614859952381     -0.70292090968184      0.43142284798452
  O   -1.58732508284822     -1.41655340018785     -1.27988957136477
  C   -0.90755829194736      1.03414030531367      1.18197481483146
  N   -0.89442121506300      1.55703549075707      2.23396826320912
  N   0.95312530225687     -1.23513670753253      0.31581011163601
  O   0.16840422264240     -1.58798194660458      1.19472327969251
  O   2.03138781988540     -1.74960821909390      0.04711498525002
  N   1.52059617676837      1.06708467878196     -0.33525034014110
  H   1.67897073312446      1.30521717457816      0.63597202336856
  H   2.39823018610506      0.88696073742981     -0.80119099398820
