15
Coordinates from ORCA-job run
  C   -0.78623433937674     -0.12787190349474     -0.26676131592170
  C   0.64171086896171      0.20615483479984      0.16959374463703
  F   -0.96420921302926     -1.46793613475191     -0.23235317021768
  H   0.78851956695391      1.28479332173177      0.12254049898419
  N   -1.69945676936883      0.50719575244345      0.79701122441526
  O   -1.62892343404321      1.72595650976525      0.84654210012264
  O   -2.37227899951623     -0.24798437209656      1.47140110274038
  C   -1.18883673851705      0.40875143021442     -1.56454217528538
  N   -1.55523734217787      0.82043480616648     -2.60244083300038
  N   1.56264382510323     -0.37344551914676     -0.91919833041886
  O   2.08892719135407     -1.45469907034751     -0.68222389198901
  O   1.67980806757242      0.30090780747790     -1.93755915573415
  N   0.85586126015172     -0.30836388350423      1.46203651423235
  H   1.70711755120808      0.04640035770487      1.87435633649774
  H   0.87058850472407     -1.32029393696225      1.46259735093760
