15
Coordinates from ORCA-job run
  C   -0.69166067690983      0.25260380577426     -0.59537171256724
  C   0.82115990047772      0.05767897918514     -0.28025290545167
  F   -0.98237355432143      0.00851522349251     -1.88598398357553
  H   1.33911088178245      0.33088886202057     -1.20422848091744
  N   -1.53473783491476     -0.68113625290571      0.28225939253028
  O   -2.43775810373951     -1.29893480414392     -0.24634893279989
  O   -1.19783146054915     -0.67746621777639      1.46179927428593
  C   -1.09013028929792      1.62158910471708     -0.25038554357446
  N   -1.38784809261668      2.72847330943068      0.00874545354124
  N   1.05412060043462     -1.45775660299113     -0.13956644507560
  O   0.43531544698322     -2.14614984815019     -0.94673722819590
  O   1.82874854035738     -1.84683383993918      0.71640046126717
  N   1.36717913999605      0.74352794682756      0.81376165994005
  H   0.81944712474499      0.67882510299649      1.65846480928633
  H   1.65925837757285      1.68517523146221      0.60844418130675
