15
Coordinates from ORCA-job run
  C   -0.75699939173538      0.40676817855679     -0.05626467736866
  C   0.64126928589917     -0.03677666764282     -0.51343098007632
  F   -1.13976112769954      1.40149431508478     -0.91605648084143
  H   0.56207239557018     -0.32169220000716     -1.56271615503072
  N   -1.78561331000030     -0.70197521624456     -0.24541162508307
  O   -2.69306136131293     -0.77480184063144      0.56968975617850
  O   -1.62907894725244     -1.37393245601720     -1.25797690149493
  C   -0.79119610573342      0.91408602274587      1.31213780438250
  N   -0.73963838804655      1.42579309061812      2.36870080640889
  N   1.01137398640154     -1.31196936314185      0.22212504129347
  O   1.98197190826933     -1.91746800095598     -0.20163461202604
  O   0.31143680238030     -1.61847825005742      1.18851541253861
  N   1.66120879962465      0.92605201216411     -0.33346166907983
  H   1.60925068363136      1.43153861433061      0.54077720807173
  H   1.75576477000404      1.55236176119817     -1.11699292787270
