15
Coordinates from ORCA-job run
  C   -0.74608856016142      0.27419459227191     -0.55592119148029
  C   0.76363329606493      0.16740994960993     -0.29848524939841
  F   -1.03515796894737     -0.23765273423759     -1.76864974139817
  H   1.26176927767779      0.57909304496390     -1.17871194784943
  N   -1.50891609375711     -0.56233081828562      0.49169570752049
  O   -1.49054381723057     -0.10343643271347      1.62570003877250
  O   -2.02383327208241     -1.59345969943490      0.09977514959139
  C   -1.20910626803752      1.65595175096685     -0.45123118465565
  N   -1.59803310296107      2.76447479564147     -0.43302026748688
  N   1.09452723369343     -1.33674517879449     -0.35209157031015
  O   0.99114383835541     -1.94707172447365      0.70884574856323
  O   1.43352686853168     -1.79195986437064     -1.43853847244550
  N   1.15367131166469      0.82563187564235      0.87953194874998
  H   2.15793740473784      0.89531370734330      0.96079847192054
  H   0.75546985245166      0.40858673587066      1.71030255990636
