15
Coordinates from ORCA-job run
  C   -0.74407821171158      0.42026607719512     -0.22129722094555
  C   0.71516356606640     -0.04882944809619     -0.43796865080711
  F   -0.97792803622656      1.38814751568850     -1.14439725660997
  H   0.76759722259303     -0.41987391554171     -1.46337153405820
  N   -1.69197388855910     -0.74060276295875     -0.51375521384113
  O   -2.08060850991835     -1.37730594169503      0.45667617373122
  O   -1.91204445985931     -0.94705042733221     -1.69680715369544
  C   -0.98959864667964      0.93709885934252      1.12100785845991
  N   -1.12488230519350      1.42095801315775      2.18344963180108
  N   0.94849532086528     -1.22976275030270      0.46445476323144
  O   1.32989043350819     -0.97588980195299      1.60225434701442
  O   0.70821250707877     -2.33655513544250     -0.00868349525975
  N   1.70737632519973      0.93270649179188     -0.19508198977736
  H   1.68393823797253      1.66763227306169     -0.88779332004352
  H   1.66244044486411      1.30906095308463      0.74331306079997
