15
Coordinates from ORCA-job run
  C   -0.72073114531224      0.22846108056014     -0.56830555249150
  C   0.80678026236133      0.07461622596513     -0.31060202304069
  F   -1.05483630446517     -0.03741178485906     -1.84429569994010
  H   1.28234831745387      0.35671476506001     -1.25457396279739
  N   -1.50794494119067     -0.71258946480065      0.35175397090307
  O   -1.11584266018262     -0.70047870296157      1.51392191985346
  O   -2.42820502503940     -1.34198868524029     -0.13087143646902
  C   -1.13936189583322      1.59208422893966     -0.22486842121115
  N   -1.46095089730403      2.69359392754393      0.02855377098948
  N   1.08903031716928     -1.43403373033886     -0.17339882100524
  O   0.41839196323706     -2.15068662072008     -0.91143751728963
  O   1.95192448837468     -1.78921287818600      0.60940724504097
  N   1.37407659270252      0.78127637602652      0.75843338533999
  H   0.85696009303890      0.71434182889187      1.62187057246547
  H   1.64836083498972      1.72431343411926      0.53641256965227
