15
Coordinates from ORCA-job run
  C   -0.80867775645550      0.43503718119577     -0.30702612440853
  C   0.66694507006894      0.03027118616122     -0.46032089498900
  F   -1.12505791723021      1.25652584966241     -1.32891594298186
  H   0.78287035890052     -0.37372372829558     -1.46763238747405
  N   -1.68243969710408     -0.81821259916980     -0.43982561971841
  O   -1.90878373881391     -1.17324557762759     -1.58517194207503
  O   -2.02164414666924     -1.35563218407784      0.60567898951515
  C   -1.07922993079252      1.08203851125134      0.97525028820604
  N   -1.23648675177425      1.65544961925117      1.98879064494425
  N   0.92505139691992     -1.15042147888139      0.48426856442145
  O   0.71472929342649     -2.27088219206793      0.03030051502681
  O   1.31513250393993     -0.86987786066431      1.61360246995257
  N   1.48883091182227      1.15115052440316     -0.23468159729144
  H   1.55871613665121      1.37099622318953      0.75207803307188
  H   2.41204426711045      1.02852652566984     -0.62639499619982
