15
Coordinates from ORCA-job run
  C   -0.81503183541726      0.46478556448543     -0.13126659490535
  C   0.59569839668945      0.01862397465298     -0.52007008636582
  F   -1.20785643612331      1.41394695027890     -1.02290401870869
  H   0.56779234321280     -0.30197521716636     -1.56179436252319
  N   -1.81548052558356     -0.67586539182617     -0.30983158731964
  O   -2.75548798917489     -0.72304096852878      0.46880563062177
  O   -1.61345657508791     -1.38495189469445     -1.28758834188021
  C   -0.88450619246296      0.99644250170684      1.22804465915349
  N   -0.85088833261646      1.49105047343754      2.29315043426238
  N   0.96580550681444     -1.23697910085719      0.27086225185326
  O   0.19067194900830     -1.62475781104881      1.14340475284466
  O   2.04865666243305     -1.73004384073707     -0.01834273958124
  N   1.50942531752414      1.08147486002966     -0.34562904338077
  H   1.68873861489167      1.29852800039043      0.62696709696629
  H   2.37791909589252      0.91276189987704     -0.83280805103694
