15
Coordinates from ORCA-job run
  C   -0.77888899691998     -0.11053031625313     -0.15478191506239
  C   0.74204254093527      0.11270380040464     -0.01474186151916
  F   -1.09092843859974     -1.37043124886195      0.21590730941650
  H   0.97883891865562      1.12631135513511     -0.33475598402963
  N   -1.41363206115363      0.85178401653286      0.85983712370054
  O   -1.21776579199928      2.03573337982243      0.62042806369967
  O   -1.99985789164109      0.35655712631225      1.80624801087783
  C   -1.33518783438450      0.19765643290367     -1.46868746914408
  N   -1.79655311630418      0.44292805080449     -2.52162044066680
  N   1.37465634481331     -0.81366917438500     -1.03723540656985
  O   1.66479382083662     -1.93918088420899     -0.65385786542907
  O   1.50007141558896     -0.35703464588278     -2.17052967338691
  N   1.25957051344134     -0.16207196749835      1.26930305366559
  H   1.22794685157009      0.63052714618565      1.89191084580073
  H   0.88489372516118     -0.99928307101090      1.69157620864704
