15
Coordinates from ORCA-job run
  C   -0.73393807025311      0.21261228844498     -0.51364542102356
  C   0.79255139067670      0.02268906932814     -0.32788036789729
  F   -1.11821280425830     -0.37170957438865     -1.66802332517964
  H   1.25467842725480      0.41524034554773     -1.23513609430491
  N   -1.52184389434113     -0.44150046201818      0.63058801722040
  O   -1.36986414272869      0.09576872102439      1.72041658640848
  O   -2.19746034127846     -1.41398114923228      0.35331967111772
  C   -1.05298728188960      1.63929230241917     -0.51379504424870
  N   -1.25046412644943      2.79739147112711     -0.54515839488448
  N   1.03717271705550     -1.46965769412996     -0.36712649604473
  O   1.57234506745843     -1.92953681604096     -1.36844533770100
  O   0.67728629864261     -2.08394641508854      0.63261840568830
  N   1.40001188900333      0.56337419742779      0.82798220879039
  H   0.85031401356337      0.43248782998222      1.66570971478136
  H   1.66241085754399      1.53047588559704      0.70957587727767
