15
Coordinates from ORCA-job run
  C   -0.76848763785082      0.25481479493797     -0.53758513261787
  C   0.74981253034485      0.17462176297547     -0.32051973733305
  F   -1.08040099219997     -0.28442421912980     -1.73340808097682
  H   1.21691093128058      0.58824332033018     -1.21665970371113
  N   -1.49126941058134     -0.57296087687527      0.54396283811483
  O   -2.00164963180839     -1.61789346381716      0.18428788722324
  O   -1.45062404223623     -0.09260224071868      1.66866231810558
  C   -1.24639207361985      1.63221687390051     -0.44690756552867
  N   -1.60745525583742      2.74973255982533     -0.41279872272663
  N   1.10021740466395     -1.32569900103092     -0.37494983039299
  O   1.01544646811834     -1.93345251566778      0.68906194493724
  O   1.43563549269526     -1.77954124460705     -1.46287925258970
  N   1.16333884976451      0.84462996509222      0.84184058589045
  H   0.79678638495368      0.42835979456379      1.68732208278257
  H   2.16813098231283      0.93395449022118      0.89257036882293
