15
Coordinates from ORCA-job run
  C   -0.73458997913457      0.45202453050832     -0.19072734179740
  C   0.71275735629021     -0.03641745740798     -0.44257542990086
  F   -0.94701698740499      1.48262236396947     -1.04888217644696
  H   0.75521093503354     -0.33685738955766     -1.49130386394781
  N   -1.70892963963585     -0.66623116403261     -0.55370999314221
  O   -1.95266756383261     -0.77962332527397     -1.74472692077354
  O   -2.09174295099127     -1.36752945707920      0.37356569246431
  C   -0.96713906335985      0.88745023080687      1.18231083854158
  N   -1.09306016521787      1.30715334144694      2.27281297658819
  N   0.91908043273008     -1.28154949381237      0.37588213684958
  O   1.28631192260922     -1.11262803138432      1.53394812459227
  O   0.67375496515739     -2.34921234485997     -0.17767872352345
  N   1.72912091264350      0.90146559426739     -0.13530466062016
  H   1.72809526229819      1.67926699624210     -0.77981023576410
  H   1.69081456281487      1.21806560616699      0.82519957688056
