16

C	0.0	0.0	0.0
C	-0.413298	-0.400966	-1.449833
Cl	1.7899	0.0	0.0
H	0.329073	-1.143954	-1.762736
C	-0.419637	1.360205	0.344366
N	-0.688641	2.465285	0.641314
C	-0.527085	-0.993955	1.022806
H	-0.125086	-0.747074	2.007751
H	-1.617583	-0.93839	1.040009
H	-0.226155	-2.004279	0.743007
C	-0.242439	0.758541	-2.360731
N	-0.170984	1.623005	-3.154809
N	-1.70412	-1.037438	-1.480158
H	-2.470179	-0.503743	-1.042336
H	-1.973555	-1.230307	-2.436608
Cl	-4.26053	0.0	0.0
