16

C	0.0	0.0	0.0
C	-0.421558	-0.415208	-1.442553
Cl	1.789981	0.0	0.0
H	0.320327	-1.15813	-1.756811
C	-0.419641	1.363575	0.332018
N	-0.703616	2.462312	0.6377
C	-0.523096	-0.983066	1.036792
H	-0.113886	-0.726868	2.016107
H	-1.6141	-0.926934	1.06155
H	-0.22399	-1.995875	0.76304
C	-0.258831	0.738135	-2.36338
N	-0.200456	1.610611	-3.149201
N	-1.711988	-1.051833	-1.455121
H	-2.473549	-0.507766	-1.023301
H	-1.988556	-1.2606	-2.405992
Cl	-4.285012	0.0	0.0
