16

C	0.0	0.0	0.0
C	-0.284874	-0.304077	-1.509754
Cl	1.800045	0.0	0.0
H	0.368456	0.399602	-2.042842
C	-0.393697	1.371031	0.323874
N	-0.598853	2.494194	0.601002
C	-0.535506	-1.018125	0.976701
H	-0.206111	-0.767033	1.987059
H	-1.627234	-0.982948	0.918658
H	-0.165289	-2.001629	0.69213
C	-1.604109	-0.043388	-2.1132
N	-2.336265	0.106146	-3.022638
N	0.097048	-1.691556	-1.792837
H	1.033039	-1.717254	-2.172031
H	-0.541782	-2.093399	-2.46717
Cl	-3.620165	0.0	0.0
