16

C	0.0	0.0	0.0
C	-0.604319	0.384511	-1.364899
Cl	1.783422	0.0	0.0
H	-1.670323	0.110656	-1.265758
C	-0.396342	1.009817	0.988965
N	-0.633667	1.829513	1.796515
C	-0.478716	-1.384788	0.422063
H	-0.137871	-2.120458	-0.310489
H	-1.570218	-1.37029	0.470011
H	-0.061753	-1.63943	1.397667
C	-0.005287	-0.422973	-2.426636
N	0.444701	-1.067959	-3.298588
N	-0.417164	1.811193	-1.638872
H	-0.586661	1.978123	-2.624801
H	-1.155004	2.295186	-1.133639
Cl	-3.655616	0.0	0.0
