16

C	0.0	0.0	0.0
C	-0.386179	-0.284159	-1.499635
Cl	1.791461	0.0	0.0
H	0.214055	-1.16419	-1.764669
C	-0.431051	1.334368	0.411706
N	-0.718023	2.431512	0.720712
C	-0.564319	-1.070676	0.915464
H	-1.657196	-0.998798	0.906359
H	-0.20375	-0.924014	1.934678
H	-0.248066	-2.05662	0.564041
C	0.103627	0.82419	-2.341421
N	0.489612	1.69271	-3.030457
N	-1.75388	-0.562677	-1.809698
H	-2.423435	0.093701	-1.403473
H	-2.030695	-1.463145	-1.440959
Cl	-4.230172	0.0	0.0
