16

C	-0.444854	0.028294	-1.460385
C	0.0	0.0	0.0
Br	0.194176	-1.759865	-2.282992
H	1.090683	0.0	0.0
C	-1.899663	-0.062083	-1.605317
N	-3.072922	-0.104048	-1.687164
N	0.088954	1.138263	-2.130259
H	-0.036729	1.074828	-3.131937
H	1.072612	1.240459	-1.884319
N	-0.512267	-1.111123	0.7183
H	-1.366883	-0.861432	1.198786
H	0.187733	-1.394438	1.394017
N	-0.387243	1.317044	0.631573
O	-1.302565	1.315395	1.466657
O	0.269688	2.309449	0.325759
H	2.636703	0.0	0.0
