16

C	-0.608995	-0.05246	-1.416439
C	0.0	0.0	0.0
Br	-0.130958	1.484819	-2.538384
H	1.092113	0.0	0.0
C	-0.046256	-1.232991	-2.085228
N	0.325343	-2.199806	-2.638366
N	-2.058174	-0.177775	-1.445007
H	-2.456385	0.644975	-1.003844
H	-2.275346	-0.981422	-0.860788
N	-0.430363	-1.204682	0.66627
H	0.39725	-1.599921	1.105512
H	-1.10742	-0.971747	1.38228
N	-0.460531	1.213692	0.706953
O	0.070576	2.282982	0.397964
O	-1.328087	1.099822	1.593825
H	2.590659	0.0	0.0
