16

C	-0.4945	-0.051049	-1.436985
C	0.0	0.0	0.0
Br	0.388429	1.430184	-2.531781
H	1.090274	0.0	0.0
C	0.025021	-1.269638	-2.068282
N	0.32915	-2.26177	-2.619247
N	-1.912514	-0.04449	-1.552215
H	-2.197141	-0.106896	-2.522731
H	-2.248148	0.82289	-1.14696
N	-0.33209	-1.180013	0.738332
H	-1.098705	-1.695827	0.329015
H	0.502888	-1.753491	0.816329
N	-0.466515	1.192242	0.720684
O	-0.055886	1.317005	1.875296
O	-1.168559	2.045494	0.13782
H	2.497574	0.0	0.0
