16

C	-0.410833	-0.022597	-1.458832
C	0.0	0.0	0.0
Br	-2.443622	-0.075976	-1.556777
H	1.093384	0.0	0.0
C	-0.015221	1.139678	-2.25193
N	0.349264	1.971843	-2.997703
N	0.092924	-1.203261	-2.106604
H	-0.017952	-1.945165	-1.418864
H	1.096338	-1.057093	-2.219384
N	-0.348038	-1.223349	0.647876
H	0.396667	-1.437163	1.306725
H	-1.219864	-1.130554	1.156474
N	-0.432184	1.201975	0.726033
O	-0.383002	2.27994	0.125517
O	-0.709506	1.082335	1.926563
H	2.516283	0.0	0.0
