16

C	-0.428745	-0.024624	-1.45762
C	0.0	0.0	0.0
Br	-2.462247	-0.010082	-1.516398
H	1.093036	0.0	0.0
C	-0.010488	1.119796	-2.267629
N	0.315957	1.944802	-3.038537
N	0.020669	-1.225514	-2.0994
H	1.005974	-1.091849	-2.316907
H	-0.038721	-1.949061	-1.385697
N	-0.359479	-1.212982	0.658596
H	0.386119	-1.436185	1.309341
H	-1.22208	-1.105224	1.17427
N	-0.437075	1.212335	0.712008
O	-0.324797	2.2878	0.117792
O	-0.81191	1.100132	1.886856
H	2.531341	0.0	0.0
