13

C	-0.29348	-0.056071	-1.51026
C	0.0	0.0	0.0
Cl	-0.081371	1.595753	-2.202784
H	1.093927	0.0	0.0
H	-0.301339	-0.962505	0.430104
N	0.63562	-0.941521	-2.177502
H	0.412742	-1.893957	-1.901959
H	1.561845	-0.726932	-1.7781
C	-1.675928	-0.466148	-1.801686
N	-2.776033	-0.837748	-1.984659
C	-0.622422	1.078059	0.736546
N	-1.119298	1.942219	1.359695
H	2.73812	0.0	0.0
