13

C	-0.227459	0.083675	-1.511249
C	0.0	0.0	0.0
Cl	-1.968214	0.425883	-1.935056
H	1.095061	0.0	0.0
H	-0.399872	-0.910078	0.451745
N	0.607136	1.082101	-2.139491
H	0.331353	1.986524	-1.765112
H	1.554923	0.894002	-1.775054
C	0.074917	-1.231122	-2.099373
N	0.296722	-2.289953	-2.556852
C	-0.479135	1.185278	0.679788
N	-0.856103	2.155222	1.226783
H	2.691092	0.0	0.0
