13

C	-0.549865	-0.052992	-1.428698
C	0.0	0.0	0.0
Cl	-0.023616	-1.620415	-2.134996
H	1.092977	0.0	0.0
H	-0.326633	-0.901482	0.529879
N	-1.998595	0.01309	-1.57715
H	-2.304035	0.91282	-1.216294
H	-2.399322	-0.706538	-0.983367
C	0.016764	1.031191	-2.246027
N	0.391953	1.926413	-2.906911
C	-0.524229	1.174412	0.674439
N	-0.962818	2.136773	1.189677
H	2.696403	0.0	0.0
