13

C	-0.290421	-0.267941	-1.478768
C	0.0	0.0	0.0
Cl	-0.139726	1.344001	-2.405878
H	1.092347	0.0	0.0
H	-0.304879	-0.887969	0.561136
N	0.644707	-1.242282	-1.884858
H	0.648786	-1.376829	-2.887215
H	1.574935	-0.970926	-1.533336
C	-1.669403	-0.699228	-1.747432
N	-2.76737	-1.080785	-1.918101
C	-0.614609	1.177305	0.568202
N	-1.094003	2.122152	1.073756
H	2.734016	0.0	0.0
