13

C	-0.287431	0.12729	-1.507948
C	0.0	0.0	0.0
Cl	0.013596	1.856867	-1.943966
H	1.092633	0.0	0.0
H	-0.405809	0.825767	0.586333
N	0.595774	-0.695075	-2.299333
H	1.531611	-0.574868	-1.888147
H	0.328347	-1.665939	-2.163249
C	-1.689116	-0.150855	-1.855403
N	-2.810837	-0.405597	-2.09658
C	-0.471149	-1.279475	0.495665
N	-0.825025	-2.333054	0.879954
H	2.732693	0.0	0.0
