15

C	0.0	0.0	0.0
C	-0.400207	0.060604	-1.465331
Cl	1.731479	0.0	0.0
H	0.023227	-0.805287	-1.968614
H	-1.493781	0.037996	-1.525614
N	-0.398803	1.262248	0.808877
O	-1.491785	1.752208	0.545332
O	0.366701	1.651029	1.687164
N	-0.820921	-1.134693	0.607902
O	-0.788577	-1.163044	1.863944
O	-0.777659	-2.169154	-0.125443
N	0.064955	1.260263	-2.211536
O	0.189859	1.109277	-3.428614
O	0.234742	2.321806	-1.616702
H	-2.281917	0.0	0.0
