17

C	-0.198944	0.02868	-1.518367
C	0.0	0.0	0.0
Cl	-1.943777	0.284201	-2.004243
H	1.098199	0.0	0.0
C	0.680219	1.11751	-2.121052
H	0.674898	1.074255	-3.211654
H	1.679343	0.936481	-1.701676
H	0.317014	2.094493	-1.794841
C	0.176393	-1.273401	-2.078086
N	0.459549	-2.31643	-2.53959
C	-0.567626	-1.219649	0.709929
H	-0.373711	-1.13804	1.781656
H	-0.061491	-2.11727	0.34851
H	-1.646461	-1.326514	0.556166
C	-0.476781	1.239735	0.584284
N	-0.859216	2.230337	1.090861
F	2.581103	0.0	0.0
