17

C	-0.200131	0.034486	-1.518073
C	0.0	0.0	0.0
Cl	-1.945656	0.29056	-2.00193
H	1.098171	0.0	0.0
C	0.677565	1.126191	-2.117092
H	0.671617	1.086991	-3.20791
H	0.313263	2.10118	-1.786691
H	1.676766	0.945254	-1.698735
C	0.174746	-1.265742	-2.081627
N	0.455228	-2.311352	-2.538029
C	-0.56602	-1.22358	0.704713
H	-0.372829	-1.145187	1.776804
H	-0.057244	-2.118402	0.340619
H	-1.644658	-1.332475	0.549873
C	-0.476882	1.237006	0.589915
N	-0.858636	2.22542	1.101335
F	2.58051	0.0	0.0
