17

C	-0.454184	0.011445	-1.468834
C	0.0	0.0	0.0
Cl	0.293836	-1.393181	-2.326947
H	1.095838	0.0	0.0
C	-1.963891	-0.076242	-1.67131
H	-2.33452	-1.011196	-1.249359
H	-2.212035	-0.048192	-2.733841
H	-2.445606	0.764927	-1.166243
C	0.047602	1.218547	-2.135573
N	0.361114	2.198542	-2.703566
C	-0.414618	-1.244141	0.784335
H	0.061524	-1.18378	1.764859
H	-0.018024	-2.130362	0.286933
H	-1.495575	-1.35397	0.925622
C	-0.512529	1.195547	0.640561
N	-0.95266	2.151274	1.169092
F	2.525448	0.0	0.0
