17

C	-0.443217	-0.003268	-1.471786
C	0.0	0.0	0.0
Cl	0.285198	-1.432383	-2.306189
H	1.095884	0.0	0.0
C	-1.953088	-0.068266	-1.684282
H	-2.192347	-0.055649	-2.749344
H	-2.343377	-0.988806	-1.247978
H	-2.423878	0.790327	-1.19862
C	0.087077	1.186065	-2.148805
N	0.431671	2.152071	-2.722733
C	-0.428978	-1.230899	0.795823
H	-0.051547	-2.129088	0.304947
H	0.051372	-1.171416	1.774336
H	-1.511233	-1.319142	0.941233
C	-0.506136	1.206962	0.623664
N	-0.941755	2.171801	1.139082
F	2.526588	0.0	0.0
