17

C	-0.26243	-0.069649	-1.5194
C	0.0	0.0	0.0
Cl	0.097224	1.543248	-2.246193
H	1.096509	0.0	0.0
C	0.711918	-1.075447	-2.133393
H	1.688733	-0.849181	-1.685063
H	0.72569	-0.983998	-3.220605
H	0.411669	-2.092383	-1.870445
C	-1.659129	-0.370818	-1.844296
N	-2.777633	-0.650846	-2.081459
C	-0.428379	-1.285475	0.71508
H	-1.479522	-1.545268	0.549664
H	-0.268306	-1.158926	1.787237
H	0.211807	-2.10759	0.391578
C	-0.612465	1.15671	0.621626
N	-1.120594	2.058124	1.181197
F	2.597469	0.0	0.0
