17

C	-0.450952	0.005369	-1.469772
C	0.0	0.0	0.0
Cl	0.293831	-1.403516	-2.321076
H	1.095851	0.0	0.0
C	-1.960919	-0.079689	-1.67375
H	-2.207765	-0.054126	-2.737078
H	-2.334796	-1.012576	-1.249741
H	-2.44157	0.764071	-1.171748
C	0.05343	1.209735	-2.139303
N	0.365919	2.187201	-2.711238
C	-0.416243	-1.241053	0.787295
H	0.052999	-1.176725	1.771184
H	-0.014432	-2.128557	0.297078
H	-1.497884	-1.351607	0.921695
C	-0.512109	1.198904	0.635077
N	-0.95202	2.157343	1.159258
F	2.523985	0.0	0.0
