16

C	-0.608051	-0.027639	-1.392719
C	0.0	0.0	0.0
Br	0.215688	1.369473	-2.475354
H	1.092602	0.0	0.0
H	-0.319216	0.952654	0.435941
N	-0.280509	-1.343948	-2.090154
O	0.586082	-2.053289	-1.59244
O	-0.914505	-1.606857	-3.110917
C	-2.112062	0.141783	-1.398669
H	-2.359068	1.102764	-0.944132
H	-2.504713	0.109742	-2.412679
H	-2.544055	-0.660905	-0.798471
N	-0.57048	-1.108257	0.783271
H	0.105518	-1.863171	0.75571
H	-0.637597	-0.813765	1.749709
Cl	3.533041	0.0	0.0
