16

C	-0.389214	0.007452	-1.480725
C	0.0	0.0	0.0
Br	0.04536	-1.731668	-2.261457
H	1.093639	0.0	0.0
H	-0.367404	-0.912005	0.469831
N	-1.905349	0.118804	-1.618234
O	-2.590353	-0.459667	-0.778328
O	-2.357322	0.776479	-2.553831
C	0.296243	1.101502	-2.264811
H	0.066044	1.042987	-3.32677
H	1.372125	0.999349	-2.09766
H	-0.035768	2.07489	-1.893625
N	-0.467024	1.157036	0.745094
H	0.048811	1.990253	0.495911
H	-1.464521	1.307599	0.649783
Cl	3.499211	0.0	0.0
