16

C	-0.549083	-0.013933	-1.429782
C	0.0	0.0	0.0
Br	0.300125	1.423625	-2.439012
H	1.089209	0.0	0.0
H	-0.316301	0.960273	0.423188
N	-0.175606	-1.305395	-2.151228
O	-0.810607	-1.577047	-3.170784
O	0.721969	-1.989016	-1.673238
C	-2.053794	0.149403	-1.520687
H	-2.340664	1.060873	-0.993826
H	-2.550755	-0.706924	-1.055745
H	-2.379634	0.209442	-2.55647
N	-0.463898	-1.083261	0.849803
H	0.070958	-1.916231	0.64669
H	-1.450985	-1.276	0.745658
Cl	3.552592	0.0	0.0
