15
Coordinates from ORCA-job run
  C   0.69984185850527      0.30913935910831     -0.52182299786183
  C   -0.76168949539589     -0.04760597737212     -0.19504536288943
  F   0.90969775255349     -0.28359308722734     -1.78120837587211
  H   -1.45043908468460      0.45871934601728     -0.86817492651415
  C   0.82095075306988      1.76311689508537     -0.72963807920519
  N   0.95027911414971      2.91169958260001     -0.93583730894127
  N   1.58187419982044     -0.10171367254024      0.48169607591103
  H   2.52460700540073      0.23083412217988      0.33309239301209
  H   1.54916426273226     -1.10180589464809      0.62966503370823
  N   -1.09068965805038      0.37751147412015      1.20970540327729
  O   -1.24212364422504      1.58461727277931      1.34310111653146
  O   -1.15444298396680     -0.48876720927166      2.06960490849556
  N   -1.03257656854373     -1.51386032587993     -0.32118737505688
  O   -0.14418909120886     -2.29772532911738     -0.00533202563904
  O   -2.16126442015647     -1.79956655583355     -0.70661847895576
