15
Coordinates from ORCA-job run
  C   0.68071768276877      0.32654020511353     -0.53498813980626
  C   -0.76698031160668     -0.05119802539241     -0.17220212701381
  F   0.85764983924526     -0.23890893971366     -1.81236491183011
  H   -1.48027087080727      0.46359983746456     -0.81258339863569
  C   0.78307122537300      1.78540457971970     -0.71767576371193
  N   0.89525731439730      2.93921981238806     -0.90408059474230
  N   1.59609535710173     -0.09607658376709      0.43295564722535
  H   2.53114244940974      0.24782940641873      0.26316408096017
  H   1.57609276622749     -1.09907131473330      0.56236530546304
  N   -1.05719330440773      0.34083092723987      1.25004754485606
  O   -1.08446044194561     -0.54308409066976      2.09365403791433
  O   -1.21703674958002      1.54320678554380      1.41285626201096
  N   -1.02784968240886     -1.51669632702746     -0.32431941336987
  O   -0.12483195173954     -2.29859070117151     -0.04732642612249
  O   -2.16240332202759     -1.80500557141306     -0.69050210319745
