15
Coordinates from ORCA-job run
  C   0.77428047313072      0.17487372475687     -0.53330153075029
  C   -0.74152472252252      0.00289698675168     -0.33653708902649
  F   1.03713531220921     -0.19798741995317     -1.83298777689032
  H   -1.28172029345265      0.40906649931008     -1.19002427129565
  C   1.09828491337140      1.62266645405956     -0.44433262500431
  N   1.38607124157464      2.75901648593100     -0.35895821628452
  N   1.50884413034327     -0.68775817795599      0.31942309448814
  H   2.50293258364317     -0.58453885039678      0.15433231066413
  H   1.29712260521433     -0.50373838116769      1.29247628793201
  N   -1.25577838275421      0.66531657764177      0.89802430370695
  O   -2.43729019436092      0.99053480082481      0.86703233323037
  O   -0.47870729646807      0.79340686790337      1.84103296443038
  N   -1.06891849770206     -1.46502642542575     -0.24101260752552
  O   -1.13962861228314     -2.04234464088039     -1.31590078716384
  O   -1.19910325994318     -1.93638450139937      0.87973360948895
