15
Coordinates from ORCA-job run
  C   0.71069091440539      0.17236288676656     -0.61588724789098
  C   -0.77144729098644     -0.02721254179221     -0.25658864158886
  F   0.84962675003463     -0.25035823129915     -1.91956838962184
  H   -1.40851079674346      0.33213938818417     -1.06310245313965
  C   1.00075302275293      1.63003822876283     -0.62006031947367
  N   1.26053838078348      2.77623553929675     -0.61238888376372
  N   1.55233786562331     -0.63554289415930      0.19031589793047
  H   1.44379646216135     -0.40769999051384      1.17103279387661
  H   2.52002840111015     -0.52418384073292     -0.08774518674160
  N   -1.17481505185081      0.66773112159856      1.00088382081414
  O   -2.36647502997224      0.94101634452797      1.08999042413568
  O   -0.30499759464441      0.87074811129582      1.84438620977152
  N   -1.04734310228710     -1.49804411797919     -0.07532671177552
  O   -1.20832936044480     -2.11885003099399     -1.11564813093265
  O   -1.05585356994198     -1.92737997296205      1.06970681840006
