15
Coordinates from ORCA-job run
  C   0.70760975461385      0.29833090299777     -0.51605363179779
  C   -0.75964218993031     -0.04811184396522     -0.20403167917063
  F   0.93308383838447     -0.31657296791330     -1.76246615459950
  H   -1.43750283024569      0.45130304355761     -0.89333399880491
  C   0.83861506037551      1.74774014804908     -0.74843134651602
  N   0.97729394821949      2.89098715251390     -0.97697010350309
  N   1.57375954687987     -0.09919674144213      0.50651019349673
  H   2.51918616283807      0.22961376423394      0.36781824525401
  H   1.53714990789571     -1.09710197594612      0.66758502371976
  N   -1.10565886114246      0.40033202163182      1.18921648142724
  O   -1.23836127952630      1.61128093773959      1.30458861248425
  O   -1.20056604675871     -0.45357058993643      2.05858372158016
  N   -1.03420280648061     -1.51510031921418     -0.31183755827301
  O   -0.15173521910102     -2.29682835757177      0.02531744041003
  O   -2.15902898602187     -1.80310517473456     -0.70649524570723
