15
Coordinates from ORCA-job run
  C   0.80640154673127      0.03894892305730     -0.31901149972810
  C   -0.66309420216705      0.05625356075792      0.12509239078652
  F   1.16719699760546     -1.22164152771679     -0.70489451127542
  H   -1.01520666064545      1.07154439652353      0.31340071752859
  C   0.97411215792858      0.94422033900109     -1.48250226557542
  N   1.16150590047954      1.75204675701730     -2.31516234687993
  N   1.61027965108693      0.38021878903135      0.81188742337430
  H   2.58865748724588      0.40214588443922      0.54947416924955
  H   1.35040342577071      1.26751779345841      1.22529771180068
  N   -0.79741887862569     -0.70652272706365      1.40746545066181
  O   -0.89526559045811     -0.02069209837258      2.41874749854268
  O   -0.76166225283948     -1.92543015904186      1.32427277811115
  N   -1.60401875770480     -0.54981832206725     -0.87988650731284
  O   -1.19438830391129     -0.70709300691389     -2.02240498905705
  O   -2.72650252049649     -0.78169860211009     -0.45077602022652
