15
Coordinates from ORCA-job run
  C   0.83421073519180     -0.06091143907184     -0.35681915009868
  C   -0.50422072342761     -0.56893884407424      0.19786198334814
  F   1.11325503413088     -0.89577242280340     -1.41938590801415
  H   -0.34106558457443     -1.53443821070612      0.67693374769999
  C   0.75220914611808      1.31617579042584     -0.89508878769554
  N   0.80124806467505      2.42498737673453     -1.28092287814987
  N   1.85939851904553     -0.26239204709128      0.61819010950408
  H   2.76117886741185     -0.06937739338910      0.19535943332629
  H   1.72050333607870      0.36491287800666      1.40151133599417
  N   -1.48974649450470     -0.75794927189954     -0.90921054859506
  O   -1.86942383329039     -1.90493948412035     -1.11115424575243
  O   -1.81388711004097      0.25908515297066     -1.51200100805294
  N   -1.12724056762353      0.35330162739329      1.20688517310209
  O   -2.32612764822719      0.21325243829691      1.39712388840935
  O   -0.37029174096306      1.12400384932798      1.78971685497457
