15
Coordinates from ORCA-job run
  C   0.87425442915762     -0.02845971042431     -0.27670104400483
  C   -0.59728587688726      0.10681711320382      0.18938486161590
  F   1.07672388188661     -1.37589949075334     -0.49469463263400
  H   -0.78980255005341      1.09429094769608      0.60575798258795
  C   1.03393502377570      0.71104669634232     -1.54285040580664
  N   1.17688667003352      1.37017683808579     -2.50379641441158
  N   1.82603712472624      0.44771623285869      0.65192192504208
  H   1.57249742322926      0.28394053626017      1.61558779360482
  H   2.15334725062979      1.38525562841551      0.48172699822651
  N   -0.85171141826536     -0.90164425051979      1.28009573555869
  O   -1.56296461871167     -1.86026176393342      1.02831804091731
  O   -0.27932140159739     -0.65576489123588      2.33800029943285
  N   -1.61902563163205     -0.13247507900536     -0.87827663739187
  O   -2.71474920453340      0.37225899942419     -0.65180413633805
  O   -1.29682110175821     -0.81699780641449     -1.84167036639916
