15
Coordinates from ORCA-job run
  C   0.66380472810152      0.24857080120519     -0.64107871072771
  C   -0.78581077741202     -0.03272799493638     -0.20988303637078
  F   0.73080510359939     -0.05683401634617     -1.98276644385885
  H   -1.48357609787818      0.36986869504642     -0.94226810493692
  C   0.91042334682235      1.71050084798913     -0.53648944037505
  N   1.13683019055723      2.86019274537685     -0.44565922387659
  N   1.57914497749726     -0.59520927855863      0.03820371707947
  H   1.52749484077506     -0.45574716400484      1.03987931650976
  H   2.52294954863781     -0.42663768405012     -0.28864897712759
  N   -1.12805070455041      0.54024103115631      1.12463287242650
  O   -2.31907599404520      0.76264924456269      1.31045967093938
  O   -0.21197163791847      0.70247008513271      1.92705499994648
  N   -1.00442770509883     -1.52220419003820     -0.13885735197987
  O   -1.21411863370317     -2.05875885120958     -1.21674260239841
  O   -0.92442118538435     -2.04637427132539      0.96316331475018
