15
Coordinates from ORCA-job run
  C   0.82377657456674      0.10075194136197     -0.38344222102647
  C   -0.42594929052311     -0.60781526358024      0.14216194003477
  F   1.29779737315063     -0.74689109570591     -1.39324922184973
  H   -0.16406343543078     -1.59909584249491      0.51024041809911
  C   0.56870720255534      1.41898291951231     -0.98592819129987
  N   0.48220211152122      2.49745370468224     -1.44154566575421
  N   1.71632289323932      0.26165600497771      0.69242542491730
  H   1.99333842505113     -0.61934377570265      1.10657767849017
  H   2.52520173049814      0.81629701468316      0.44648416118468
  N   -1.50475903484952     -0.79952716166581     -0.88180788885328
  O   -2.38503610967507     -1.58017569662172     -0.53442336838639
  O   -1.43405878857785     -0.17559200002213     -1.93199273364248
  N   -1.02605665270025      0.15660045147954      1.27934829343799
  O   -1.65244461490754      1.16561663954028      0.97485300483534
  O   -0.81597838391841     -0.28891784044384      2.40029836981306
