15
Coordinates from ORCA-job run
  C   0.80559316313711      0.12348654099699     -0.29899269412392
  C   -0.66862333322313     -0.01977739354290      0.10499510996594
  F   1.32650109101457     -1.09858539280718     -0.62052242983605
  H   -1.14629986480592      0.95180777643086      0.23937977617238
  C   0.90011949950186      0.99525526992898     -1.49584647483152
  N   1.01677043790320      1.78388390664854     -2.35924856960722
  N   1.52685893703795      0.60449981022523      0.83678105250973
  H   2.50244492769836      0.73879659843666      0.59855441155615
  H   1.14659365877407      1.46713677135456      1.20693926101652
  N   -0.75089791469605     -0.74113084624974      1.41507275362588
  O   -0.56766762173003     -1.94924625628482      1.38667789396143
  O   -0.96116744040376     -0.03159490440270      2.39248578151467
  N   -1.49769922301771     -0.77527909113348     -0.89753707904094
  O   -2.59688921579553     -1.12518126588108     -0.48856724161621
  O   -1.03663710139500     -0.92607152371991     -2.02117155126682
