15
Coordinates from ORCA-job run
  C   0.69816015872435      0.32110527712416     -0.51625515089693
  C   -0.76305455135694     -0.03735896122752     -0.19027170525247
  F   0.89523933768324     -0.23428818602022     -1.79472568041286
  H   -1.45322194959257      0.49333200379938     -0.84295687009981
  C   0.82737635672592      1.77991630906517     -0.68103284114678
  N   0.96281312620234      2.93321770848585     -0.85479073567287
  N   1.58460025683952     -0.12562764420938      0.46790182036330
  H   2.52841087294389      0.20541521647738      0.32288024578332
  H   1.54673566653271     -1.12954863357340      0.58532281426925
  N   -1.08106625199718      0.34666760778625      1.22842876832746
  O   -1.22257747802074      1.55020810733288      1.39920382004285
  O   -1.14733278220565     -0.54494987989996      2.06180749193272
  N   -1.04310975942467     -1.49749012471988     -0.36031721788639
  O   -0.15802097754320     -2.29578085862588     -0.07246676401300
  O   -2.17495202551101     -1.76481794179482     -0.74972799533781
