15
Coordinates from ORCA-job run
  C   0.81416851502067     -0.09237724010468     -0.28531142314589
  C   -0.65776883513443      0.13842358971085      0.08512021830763
  F   1.06093701008019     -1.42903789632357     -0.42659618034410
  H   -0.91356568596020      1.19896041912441      0.07733139936313
  C   1.09944295535736      0.57039394229149     -1.58175514891396
  N   1.38815043144996      1.19582962903318     -2.53385608507719
  N   1.61760376509014      0.37172703150995      0.80169292288352
  H   1.44115256037935      1.34199994487805      1.03267143744809
  H   2.59962197896277      0.24951144414608      0.58381683465275
  N   -0.90016536994133     -0.36781074947295      1.47388914841132
  O   -0.95883783442668      0.49326775373346      2.34429779009797
  O   -0.98096503102232     -1.58019540629665      1.60666409115288
  N   -1.62676713832166     -0.54832816023134     -0.83790210121529
  O   -1.20386051527452     -0.94752909221199     -1.91477736213824
  O   -2.77814680625930     -0.59283520978628     -0.42528554148263
