15
Coordinates from ORCA-job run
  C   0.88838275964865     -0.01247338190706     -0.40865710718425
  C   -0.44381867231157     -0.55663027260210      0.14302076982488
  F   1.17686098263827     -0.90525764436915     -1.43040631308142
  H   -0.29348312965634     -1.56169752377876      0.53852801478439
  C   0.75485625060600      1.33135446268451     -0.99522062423089
  N   0.70977586923148      2.39384791623079     -1.49241907773180
  N   1.95860199146361     -0.02307694125712      0.51653350774851
  H   1.99581743858460     -0.87062470545308      1.06755136816961
  H   1.97743182254563      0.79956838511623      1.10123268274043
  N   -1.48790737960806     -0.65653250984792     -0.92707357629182
  O   -1.98971826243701      0.40523769366009     -1.28123419728072
  O   -1.71797158715577     -1.77906717408367     -1.35866143413279
  N   -1.02762362597163      0.28325322331266      1.23960483745931
  O   -0.43861800371883      1.30975345477070      1.56304758791438
  O   -2.06258645385902     -0.15765498247611      1.72415356129218
