15
Coordinates from ORCA-job run
  C   0.79670303582554     -0.12125104320392     -0.32202298405356
  C   -0.64060687954055      0.18031221437070      0.12563999124152
  F   0.92079873506634     -1.44122296484023     -0.65308092811941
  H   -0.80066799506017      1.24951779404167      0.27201510505262
  C   1.11174812760924      0.68937623102055     -1.52415487244013
  N   1.43329095381024      1.41476732955054     -2.39099103959277
  N   1.66133216467293      0.11664768847847      0.79097945450828
  H   1.57822103230675      1.05741294309700      1.15709309157745
  H   2.62340129694201     -0.05872071667220      0.52546602642798
  N   -0.89783962616695     -0.49291280174067      1.43865234625938
  O   -0.86258594169814      0.23976666999163      2.42071634541280
  O   -1.08578775469092     -1.70027994173334      1.40557395913429
  N   -1.68654532272431     -0.28497221241896     -0.85035670745430
  O   -2.82859865218234     -0.28530758188216     -0.41031954332939
  O   -1.32386317416966     -0.56513360805907     -1.98521024462474
