15
Coordinates from ORCA-job run
  C   0.81818785151422     -0.09044799076546     -0.27136013370971
  C   -0.66072584572172      0.13675504252604      0.07316573487599
  F   1.07290048186581     -1.42634909752234     -0.40088344708999
  H   -0.92102376362945      1.19604513238327      0.05246290256684
  C   1.12286395411659      0.56807497889539     -1.56566183590475
  N   1.41933594745742      1.19322801782299     -2.51554126463272
  N   1.60134995729907      0.38200069878844      0.82773400766685
  H   1.43386628452451      1.35964196418457      1.03365486073693
  H   2.58618740510037      0.24295775637438      0.63327389037334
  N   -0.92384630466154     -0.35947777684125      1.46166010849450
  O   -1.01047742756077      0.50836524428201      2.32293428727699
  O   -0.99277643376314     -1.57162836555222      1.60382712766112
  N   -1.61095660187553     -0.56211186993888     -0.86048160706675
  O   -2.76741993120762     -0.61752958914547     -0.46375161405407
  O   -1.16946557345821     -0.95852414549146     -1.93103301719458
