15
Coordinates from ORCA-job run
  C   0.74120499504574      0.16699688206481     -0.57921138352289
  C   -0.76349581115088      0.06531783140971     -0.27619014290497
  F   0.88458157089395     -0.13736298910132     -1.91497210153103
  H   -1.34061180987938      0.55609874858766     -1.05812587535291
  C   1.15711789430835      1.58603088754359     -0.43108127343547
  N   1.51908058067038      2.69668346307344     -0.30158715472621
  N   1.48423238143604     -0.78703756212204      0.16177316862352
  H   2.46716409147885     -0.73034275131312     -0.07652908191374
  H   1.36032012920329     -0.65024825095161      1.15755805404509
  N   -1.14518503720894      0.67067383860364      1.03353344628547
  O   -2.30973876756647      1.04332494167011      1.11962901789701
  O   -0.28842209942984      0.71316717982717      1.91287374227552
  N   -1.16929229021518     -1.38545867927449     -0.24763459978534
  O   -1.35184572627234     -1.88575787153288     -1.34764158044451
  O   -1.24711010131358     -1.92208566848465      0.84860576449048
