15
Coordinates from ORCA-job run
  C   0.85353837771428      0.05648136891242     -0.33566325963807
  C   -0.62006867029643      0.08937199777813      0.14278213375646
  F   1.07163719182269     -1.21980348059804     -0.81074446257370
  H   -0.95289748845062      1.11101243743816      0.32337890957033
  C   0.97854803561672      1.00404387312361     -1.46319459971316
  N   1.11292872789442      1.77903680073826     -2.33496211578080
  N   1.82723288909949      0.38609193979601      0.62915031374318
  H   2.06555256638823      1.36246670309495      0.69084852231693
  H   1.70591865715615     -0.07533686234553      1.51681710389265
  N   -0.87199754951146     -0.67892223040743      1.40597272098455
  O   0.01277886474499     -1.40608141790994      1.84517425943666
  O   -1.98638214015077     -0.50406612619122      1.88436971452739
  N   -1.52690653007014     -0.49996589997993     -0.90484641965462
  O   -1.80601063878580     -1.68580871593569     -0.80299037907481
  O   -1.86487229317177      0.28247961248624     -1.78609244179298
