15
Coordinates from ORCA-job run
  C   0.82215928481951      0.07182490028695     -0.27289457644121
  C   -0.68086013482026      0.13521396508398      0.04323540928978
  F   1.17519342441546     -1.25314244461124     -0.48074152387147
  H   -1.02285091088252      1.16944074860058      0.07327607620333
  C   1.09868553300448      0.82403713731129     -1.51145809670728
  N   1.36508044970082      1.46402304901249     -2.45872738375468
  N   1.52499868337345      0.68459986900330      0.78960401927905
  H   1.45841870422557      0.15382134383114      1.64990394841054
  H   2.49773466867079      0.83283161669813      0.55377536203226
  N   -0.93584857896712     -0.46143291357385      1.39292760540937
  O   -0.83766247444979     -1.68062366049534      1.47742257436087
  O   -1.17599425186095      0.33320273859742      2.29730338967878
  N   -1.54383091994904     -0.60015049529582     -0.94657529000160
  O   -2.68262399801506     -0.83346353451569     -0.56339613133331
  O   -1.06359947926533     -0.83818231993334     -2.04665538255445
