15
Coordinates from ORCA-job run
  C   0.79432034668224      0.15552989211695     -0.30606179359237
  C   -0.68132914324634      0.11682312360151      0.12744310766066
  F   1.11326155661460     -1.10099942269010     -0.81758651879158
  H   -1.08960527791183      1.12163653932675      0.22017161928838
  C   0.94532928124302      1.12425375582235     -1.40986458303509
  N   1.12802515156804      1.90641536579641     -2.26609978506636
  N   1.60130234433333      0.56870112902838      0.77346740527571
  H   2.52349783864235      0.84667664961720      0.46541083097677
  H   1.66267806598929     -0.15758529193248      1.47588120994965
  N   -0.91086271576350     -0.57414584900097      1.43334641242170
  O   -1.95093986176532     -0.25862667530518      2.00053407269492
  O   -0.09151024416868     -1.40807873107295      1.80536937648495
  N   -1.49634314087992     -0.61396209363574     -0.91033816715187
  O   -1.87742889672341     -1.74417839912760     -0.64523971509062
  O   -1.67039530461385      0.01754000745547     -1.94443347202484
