15
Coordinates from ORCA-job run
  C   0.82359269389754      0.14134992767044     -0.23133374297735
  C   -0.66398943504400      0.09711643652399      0.16550032093388
  F   1.30782093241200     -1.16436838111781     -0.14969873077126
  H   -1.03142574225188      1.08946620170336      0.42093445117086
  C   0.95896051984941      0.58679920918421     -1.63096175654146
  N   1.09702761460313      0.99162932648208     -2.72419501423680
  N   1.50649780154605      1.05389555883973      0.59818257545928
  H   2.47509052857033      1.14939343756191      0.32114125998278
  H   1.43094089726406      0.79546310550431      1.57417308559386
  N   -0.82228967377838     -0.77761427227558      1.38845185519480
  O   -0.25261963353319     -0.35457834914354      2.38817506472346
  O   -1.48147932337654     -1.79900320145829      1.28897361382613
  N   -1.55638007369821     -0.46370615800378     -0.89316197575595
  O   -2.70683795769131     -0.03598601606020     -0.87467089995767
  O   -1.08590914876899     -1.31185682541083     -1.64151010664456
