15
Coordinates from ORCA-job run
  C   0.82214280365834      0.04218751046108     -0.27160613530109
  C   -0.62686273430141      0.17422412305635      0.23391713905930
  F   1.07115347739654     -1.31894078290844     -0.44868635657057
  H   -0.79853878909396      1.15212829699098      0.68026806864575
  C   0.96008411842493      0.70136697355835     -1.58388847010814
  N   1.10968119351929      1.26582938370601     -2.60228779698769
  N   1.69863657990999      0.66674270964431      0.63885226317532
  H   2.65265735003256      0.64910177056633      0.30201456394601
  H   1.63092024587585      0.25393450342351      1.56082796564896
  N   -0.87290339183113     -0.86581242092304      1.30293952618031
  O   -1.70663158679570     -1.73017367470720      1.08948004125612
  O   -0.18572571990014     -0.72771187474193      2.30873317642518
  N   -1.65887748498076     -0.03334813623525     -0.82612516266280
  O   -1.38628939507581     -0.80058734423308     -1.74138147459215
  O   -2.71244666683858      0.56905896234203     -0.64205734811450
