15
Coordinates from ORCA-job run
  C   0.82184607906908      0.11666471371447     -0.38316812144870
  C   -0.42192760399340     -0.61406644821735      0.12607221488210
  F   1.29603617499627     -0.69794464863719     -1.41989973045064
  H   -0.15360787744578     -1.61425524079577      0.46415992775818
  C   0.55722291755186      1.45077662130839     -0.94529484258356
  N   0.46151687012084      2.54187020279294     -1.36776297642986
  N   1.71791288139390      0.25044277976049      0.69319135437947
  H   2.52283454400580      0.81682027594665      0.46165134039892
  H   2.00061028607920     -0.64036049328919      1.08160081752122
  N   -1.50323820530769     -0.78223191494928     -0.89972803766452
  O   -2.37584477900794     -1.58063939404236     -0.57402184186917
  O   -1.44098171447085     -0.12533141769745     -1.93014931978571
  N   -1.02198218963349      0.11384796947239      1.28722482831030
  O   -0.80293842332435     -0.36135973257248      2.39415056452106
  O   -1.65645896003344      1.12676672720572      1.01397382246091
