15
Coordinates from ORCA-job run
  C   0.74802277893256      0.15369493687412     -0.57489981386355
  C   -0.76019241604016      0.07612058277194     -0.28208531709757
  F   0.89671805137576     -0.15539348945445     -1.90895071235390
  H   -1.32485552986397      0.57152864679952     -1.07018164333180
  C   1.18329096528359      1.56697467205900     -0.42626639067037
  N   1.55609573606118      2.67403324971230     -0.29674554261106
  N   1.47058965086962     -0.81046642863765      0.17337187609166
  H   1.34568009892132     -0.66553408298758      1.16781074098128
  H   2.45511662431140     -0.77390077967250     -0.06222477542502
  N   -1.14074044728538      0.69308350809501      1.02231373929675
  O   -2.29653882171957      1.09436445727612      1.09656009409489
  O   -0.29277726950905      0.71377624812378      1.91110267743458
  N   -1.18831091456623     -1.36871489592155     -0.24978470324152
  O   -1.29324852660719     -1.89627826453575      0.84842310861351
  O   -1.36084998016388     -1.87328836050232     -1.34944333791787
