15
Coordinates from ORCA-job run
  C   0.81470450734720     -0.13080785138330     -0.26677185267611
  C   -0.65181634132804      0.17457504549308      0.07195534402018
  F   0.98408953585375     -1.47290038598756     -0.45896825185378
  H   -0.84353580762571      1.24833621188845      0.09739106635463
  C   1.17955840052992      0.56829721587273     -1.52349608929115
  N   1.52752045966892      1.22013574271464     -2.43726405055888
  N   1.61097498777409      0.23631486072063      0.86237416892674
  H   2.58836209945506      0.04963046571795      0.67049615456990
  H   1.49822917353164      1.20978503868912      1.11895056610193
  N   -0.96438957837618     -0.36673097220276      1.43265623035350
  O   -1.11359607822220     -1.57700424238838      1.51739168740356
  O   -1.00395126075680      0.46425003008744      2.33292001558512
  N   -1.63065328919877     -0.41751384658664     -0.90446063644717
  O   -2.79327905375474     -0.42273406189477     -0.52232024840749
  O   -1.20021775489813     -0.78463325074062     -1.98985410408099
