15
Coordinates from ORCA-job run
  C   0.81906932788296      0.06448980871034     -0.40749388760067
  C   -0.62099348085642      0.09958577940501      0.16784892341076
  F   0.97125135696328     -1.18388338909873     -0.97509757884819
  H   -0.95039790893054      1.12122473590524      0.35330521449091
  C   0.90618679610672      1.08217764729172     -1.47558180591139
  N   1.01683716191694      1.91933103450837     -2.29118711441781
  N   1.86064828496425      0.30268191074074      0.51255552431032
  H   2.12307169986827      1.26736021002328      0.63227143048825
  H   1.78899418962831     -0.22255140161698      1.36977951857244
  N   -0.77537319681189     -0.64918797375257      1.45280757647305
  O   0.04818499997198     -1.51699929844612      1.72599408609286
  O   -1.76057949680037     -0.33391184072727      2.11172019230782
  N   -1.58946232626727     -0.51089062154269     -0.81412215107847
  O   -1.85324038416016      0.20700058759886     -1.77057393132259
  O   -1.98519702347607     -1.64542718899920     -0.59222599696727
