17
Coordinates from ORCA-job run
  C   -0.42297209237275     -0.57955264772524     -0.36651583004626
  C   0.97151310150530     -0.01487704680197     -0.02789333362082
  Cl  -0.13278559659355     -2.39340283105781     -0.57135185198086
  H   1.69594499858977     -0.38347138625846     -0.75459509648325
  N   -0.90297334706193      0.02976575315813     -1.55130083478763
  H   -0.26924945003337     -0.08048782805378     -2.33354745846963
  H   -1.81460747426745     -0.32717353085888     -1.80523127278347
  C   -1.42890000977266     -0.42195047150257      0.75526223701564
  H   -2.38469151779744     -0.85145213269361      0.44832125382907
  H   -1.09558239850770     -0.94896693495643      1.64738681145491
  H   -1.57010054507320      0.63896853236503      0.96954194004606
  N   1.38198462365233     -0.32036601562092      1.29314713127068
  H   2.37376283451592     -0.16505105778038      1.41309694273365
  H   0.87545573638447      0.24513736759360      1.96273591643356
  N   0.91910548812525      1.49208719467641     -0.29727494634729
  O   0.45087855983679      2.19773773422715      0.59321547737209
  O   1.35321708887022      1.88305530128973     -1.37599708563645
