17
Coordinates from ORCA-job run
  C   -0.38285471681687     -0.58095809967722     -0.27309759003772
  C   0.93829545042728      0.08978914320563      0.13225238259384
  Cl  -0.09832246436200     -2.38176374754490      0.17054444010568
  H   1.75311088512492     -0.37374794820117     -0.43620039292521
  N   -0.58396117479807     -0.39768778380586     -1.65401319473951
  H   0.18961174014659     -0.72264016406974     -2.21990010484587
  H   -1.44796021587608     -0.81410394826051     -1.97369797060307
  C   -1.59131299118638     -0.13121109242978      0.51920996898942
  H   -1.43150518096442     -0.25542694895629      1.58732949261431
  H   -2.45898370967861     -0.72329299193125      0.21981466008787
  H   -1.77809859358818      0.92220893491717      0.31238579892826
  N   1.11019063981184      0.14086253852633      1.55086769189273
  H   0.98566590123987     -0.78613561194029      1.93797194974506
  H   2.04290793487079      0.45927384193858      1.78332767975318
  N   0.91787335036939      1.50912296880354     -0.41043847480027
  O   0.23511017227756      2.34342363393656      0.16946741155561
  O   1.59923297300237      1.70128727548920     -1.41582374831430
