17
Coordinates from ORCA-job run
  C   -0.32313218863792     -0.71149757810609     -0.25240997049466
  C   0.92348151125533      0.10934262423658      0.15508958063253
  Cl  0.11132393342864     -2.41673203728367      0.22817843561814
  H   1.78543459768491     -0.28409800158584     -0.39660208456112
  N   -0.57271891613236     -0.71209987000671     -1.65862096087792
  H   -1.12105736599457      0.09145252681671     -1.93477199727025
  H   0.27710822555162     -0.75140204140423     -2.20668459033278
  C   -1.57926542753221     -0.31492215821894      0.49685133874828
  H   -2.38753731291851     -0.97816346455834      0.18770342612993
  H   -1.84106835643015      0.71865380447488      0.26135304632121
  H   -1.43955757635296     -0.38468616386892      1.57296135718045
  N   1.07432175245416      0.22940690871758      1.56917411975309
  H   1.98693842119541      0.59820442898587      1.80589593416390
  H   0.97613999809809     -0.68109500367918      1.99907395307510
  N   0.75476652153198      1.49657188055372     -0.44528602943996
  O   1.30583454030500      1.67321799546651     -1.53288098271662
  O   0.06898764249353      2.31884614946007      0.15097542407068
