17
Coordinates from ORCA-job run
  C   -0.37831315099115     -0.67057514947955     -0.18192971929089
  C   0.94179428002985      0.03191452672753      0.16348000193499
  Cl  -0.22358612651662     -2.29582656439974      0.60450062013336
  H   1.75111333337432     -0.58831998759946     -0.24119498405789
  N   -0.39304037828634     -0.92273062973019     -1.60908097260689
  H   -0.67423287092991     -0.07123194588872     -2.08160513070420
  H   -1.07021938727929     -1.64686348130691     -1.81746393804234
  C   -1.61589899650516     -0.00420842459745      0.39553208249540
  H   -2.48822994441514     -0.62546914482169      0.18278255025816
  H   -1.75033678523616      0.97035279798443     -0.07450868486705
  H   -1.53074318610504      0.13617337873589      1.47233327125626
  N   1.04555722119253      0.37779806404547      1.55897070711959
  H   0.90885425605239     -0.45575398918769      2.11690480519324
  H   1.97576196704505      0.73366553302253      1.74375926020868
  N   1.10840450570249      1.34725045101773     -0.57305933015372
  O   2.19716094185565      1.88521411163075     -0.39946775774950
  O   0.19695432101254      1.79961045384707     -1.26095278112718
