17

C	0.0	0.0	0.0
C	-0.523725	-0.005491	-1.43766
Cl	1.801106	0.0	0.0
H	-1.60893	0.143287	-1.362793
N	-0.354314	1.38731	0.652209
O	-0.911027	2.247588	-0.009443
O	-0.065585	1.460825	1.843563
N	-0.513241	-1.057203	0.751976
H	-0.248055	-0.941543	1.72324
H	-1.53886	-1.029244	0.663062
N	-0.345503	-1.437245	-1.965836
O	0.685696	-1.665426	-2.604519
O	-1.232934	-2.250117	-1.747563
N	0.126481	0.938789	-2.27334
H	0.974179	0.533269	-2.64845
H	-0.490327	1.210846	-3.025796
Cl	-3.54826	0.0	0.0
