17

C	0.0	0.0	0.0
C	-0.504365	0.044237	-1.459146
Cl	1.758718	0.0	0.0
H	-1.599317	0.103876	-1.379077
N	-0.399669	1.374434	0.638396
O	-1.132902	2.119042	0.006913
O	0.04581	1.571443	1.760564
N	-0.535928	-0.970994	0.873899
H	-1.55952	-0.856831	0.843259
H	-0.321799	-1.89644	0.524557
N	-0.204596	-1.322603	-2.089018
O	0.583048	-1.354834	-3.03587
O	-0.759925	-2.311691	-1.617919
N	0.066701	1.098748	-2.217494
H	-0.610099	1.454979	-2.876548
H	0.887876	0.775553	-2.710552
Cl	-3.577329	0.0	0.0
