16

C	-0.549066	0.014216	-1.415688
C	0.0	0.0	0.0
F	-0.19743	1.171851	-2.054863
H	1.098327	0.0	0.0
N	0.052441	-1.131714	-2.220625
O	-0.550985	-2.197901	-2.194567
O	1.095757	-0.890937	-2.80407
C	-2.014469	-0.114815	-1.472965
N	-3.186877	-0.183248	-1.482139
N	-0.456812	-1.196994	0.656178
H	0.275666	-1.524709	1.271812
H	-1.310046	-1.023603	1.176501
N	-0.535557	1.218346	0.649399
H	-0.098082	1.218842	1.567576
H	-0.112355	2.009509	0.170225
F	2.60682	0.0	0.0
