16

C	-0.627943	-0.003147	-1.368499
C	0.0	0.0	0.0
F	-1.989825	-0.199948	-1.294334
H	1.095551	0.0	0.0
N	-0.427999	1.355066	-2.033
O	-1.410437	2.072066	-2.163344
O	0.721457	1.606252	-2.365752
C	-0.072132	-1.021192	-2.26618
N	0.30423	-1.850121	-3.006826
N	-0.359719	-1.280008	0.600048
H	0.396134	-1.539597	1.220602
H	-1.226973	-1.229762	1.120345
N	-0.394109	1.22337	0.681804
H	-1.245482	1.110306	1.223597
H	0.370707	1.477369	1.294913
F	2.577277	0.0	0.0
