16

C	-0.47706	-0.001338	-1.438795
C	0.0	0.0	0.0
F	0.202343	0.900947	-2.20224
H	1.095864	0.0	0.0
N	-0.214319	-1.358002	-2.094706
O	0.846786	-1.9003	-1.821633
O	-1.05091	-1.767835	-2.900597
C	-1.920249	0.275303	-1.559598
N	-3.056452	0.572314	-1.576168
N	-0.555425	-1.227893	0.61318
H	0.20944	-1.897774	0.64306
H	-0.778455	-1.006178	1.576989
N	-0.465917	1.230478	0.589245
H	-1.399987	1.143768	0.97739
H	0.191986	1.524261	1.299051
F	2.608	0.0	0.0
