13

C	0.0	0.0	0.0
C	-0.426093	-0.244634	-1.441902
Cl	1.774053	0.0	0.0
H	0.450849	-0.242577	-2.09603
H	-0.367238	-0.793712	0.637412
H	-0.360647	0.962558	0.33733
N	-1.230352	0.898063	-2.046117
O	-2.03138	0.68181	-2.933103
O	-0.832359	1.998794	-1.678825
N	-0.991068	-1.623288	-1.693401
O	-1.286095	-1.870229	-2.858721
O	-0.971455	-2.43192	-0.775535
Cl	-3.049214	0.0	0.0
