13

C	0.0	0.0	0.0
C	-0.570382	0.235314	-1.374244
Cl	1.769755	0.0	0.0
H	-1.652953	0.420738	-1.248706
H	-0.37572	-0.948807	0.370037
H	-0.354702	0.803641	0.640571
N	-0.443225	-0.927015	-2.301187
O	0.131365	-1.938018	-1.903598
O	-0.973763	-0.78533	-3.398271
N	0.077391	1.424334	-2.0089
O	0.815457	1.266936	-2.97561
O	-0.162615	2.489991	-1.449546
Cl	-3.362225	0.0	0.0
