13

C	0.0	0.0	0.0
C	-0.571057	-0.008846	-1.3933
Cl	1.769754	0.0	0.0
H	-1.654682	-0.208192	-1.295547
H	-0.356302	-0.896807	0.501164
H	-0.377571	0.875478	0.519178
N	0.069821	-1.083407	-2.211446
O	-0.169973	-2.223261	-1.825291
O	0.802144	-0.77788	-3.146157
N	-0.441532	1.286952	-2.120491
O	-0.970814	1.325559	-3.226323
O	0.132202	2.219669	-1.563737
Cl	-3.359173	0.0	0.0
