13

C	0.0	0.0	0.0
C	-0.569132	-0.067641	-1.392291
Cl	1.771073	0.0	0.0
H	-1.652839	-0.26429	-1.290552
H	-0.368888	0.900457	0.481639
H	-0.356385	-0.873354	0.540415
N	0.076304	-1.175907	-2.162699
O	-0.153197	-2.297608	-1.722191
O	0.802631	-0.909934	-3.114035
N	-0.437949	1.196128	-2.173847
O	0.140306	2.150129	-1.657442
O	-0.965651	1.187657	-3.281886
Cl	-3.364323	0.0	0.0
