17

C	0.0	0.0	0.0
C	-0.451506	0.025446	-1.508681
Br	1.969978	0.0	0.0
H	0.463291	-0.089694	-2.1001
C	-0.363394	1.225393	0.71187
N	-0.521176	2.221741	1.314546
C	-0.447771	-1.232219	0.779159
H	-0.05073	-1.186747	1.795388
H	-0.07668	-2.13383	0.288906
H	-1.541346	-1.236323	0.800399
C	-1.107153	1.335462	-1.945729
H	-2.031167	1.488757	-1.390342
H	-1.329825	1.283518	-3.014306
H	-0.412218	2.163262	-1.775071
C	-1.236363	-1.161843	-1.863022
N	-1.683972	-2.163227	-2.283197
Cl	-3.515642	0.0	0.0
