17

C	0.0	0.0	0.0
C	-0.425267	0.159892	-1.51494
Br	1.959225	0.0	0.0
H	0.494774	0.332537	-2.077553
C	-0.363972	1.18711	0.774466
N	-0.602343	2.117669	1.450948
C	-0.53922	-1.245838	0.685976
H	-0.205157	-1.271179	1.724906
H	-0.190531	-2.140956	0.169782
H	-1.633453	-1.188353	0.643799
C	-1.348618	1.345331	-1.815613
H	-0.828984	2.275116	-1.572141
H	-2.279468	1.266253	-1.252761
H	-1.574801	1.346805	-2.885567
C	-0.937178	-1.105444	-2.045715
N	-1.238997	-2.122506	-2.549482
Cl	-3.825802	0.0	0.0
