18

C	-0.408025	0.005818	-1.476724
C	0.0	0.0	0.0
Cl	0.384119	1.305061	-2.371698
H	1.096355	0.0	0.0
C	-0.125271	-1.258766	-2.151876
N	0.097924	-2.274297	-2.699505
N	-1.937108	0.210724	-1.552108
O	-2.365776	1.352555	-1.628478
O	-2.610339	-0.809746	-1.430062
C	-0.453346	-1.265802	0.721488
H	-1.541537	-1.334797	0.807822
H	-0.024046	-1.24511	1.725882
H	-0.080773	-2.165844	0.229133
C	-0.468271	1.253642	0.730295
H	-0.2061	2.163187	0.189318
H	0.041676	1.285939	1.695556
H	-1.548743	1.249778	0.908628
Br	3.495157	0.0	0.0
