18

C	-0.49578	-0.028374	-1.446989
C	0.0	0.0	0.0
Cl	0.304408	-1.289433	-2.39429
H	1.09537	0.0	0.0
C	-1.943885	-0.229207	-1.526796
N	-3.098493	-0.449827	-1.53314
N	-0.194209	1.332388	-2.103956
O	-1.120233	2.140692	-2.085946
O	0.936613	1.521358	-2.512728
C	-0.45437	-1.258993	0.734922
H	-0.142468	-2.1639	0.211375
H	0.026819	-1.270206	1.715405
H	-1.540182	-1.282929	0.876434
C	-0.475335	1.257177	0.72407
H	-0.143269	1.190616	1.762471
H	-0.028798	2.15985	0.304177
H	-1.56538	1.361462	0.712389
Br	3.540979	0.0	0.0
