18

C	-0.404935	0.010535	-1.467038
C	0.0	0.0	0.0
Cl	-2.198369	0.11972	-1.671294
H	1.096316	0.0	0.0
C	0.186666	1.111562	-2.22507
N	0.657764	2.01979	-2.80628
N	0.068393	-1.324045	-2.093077
O	-0.741682	-2.25193	-2.163269
O	1.263078	-1.303857	-2.473504
C	-0.481814	-1.255761	0.714555
H	-0.019332	-2.154429	0.303173
H	-0.180258	-1.190232	1.762162
H	-1.569672	-1.364304	0.667488
C	-0.465408	1.275483	0.690162
H	-1.555207	1.315195	0.778968
H	-0.11804	2.166352	0.162178
H	-0.029033	1.300602	1.691198
Br	3.340844	0.0	0.0
