18

C	-0.496175	-0.039625	-1.446273
C	0.0	0.0	0.0
Cl	0.312729	-1.299852	-2.387721
H	1.095419	0.0	0.0
C	-1.942246	-0.251838	-1.522862
N	-3.095849	-0.475852	-1.517611
N	-0.203504	1.31892	-2.107398
O	-1.141387	2.11382	-2.117267
O	0.935103	1.521335	-2.489246
C	-0.452017	-1.253339	0.746115
H	0.039184	-1.261204	1.721294
H	-1.536199	-1.273073	0.897923
H	-0.148288	-2.162012	0.224115
C	-0.47624	1.263007	0.712968
H	-0.030561	2.161916	0.283862
H	-1.566342	1.366142	0.701407
H	-0.142848	1.20707	1.751473
Br	3.54118	0.0	0.0
