18

C	-0.360333	-0.001624	-1.465236
C	0.0	0.0	0.0
Cl	0.440387	1.305758	-2.371613
H	1.096404	0.0	0.0
C	-0.043809	-1.268748	-2.129788
N	0.257865	-2.2804	-2.647542
N	-1.887739	0.216767	-1.485502
O	-2.320175	1.339505	-1.796192
O	-2.565038	-0.829978	-1.609332
C	-0.484362	-1.253911	0.709476
H	-1.579211	-1.321693	0.748868
H	-0.107195	-1.229463	1.736985
H	-0.098473	-2.164713	0.244888
C	-0.496041	1.252361	0.702871
H	-0.037007	1.292374	1.695825
H	-0.212094	2.16359	0.173065
H	-1.587022	1.254711	0.831819
Br	2.954018	0.0	0.0
