13

C	-0.534662	-0.009152	-1.424515
C	0.0	0.0	0.0
Br	0.28925	-1.458972	-2.415038
H	1.091165	0.0	0.0
H	-0.307897	-0.942599	0.464374
C	-1.983664	-0.160078	-1.490647
N	-3.149588	-0.310102	-1.48308
N	-0.186031	1.297149	-2.164514
O	0.640194	2.022513	-1.636717
O	-0.768313	1.473732	-3.228248
C	-0.562704	1.108197	0.762055
N	-1.050255	1.981045	1.378201
Br	3.420472	0.0	0.0
