13

C	-0.533925	0.00781	-1.425216
C	0.0	0.0	0.0
Br	0.294888	-1.42629	-2.435271
H	1.090995	0.0	0.0
H	-0.306071	-0.948953	0.45306
C	-1.982229	-0.148139	-1.493177
N	-3.148172	-0.301076	-1.493437
N	-0.190385	1.323862	-2.149762
O	-0.771208	1.509169	-3.213019
O	0.630351	2.048651	-1.611262
C	-0.566527	1.096878	0.775898
N	-1.064031	1.957481	1.401536
Br	3.418861	0.0	0.0
