13
Coordinates from ORCA-job run
  C   0.68430644921114      0.08547856156237     -0.45635657608484
  C   -0.37307718053121      0.09732627061408      0.41222942064505
  N   1.74758938066950      0.96571242003834     -0.43719388918850
  H   1.60391548781035      1.80601609273262      0.10577106841031
  H   2.19773117292764      1.12675948765619     -1.32464761853768
  C   0.78821889047784     -0.97197623803273     -1.42225175988119
  N   0.87390151103543     -1.82383916901829     -2.22969712474595
  C   -0.42616610410997      1.18525831213688      1.33093852490040
  N   -0.43963046201323      2.10602781308623      2.06737356256937
  C   -1.45399922471552     -0.94510818601885      0.47324200296863
  H   -1.44618520846620     -1.45148544867512      1.44216228241404
  H   -1.31948371939727     -1.69513203291530     -0.30726046978660
  H   -2.43712099289849     -0.48503788316642      0.34569057631697
