13
Coordinates from ORCA-job run
  C   0.67284905691028      0.14999160118566     -0.45526262220982
  C   -0.35862313708453      0.02903757519075      0.43559576611910
  N   1.83316709622045      0.86811304993392     -0.24539944679158
  H   2.64504725861170      0.54323090566673     -0.74681045857757
  H   2.01974422599592      1.11707046357638      0.71621470228301
  C   0.54189801350254     -0.42044861474680     -1.76670467413994
  N   0.45991044610097     -0.89885532657424     -2.83895766707258
  C   -0.15239385573529      0.59879735082473      1.72525755681454
  N   0.05983993362093      1.07438174479945      2.78308750391152
  C   -1.67483696640901     -0.63811157671627      0.14973275827230
  H   -2.49486740817790      0.08067072364484      0.22787295284660
  H   -1.86369143279607     -1.43864136669793      0.86926695034031
  H   -1.68704323075998     -1.06523653008722     -0.85389332179589
