13
Coordinates from ORCA-job run
  C   0.52921584858452      0.21504252549502     -0.59630962773207
  C   -0.23066258489063     -0.02754091296303      0.51555994353465
  N   1.69780260965563      0.94922588466553     -0.62419049175228
  H   2.13019158424968      1.10984564399893      0.27504010375351
  H   2.35036426011437      0.70482551644444     -1.35242310019522
  C   0.06110738474591     -0.22922065333302     -1.87914911940849
  N   -0.29957010939735     -0.59507742404448     -2.93804691984233
  C   0.30198069883593      0.42336593835710      1.75782040912902
  N   0.78044241506947      0.80411998962863      2.76597670162251
  C   -1.57084801992055     -0.70791940852134      0.51500280659437
  H   -1.84091320596715     -1.04035360837360     -0.48816965435693
  H   -2.34765586314464     -0.02690586105457      0.87288263839423
  H   -1.55945501793517     -1.57740763029961      1.17700631025903
