13
Coordinates from ORCA-job run
  C   0.54558710710057      0.06501027002164     -0.61836765222311
  C   -0.28505215577838      0.13930759399788      0.46644374800764
  N   1.52783592274572      0.98049287911215     -0.93971902594761
  H   1.79651380178417      1.60614731230892     -0.19286882181709
  H   2.30720889430824      0.61794839208728     -1.46638302832656
  C   0.34983812012396     -0.97998316963389     -1.58360481544024
  N   0.21070600953921     -1.84031486458703     -2.37458306650602
  C   -0.02507791832353      1.18934565997891      1.39390055240141
  N   0.22609155459644      2.06278695321937      2.14502380913298
  C   -1.43976295054312     -0.78422156441904      0.73665812393986
  H   -1.50976042984941     -1.55799406920751     -0.02877140949981
  H   -1.32310709573916     -1.26911057958680      1.70924463891845
  H   -2.38102085996472     -0.22841481329189      0.75302694736008
