13
Coordinates from ORCA-job run
  C   0.58114645824589      0.08291978713636     -0.59886075206852
  C   -0.53172557549446      0.29755643239749      0.16422097913244
  N   1.38966354827554     -1.03018393624267     -0.46727488069541
  H   2.30017018781141     -0.96206175004806     -0.89336140600738
  H   1.40189553096050     -1.46327870366323      0.44261862856725
  C   0.91973603416022      0.97228452171527     -1.67144668498071
  N   1.23444651009813      1.67808967417883     -2.55958135696584
  C   -1.33443877102776      1.44778431546546     -0.06855185333608
  N   -2.02840242153092      2.38706349112120     -0.22686283682547
  C   -0.91023252872494     -0.66448007627497      1.25753089958820
  H   -0.91405217147437     -1.69080777142540      0.87765065119014
  H   -0.20636133459223     -0.61550553506651      2.09684663057630
  H   -1.90284546670700     -0.44138044929376      1.64707198182507
