13
Coordinates from ORCA-job run
  C   0.64203440527718      0.10625148262656     -0.50931673456861
  C   -0.38506026306555      0.12321532012536      0.39486182547718
  N   1.55985096071523      1.12021212669049     -0.69896890989918
  H   1.60800904165166      1.80357546053119      0.04395777028294
  H   2.46141336709554      0.83390536575267     -1.04712209843944
  C   0.75563541835638     -0.99484717838054     -1.42413202583534
  N   0.87144494833255     -1.90197755460001     -2.16506914967435
  C   -0.42493640492662      1.23385487073181      1.28660579636664
  N   -0.41725016709776      2.16600280526120      2.00881198412880
  C   -1.45863359516653     -0.92299071656072      0.50327511775214
  H   -2.44391360461940     -0.48164136261911      0.33076932705498
  H   -1.46321957773918     -1.36682702021180      1.50208735831928
  H   -1.30537452881349     -1.71773359934709     -0.22776026096503
