13
Coordinates from ORCA-job run
  C   0.73085422483539      0.17881983964075     -0.37548643657915
  C   -0.39575395366353      0.29438303602318      0.38852261710172
  N   1.14213091722033     -1.00895119281346     -0.95073266417816
  H   0.41306725415175     -1.67762591593430     -1.14530254718256
  H   1.81299033946346     -0.92050702951608     -1.69747701109084
  C   1.61988375272699      1.29130480755548     -0.54289214573263
  N   2.36594475915422      2.18646283850152     -0.70965715035160
  C   -0.71749598034163      1.54468612999692      0.98418723668595
  N   -1.02632372301535      2.56109579975217      1.49472148966983
  C   -1.30939979081532     -0.88333899525497      0.59755841199921
  H   -1.82878375781301     -1.15442521096208     -0.32883931501071
  H   -2.06634261142653     -0.65870824801551      1.34784112266074
  H   -0.73977143047677     -1.75419585897361      0.93755639200819
