13
Coordinates from ORCA-job run
  C   0.62618752609417      0.08516481516335     -0.53147749546543
  C   -0.37892776079296      0.13990858057957      0.39543403270184
  N   1.50257317792041      1.11093361037347     -0.82373807436625
  H   2.40548609037356      0.83011640105160     -1.17309044997922
  H   1.54157262896807      1.85389769031798     -0.13965034530300
  C   0.75876683923787     -1.08000233441429     -1.36008750008276
  N   0.89452425679152     -2.03489108045131     -2.03466315879474
  C   -0.43858886498974      1.31662901948207      1.19655889129775
  N   -0.44810792090115      2.30251590675597      1.84330459297609
  C   -1.41406227663009     -0.92778188501661      0.61187516859535
  H   -1.23820576427253     -1.78249868019247     -0.04252448796831
  H   -2.41607452175796     -0.53978880872316      0.40943407288019
  H   -1.39514341004117     -1.27620323492618      1.64762475350847
