13
Coordinates from ORCA-job run
  C   0.70264367332209      0.17133018804755     -0.44570522158933
  C   -0.38919442854601      0.29194110605921      0.36901481762836
  N   1.14876169166509     -1.01770916770718     -0.99156992056472
  H   0.46990945909659     -1.76321938533759     -1.02929226447923
  H   1.69084887101689     -0.92879856993812     -1.83690350228138
  C   1.52266346079504      1.31511943571193     -0.72295149297814
  N   2.20536376113556      2.23341005420432     -0.99887999891355
  C   -0.65551364291466      1.54657849736355      0.98659503117691
  N   -0.91146002358107      2.56203902164201      1.52662663974557
  C   -1.27214745908844     -0.87557861274597      0.71551253372555
  H   -2.25625427207586     -0.52948501305562      1.03195518129851
  H   -1.41624427200089     -1.54453499178120     -0.13984696560464
  H   -0.83737681882433     -1.46009256246288      1.53344516283611
