13
Coordinates from ORCA-job run
  C   0.38476037316813      0.24952550088837     -0.70578248693872
  C   -0.32796826371248      0.27631874305763      0.45922882350330
  N   0.75668007439857     -0.92116240599347     -1.34280843664341
  H   0.85333732615367     -1.72743579919996     -0.74430796460258
  H   1.50716172985561     -0.83044402270709     -2.00879271172788
  C   0.70896355004585      1.46167992254382     -1.40007479922748
  N   1.00827045299427      2.43096224874658     -1.99684348213807
  C   -0.71950784027673      1.52409942599548      1.01775062198343
  N   -1.06401252343046      2.53120811080995      1.52398757112166
  C   -0.70198821630505     -1.00079262378092      1.16352405219586
  H   -1.38964798243065     -0.80279248762342      1.98488746878329
  H   0.17890127964716     -1.50207033254368      1.58064756531042
  H   -1.19494996010789     -1.68909628019329      0.46858377838019
