13
Coordinates from ORCA-job run
  C   0.67324041704726      0.21697678597309     -0.45404205311173
  C   -0.45321466511035      0.30168675434031      0.31376218502821
  N   1.12159007624378     -0.96203453549445     -1.02203551691877
  H   0.86188434979356     -1.80489266047378     -0.53281263781783
  H   2.08492389369512     -0.95750326135497     -1.31938013938043
  C   1.41529887622364      1.39361143819717     -0.80167926048556
  N   2.05967660461256      2.33177321562243     -1.10305185458086
  C   -0.86818396876402      1.56428273594227      0.81907067556882
  N   -1.24957803971756      2.58516542313399      1.26742876958071
  C   -1.25588262299724     -0.92756115087943      0.64445972810537
  H   -2.19880015892441     -0.66062847032297      1.12013457669392
  H   -0.71184560847222     -1.58550687546081      1.33214734049171
  H   -1.48010915363011     -1.49536939922283     -0.26400181317357
