13
Coordinates from ORCA-job run
  C   0.74161255410468      0.18924688739886     -0.34609858912753
  C   -0.45335418917306      0.31304139711986      0.30424673604033
  N   1.30123211926700     -1.02829654774088     -0.68557410433641
  H   0.65193701838023     -1.78872049183731     -0.81533842291595
  H   2.02466154850432     -0.99411148362009     -1.38628568412871
  C   1.54704930346903      1.34146453655680     -0.62853507106974
  N   2.23365664298476      2.26280206731494     -0.88466738643918
  C   -0.93148066733225      1.60394033658192      0.65939786833880
  N   -1.36833150545288      2.65334393982018      0.97103302411979
  C   -1.27746644934372     -0.90156920483648      0.63777855711095
  H   -0.66916717029954     -1.64592783232812      1.16151044655246
  H   -2.11677681820708     -0.63704607325221      1.27972091863418
  H   -1.68457238690147     -1.36716753117747     -0.26718829277901
