13
Coordinates from ORCA-job run
  C   0.68267664837523      0.10968676394484     -0.45261600258108
  C   -0.41574242490406      0.11946835926560      0.36350560890728
  N   1.60916192998586      1.12704310571455     -0.56258075849258
  H   1.59180834539353      1.81035354596976      0.18186326473955
  H   2.53776278069919      0.84535089353116     -0.83528229980785
  C   0.87572234686293     -0.98816813180905     -1.35800894048821
  N   1.05642988172953     -1.89242307194620     -2.08922295010848
  C   -0.53477103963532      1.22734378697243      1.25165498777654
  N   -0.59269618281247      2.15670695754175      1.97508014763804
  C   -1.49271663963242     -0.92874212236297      0.37643972958239
  H   -1.60397805330629     -1.35038238116750      1.37860806602508
  H   -2.45449476988502     -0.49615584355239      0.08799376983468
  H   -1.25916282287071     -1.73908186210198     -0.31543462302536
