13
Coordinates from ORCA-job run
  C   0.57055414173350      0.06111713387142     -0.59501980939377
  C   -0.30199796455048      0.13983906494267      0.45608573952109
  N   1.57750822707324      0.96473877074575     -0.87081131276065
  H   2.37234555001986      0.59229339929144     -1.36670578444991
  H   1.82610232284568      1.57925943119150     -0.10772957507746
  C   0.40026773450612     -0.97540714443449     -1.57420209514936
  N   0.28286530119503     -1.82987294785004     -2.37502501305786
  C   -0.06396509935310      1.18046894503196      1.39998928764973
  N   0.17118035464666      2.04822613704323      2.16282458488865
  C   -1.48034275118709     -0.76755519570566      0.67231213709367
  H   -1.41368367938083     -1.25452994345920      1.64848641846438
  H   -1.52686286068036     -1.53949705132208     -0.09686111382337
  H   -2.41397127686825     -0.19908059934650      0.64665653609487
