13
Coordinates from ORCA-job run
  C   0.66483254774535      0.08141755477324     -0.48472801772575
  C   -0.41062779981841      0.14565384700078      0.35886507132555
  N   1.53955413020278      1.11633181582432     -0.74926764995536
  H   1.51131442415740      1.88427934708297     -0.09277326375675
  H   2.47293471823403      0.84131738446428     -1.01287640603568
  C   0.88535823816354     -1.11142059995531     -1.25333714299105
  N   1.08975983421653     -2.09012626377831     -1.87414406759389
  C   -0.55882152280060      1.34952985906103      1.10662628905153
  N   -0.64372952956286      2.35691079618835      1.71348158022736
  C   -1.43742899268295     -0.93753772067585      0.53487672242443
  H   -1.50216721553925     -1.23542093416035      1.58453557308011
  H   -1.18547623278097     -1.81692357336693     -0.05933078676483
  H   -2.42550259953459     -0.58501151245823      0.22707209871434
