13
Coordinates from ORCA-job run
  C   0.67983691283592      0.21435723461219     -0.44461305705699
  C   -0.46370433917935      0.30377882559062      0.29724263161827
  N   1.15601211064545     -0.97356665921975     -0.96811426771316
  H   0.89739411082935     -1.80773759703371     -0.46385771216899
  H   2.12196620338172     -0.96451855118564     -1.25542308625669
  C   1.41086734460078      1.39191599282980     -0.81177348644016
  N   2.04471481645659      2.33346623552790     -1.12436224491852
  C   -0.90774978074563      1.57387931565790      0.75675876517891
  N   -1.31106604042274      2.60414734693983      1.16296889577538
  C   -1.25377821959708     -0.92890795031548      0.64596978850413
  H   -2.20620055914846     -0.66292500039941      1.10270062740390
  H   -0.71075120539125     -1.56386619260479      1.35552779147676
  H   -1.45854135426531     -1.51902300039945     -0.25302464540285
