13
Coordinates from ORCA-job run
  C   0.64740967865452      0.19164384876340     -0.47647075717980
  C   -0.53885527143865     -0.05276391861496      0.16005924953550
  N   0.78260859417822      0.69603237907188     -1.75451989219195
  H   1.62538939274569      0.43232693160892     -2.24016695271232
  H   -0.04872678985066      0.65317537128826     -2.32744525555902
  C   1.88003433388305      0.01735634156712      0.23936890676536
  N   2.89969225776404     -0.13876173852924      0.80604593799947
  C   -1.72151804317021      0.12043195160629     -0.61563569429863
  N   -2.67580767521859      0.26521335844939     -1.29291510320897
  C   -0.68056738660078     -0.46702893262645      1.59786988558936
  H   -1.23127505289473      0.29026804489880      2.16232800141683
  H   0.29577262031100     -0.60169183101452      2.06508180436491
  H   -1.23415665836287     -1.40620180646889      1.67439986947927
