13
Coordinates from ORCA-job run
  C   0.56769271682541      0.02575075682272     -0.60094054673468
  C   -0.31019129762753      0.17360169358471      0.43817555579426
  N   1.52177876054649      0.94753464438364     -0.98254472348803
  H   1.72938483675267      1.66249409287065     -0.29894075581451
  H   2.33875930407497      0.56886298920656     -1.43557937023618
  C   0.46053359429073     -1.12476999715820     -1.45371583844842
  N   0.39811482241356     -2.07216996946075     -2.14924751975064
  C   -0.13469978200921      1.32570399837242      1.25811834668335
  N   0.04406028407856      2.28589659936328      1.91883059728469
  C   -1.43551883104498     -0.76896761369165      0.76085997752386
  H   -1.43385354914404     -1.62678776208201      0.08714425093310
  H   -2.40011027615680     -0.26220944431706      0.67067343899481
  H   -1.34595058299980     -1.13393998789431      1.78716658725840
