13
Coordinates from ORCA-job run
  C   0.72522995918412      0.18720696677733     -0.38339665184216
  C   -0.39866237714663      0.29214751133667      0.38628056129828
  N   1.14716311248984     -0.99796987878374     -0.95437546797714
  H   0.42643772577460     -1.67713044455886     -1.14279918021750
  H   1.82565158966205     -0.91235415641556     -1.69462504013314
  C   1.59726494009103      1.31156783830375     -0.55900853525182
  N   2.32778538708928      2.21902419785016     -0.72691519758398
  C   -0.73347378197471      1.54055137643439      0.97837728968266
  N   -1.05428170411327      2.55732361412621      1.48080639297207
  C   -1.29258943952460     -0.89826203240755      0.60986762325155
  H   -1.82550688256474     -1.17490364885094     -0.30691760662635
  H   -2.03998566919805     -0.68455222250088      1.37294718127155
  H   -0.70503285977036     -1.76164912131119      0.93875863115493
