13
Coordinates from ORCA-job run
  C   0.61383172001316      0.21626470551827     -0.53234069549860
  C   -0.38539029795185      0.29974378799533      0.39542181211426
  N   0.90929817728197     -0.93931093712728     -1.23110408010170
  H   0.66750171949951     -1.80378598678923     -0.77183948428212
  H   1.81486507009248     -0.96072239141616     -1.67266149892680
  C   1.36342418910188      1.37889866875552     -0.90994226247491
  N   2.00518300803323      2.30941337974908     -1.23876185736665
  C   -0.65204726019580      1.54192201224412      1.03369381565277
  N   -0.90647154262882      2.54830805627749      1.59187009236808
  C   -1.19905767199390     -0.91181374542531      0.76328986801245
  H   -2.03885563182404     -0.63592368366612      1.39978711872717
  H   -0.59554689114937     -1.64663515939501      1.30866839839780
  H   -1.59573458827846     -1.39535870672070     -0.13508122662176
