13
Coordinates from ORCA-job run
  C   0.71466125108469      0.21791366634787     -0.38614100333435
  C   -0.37782059234279      0.25211612068053      0.43324135140358
  N   1.09642543263235     -0.90433453934140     -1.09827133517531
  H   0.35326513253155     -1.54271622475725     -1.33772025746973
  H   1.73806648636478     -0.73804197356559     -1.85745553334009
  C   1.60274984912901      1.34024749526226     -0.47041635033886
  N   2.34907737633049      2.24552204824182     -0.56784772292656
  C   -0.67360139940847      1.43530959493140      1.16395953021396
  N   -0.95985118711007      2.39452015823792      1.78617188026740
  C   -1.28465429436652     -0.94248863194256      0.55884952599914
  H   -2.00363167000239     -0.80021426077233      1.36467113873641
  H   -1.85035445817261     -1.11423033023537     -0.36419006731762
  H   -0.70233192667003     -1.84360312308731      0.77614884328204
