13
Coordinates from ORCA-job run
  C   0.65107345997263      0.23920973605978     -0.48173744749405
  C   -0.42944992702916      0.23832013998611      0.35271738655766
  N   1.11101336368266     -0.85695185575889     -1.19115013841402
  H   2.04437349075946     -0.77044667661246     -1.55497077234198
  H   0.93243909786331     -1.75604696133704     -0.77530810070847
  C   1.34933094094084      1.46615259197957     -0.74859942104364
  N   1.96054708337844      2.44099592461475     -0.99452570961424
  C   -0.80567290594766      1.45244876039000      0.99559499411818
  N   -1.15081124348526      2.43706034474278      1.54086821873458
  C   -1.24798982318961     -0.98763860310655      0.65590114167818
  H   -1.08638018915187     -1.77412082385841     -0.08287232834115
  H   -2.30851939368085     -0.74104908287650      0.63537569713242
  H   -1.01995395411293     -1.38793349422316      1.64670647973653
