13
Coordinates from ORCA-job run
  C   0.69529953254911      0.22411170354659     -0.41618706823049
  C   -0.45627729398624      0.29523612575507      0.31525593670830
  N   1.33834588476216     -0.96413781913981     -0.70948150401114
  H   0.75129792787996     -1.78350914826315     -0.73795818162382
  H   2.00415877759938     -0.92249347190388     -1.46472794066702
  C   1.36789858766178      1.41632930176542     -0.84298735449660
  N   1.94306480075990      2.37268356705257     -1.21758468769046
  C   -1.02449977557339      1.56409635338898      0.61277709448437
  N   -1.53424115853657      2.59249019043563      0.88060610154220
  C   -1.13915472169335     -0.95524679581913      0.80051514823866
  H   -1.57103857190292     -1.52296059375326     -0.03180256304178
  H   -0.42698951902587     -1.60240489975534      1.32254589865292
  H   -1.94686447049396     -0.71319451330970      1.49002912013487
