13
Coordinates from ORCA-job run
  C   0.26623333782389      0.00859091909968     -0.79783725143887
  C   -0.44151155906736      0.29501730741654      0.33501516320727
  N   1.16349906390584     -1.03924404363851     -0.89026176385207
  H   1.81226081590066     -0.98862237703660     -1.65972330363843
  H   1.59261852731042     -1.32574525902510     -0.02393953430959
  C   0.03494301803524      0.73715635000317     -2.01075279260597
  N   -0.12182207352807      1.31802153954109     -3.02264323670522
  C   -1.38032636067287      1.36281023089361      0.32816994533783
  N   -2.16598531808637      2.24026164543714      0.37193597213656
  C   -0.23046856080608     -0.49717179212876      1.59734418321543
  H   -0.30520041331768     -1.57008966721388      1.39362413064944
  H   -0.97990811684211     -0.24043928241995      2.34488180850608
  H   0.75566763934452     -0.29854557092843      2.03318667949754
