13
Coordinates from ORCA-job run
  C   0.20716351241047     -0.05127177968859     -0.81063948685505
  C   -0.44701111464252      0.28655992837943      0.34008729655705
  N   1.19159725564520     -1.02103483279962     -0.87205419402991
  H   1.69404819293202     -1.19018491579596     -0.01405096263894
  H   1.79365537590428     -0.97326711156178     -1.67849460791719
  C   -0.17120247334364      0.52490862542265     -2.06762053376893
  N   -0.45518119166768      0.96768558075108     -3.12074797038086
  C   -1.47948374842946      1.26344027020043      0.29845433432572
  N   -2.33955157067242      2.06911640010844      0.29602603586579
  C   -0.07109673724978     -0.34495089475596      1.65327615517349
  H   -0.07208400437601     -1.43658902878543      1.56739080738016
  H   -0.77713248379767     -0.06643040651703      2.43453244085733
  H   0.92727898728722     -0.02798183495765      1.97584068543132
