13
Coordinates from ORCA-job run
  C   0.72506593860986      0.23102607574595     -0.35758489583770
  C   -0.43903741956573      0.27476816018778      0.35591004120084
  N   1.27514236164958     -0.93941940877581     -0.84584294643409
  H   0.62381754555346     -1.68806434069330     -1.02477191494147
  H   1.96422215144977     -0.82576684438432     -1.57218445347733
  C   1.50797231618685      1.41545519782319     -0.55808098533406
  N   2.17258470013496      2.36731807935082     -0.75294147032825
  C   -0.90768864980511      1.51695184422015      0.86464250139864
  N   -1.33883936540412      2.52288122806657      1.30222786669852
  C   -1.24058187131010     -0.97572758210894      0.59968855505115
  H   -1.68710682432301     -1.34958638412061     -0.32893837014869
  H   -2.05054395434639     -0.78651608840758      1.30289234923122
  H   -0.60500692883002     -1.76431993690390      1.01498372292124
