13
Coordinates from ORCA-job run
  C   0.70321691248337      0.22157026719895     -0.40462479370297
  C   -0.47517171154809      0.29824657874157      0.28207481156968
  N   1.39152314921631     -0.96087372438799     -0.60579460756765
  H   0.82886521467150     -1.79777924530693     -0.60882401639306
  H   2.07882251040660     -0.94131601145294     -1.34263752065231
  C   1.35531313219575      1.40790640646317     -0.87705144598991
  N   1.91479382748959      2.35916954556585     -1.28681730535981
  C   -1.09098074893424      1.56348253296607      0.48594731842856
  N   -1.64009873385432      2.58873002275191      0.67701657387827
  C   -1.13794739776278     -0.94303966124873      0.81626784526118
  H   -1.97771001879981     -0.68760131843126      1.46125362274528
  H   -1.52190407532048     -1.57131791711271      0.00418796546483
  H   -0.42672206024340     -1.53617747574694      1.40000155231791
