13
Coordinates from ORCA-job run
  C   0.70891570594102     -0.10731183553829     -0.41055864330991
  C   -0.34994093436764      0.06403619357807      0.43908468254087
  N   2.01433197170092     -0.34267168875584     -0.02779414505825
  H   2.57675783289553     -0.85563038207868     -0.68864648939666
  H   2.13755326568518     -0.63941282606103      0.93041433902611
  C   0.51126487753196      0.05586694910898     -1.82345821841800
  N   0.36182851962756      0.16581412877203     -2.98567556432010
  C   -0.08905832634811     -0.13724024465473      1.82526653874737
  N   0.16455087870486     -0.32168589951028      2.96190783654885
  C   -1.73993019072959      0.45386397028571      0.02072067562986
  H   -1.81567179045961      0.52995894071126     -1.06476546302653
  H   -2.46546708649953     -0.28598665897332      0.36798519376132
  H   -2.01513472368255      1.41939935311611      0.45351925727508
