13
Coordinates from ORCA-job run
  C   0.68307801921604      0.21111748460136     -0.44211377244292
  C   -0.37671732881960      0.28116774433995      0.41694050499359
  N   1.10907472247092     -0.96587283825198     -1.02883897621623
  H   0.40060217176124     -1.67186644221785     -1.15604203755498
  H   1.71512883573175     -0.86010153008724     -1.82683374791442
  C   1.48873200514434      1.36699498639040     -0.70806842217300
  N   2.16730765249556      2.29616530023032     -0.95732897680653
  C   -0.72173327850465      1.52616205775389      1.01043103294137
  N   -1.04786377637191      2.53659598320777      1.52211261966966
  C   -1.19585678989049     -0.94181479515488      0.73097271783559
  H   -1.89286131772097     -0.74315145467137      1.54403898646108
  H   -0.54634139478835     -1.77022241764537      1.03151530086465
  H   -1.78154952072388     -1.26417407849499     -0.13778522965786
