13
Coordinates from ORCA-job run
  C   0.66203751780088     -0.02352500486829     -0.49298974281098
  C   -0.54014137615431      0.06233163228640      0.15563791076877
  N   0.86985551514366      0.23773692625961     -1.83208093406058
  H   1.79481297031756      0.55214454245584     -2.08038247484356
  H   0.12625508953139      0.74089536151781     -2.29596793012949
  C   1.81146769163717     -0.51113340114076      0.21597529832583
  N   2.76626852064398     -0.88968156411498      0.79053951377574
  C   -1.63167623798087      0.57654143080169     -0.60181181649477
  N   -2.50611075454762      1.01350981429227     -1.26125404217272
  C   -0.78695357326304     -0.35780076223787      1.57737816220410
  H   -1.50391936757419     -1.18192412297001      1.61567129160604
  H   0.13684971626098     -0.69090947599436      2.05193461177515
  H   -1.19774571181559      0.47181462371266      2.15835015205649
