13
Coordinates from ORCA-job run
  C   0.68666011408188      0.23062524166014     -0.42761698640399
  C   -0.45676419594309      0.29165706367713      0.31755321057978
  N   1.34740791162108     -0.94963976299330     -0.71280655824241
  H   2.00116438672278     -0.90724038032254     -1.47849745366517
  H   0.77599473349367     -1.78038963616804     -0.71987310111909
  C   1.33174230290068      1.42827496088968     -0.88073038781409
  N   1.88372985252308      2.38865947768801     -1.27938147839240
  C   -1.04372426305783      1.55404652447490      0.60592380723615
  N   -1.56897202992529      2.57567522704190      0.86942719513414
  C   -1.11245727408181     -0.96388275786437      0.82711454556226
  H   -1.91756812016556     -0.72596418642567      1.52110119326480
  H   -1.54274429532260     -1.55015355131149      0.00689213803699
  H   -0.38446912284699     -1.59166822034636      1.35089387582303
