13
Coordinates from ORCA-job run
  C   0.67821015295090      0.22158238741884     -0.44568888278659
  C   -0.40209667044599      0.28657669695566      0.38790700863610
  N   0.96553647177619     -0.87632281763215     -1.23507790076660
  H   1.90834112319793     -0.92271032309641     -1.58807582324136
  H   0.62122885558401     -1.76124295373923     -0.89579846724410
  C   1.53652582381757      1.35618286395090     -0.62394436592408
  N   2.26960760296636      2.26265048050763     -0.78780927229096
  C   -0.65135636759029      1.47476619089860      1.12784894240947
  N   -0.89863653394966      2.43577830370560      1.76372399586385
  C   -1.32672448471722     -0.89090626943078      0.54451887988281
  H   -1.65673687930279     -1.25246383929287     -0.43467208108587
  H   -0.83343185367529     -1.71887638479082      1.06670875602180
  H   -2.20946724061172     -0.61601433545498      1.12035921052554
