13
Coordinates from ORCA-job run
  C   0.61581144389880      0.26949197074322     -0.50522289806671
  C   -0.43388237078279      0.26517036433123      0.36894088870542
  N   1.06195480167169     -0.86115794982772     -1.16387963628363
  H   1.98613821093304     -0.79676281911830     -1.56029223883255
  H   0.88724500427070     -1.73742431657636     -0.69595166856685
  C   1.26217822791253      1.49656927359789     -0.86839588326271
  N   1.82307514489252      2.48192524731711     -1.18462756937420
  C   -0.85575838070639      1.48269178515328      0.96965766614307
  N   -1.23745038371434      2.46532741641747      1.49661262519204
  C   -1.14000170404996     -1.01716881325186      0.71883031202909
  H   -1.43413681332181     -1.55263931713745     -0.18950455502641
  H   -2.03800178231969     -0.81856136533530      1.30246041377216
  H   -0.49717139868429     -1.67746147631321      1.31237254357129
