13
Coordinates from ORCA-job run
  C   0.60079990556343      0.02849737210781     -0.56652361343162
  C   -0.38212256620073      0.18543961369795      0.37255504366496
  N   1.35252648033506      1.04673143958540     -1.11780733586783
  H   2.27297625286048      0.78743543223522     -1.43663140151408
  H   1.32673366636181      1.92359107992990     -0.61589207517443
  C   0.84086084825091     -1.27304706290515     -1.12371032949510
  N   1.06444229034538     -2.33699638871762     -1.57440425923483
  C   -0.55250984059136      1.49888488952717      0.89823134753925
  N   -0.65638220127944      2.59679707840139      1.31541578579298
  C   -1.28941679490653     -0.90670301820596      0.86519584831487
  H   -2.33038512909871     -0.68403090923870      0.61576381912983
  H   -1.02647927959020     -1.86587306539381      0.41711622159269
  H   -1.22004363205010     -1.00172646102357      1.95169094868330
