13
Coordinates from ORCA-job run
  C   0.65785634658546      0.25229702106849     -0.45899480921760
  C   -0.45274955130454      0.27668887761849      0.33605176335577
  N   1.12290095191801     -0.89119003411296     -1.08181117700840
  H   0.89320011693380     -1.76080594770893     -0.62597013959563
  H   2.07568291682035     -0.85073416388673     -1.40768225213277
  C   1.35818291869166      1.46220984350354     -0.77763673761554
  N   1.96313881307755      2.43370249229732     -1.05352957578896
  C   -0.88863079117524      1.50667100377569      0.90038001856774
  N   -1.28533866848592      2.50085092729147      1.39378245850051
  C   -1.21346915561274     -0.98706142827354      0.63621134451417
  H   -2.14527807341797     -0.76483280768064      1.15459620599053
  H   -1.45580554496344     -1.51715908688968     -0.29041053222438
  H   -0.63069027906697     -1.66163669700252      1.27401343265453
