13
Coordinates from ORCA-job run
  C   -0.86589283906777      0.26799129629771     -0.35452095939524
  C   0.52181707722676      0.67349399879768      0.10543489060057
  Cl  -1.95644426041563      1.75771567152083     -0.22014938232067
  H   0.46584060910026      0.96271651311961      1.16092198737915
  H   -0.87383465231986      0.04650783067228     -1.42252418963779
  H   0.82031021095986      1.56801048274343     -0.44598809487768
  N   -1.35753165559458     -0.85172263114002      0.36022786713514
  H   -2.26570957386990     -1.14427733485351      0.02512550491277
  H   -1.42396600312314     -0.65035242644905      1.35047759593816
  C   1.53852454393417     -0.44548671728670     -0.09710177693771
  H   1.27103196422445     -1.32962070979457      0.48059830128670
  H   1.59099790494526     -0.73752337609130     -1.14936161180304
  H   2.53485667400013     -0.11645259753640      0.20685986771964
