13
Coordinates from ORCA-job run
  C   -0.93603160278491      0.20169843416770     -0.34682697371755
  C   0.53255787655635      0.56046080485643     -0.46682157008277
  Cl  -1.92996137780625      1.53351630665961     -1.02478351114245
  H   0.69143131998299      1.49726504179890      0.07332203026979
  H   -1.16212773667240     -0.65889513476951     -0.99091176289763
  H   0.75337454615155      0.74390918749103     -1.52179154828598
  N   -1.31796651710515      0.02704878668549      1.03819392440988
  H   -0.83709598797790     -0.78147382696246      1.41546168837436
  H   -2.31349419910207     -0.15001327384699      1.10183172101311
  C   1.44667317144807     -0.53498915309349      0.07777360266115
  H   1.36585941065781     -0.62293288288182      1.16312159182866
  H   1.21655277138337     -1.50688465921546     -0.36909717301737
  H   2.49022832526854     -0.30870963088943     -0.14947201941320
