16
Coordinates from ORCA-job run
  C   -0.66771092703866      0.12044641434412      0.34323587097088
  C   0.85153026560423     -0.00704320077464      0.55315543016127
  Cl  -1.38116845941137      0.97648704359400      1.72577500344526
  H   1.00057127911619     -0.43894782004464      1.54546651644169
  N   -1.20418661816770     -1.31169650859543      0.39948530928216
  O   -2.12171361907774     -1.59921712670682     -0.35719049662052
  O   -0.68914818632180     -2.05670317052839      1.22594126845249
  C   -1.05311183154049      0.77561899124614     -0.95558716635158
  H   -0.67139613440489      1.79774962819828     -0.96787772910969
  H   -0.62699006094449      0.20786673123438     -1.78341384246230
  H   -2.13554464318631      0.79831888278375     -1.06187992156875
  C   1.46483779027273      1.32411599440867      0.53262823320503
  N   1.98529869064437      2.37459234715305      0.46143561503154
  N   1.38214017322467     -0.88345404307459     -0.48297998247324
  H   2.01768826057280     -0.40311801976161     -1.10424070077808
  H   1.85090402065844     -1.67901614347628     -0.07395340762615
