16
Coordinates from ORCA-job run
  C   -0.59023186028750      0.11186006582811      0.38089091258536
  C   0.94506720478407     -0.01785065714268      0.55691825741055
  Cl  -1.27113216781234      0.89137831064051      1.82250501797252
  H   1.10998521607978     -0.45999398622617      1.54249464025916
  N   -1.12753626293690     -1.32041464284276      0.37230670100432
  O   -1.99056495147576     -1.60083485768562     -0.45135033414982
  O   -0.64683756140607     -2.08664936566799      1.20163990667310
  C   -1.02322235114306      0.84167631717324     -0.86451984752329
  H   -0.64907881044981      0.33287905456420     -1.75466447078703
  H   -0.63492992256246      1.86026210592819     -0.83368195272507
  H   -2.10900915225744      0.87489322172208     -0.92661696960997
  C   1.52332511093771      1.33146451565841      0.55302365844448
  N   1.97638840459636      2.41350916757760      0.51173885352107
  N   1.62306731062336     -0.83903481917566     -0.41744417144008
  H   1.49309069039137     -0.51994101213601     -1.36729733609294
  H   1.37161910291870     -1.81320341821546     -0.32494286554236
