16

C	0.0	0.0	0.0
C	-0.421256	-0.095027	-1.502645
Cl	1.798233	0.0	0.0
H	-1.500003	-0.253953	-1.386705
C	-0.469419	1.224007	0.648182
N	-0.59989	2.27046	1.168863
C	-0.436944	-1.190898	0.732937
N	-0.576919	-2.178999	1.353474
N	0.22025	-1.262442	-2.091258
H	1.064201	-1.010046	-2.5902
H	-0.420731	-1.700685	-2.737081
C	-0.1599	1.212548	-2.235252
H	0.901972	1.483464	-2.230346
H	-0.734626	2.027766	-1.790498
H	-0.47877	1.100274	-3.276292
F	-2.464612	0.0	0.0
