16

C	0.0	0.0	0.0
C	-0.434049	-0.035264	-1.499062
Cl	1.793399	0.0	0.0
H	-1.513404	-0.193028	-1.373261
C	-0.464878	1.198799	0.697667
N	-0.596085	2.225504	1.256081
C	-0.440227	-1.214699	0.69116
N	-0.581963	-2.220477	1.282291
N	0.193775	-1.184077	-2.135497
H	1.046802	-0.924183	-2.616254
H	-0.450125	-1.583817	-2.802918
C	-0.17465	1.298412	-2.182801
H	0.885555	1.572445	-2.168922
H	-0.750745	2.094483	-1.708164
H	-0.49395	1.225451	-3.226796
F	-2.482711	0.0	0.0
