14

C	0.0	0.0	0.0
C	-0.49586	-0.069369	-1.431434
F	1.388592	0.0	0.0
H	-1.57414	-0.270321	-1.41106
H	0.015634	-0.888756	-1.942611
N	-0.510371	1.086253	0.692619
H	-1.525996	1.108173	0.554042
H	-0.321041	1.004001	1.68281
N	-0.289743	-1.369883	0.682752
O	-0.473183	-1.344834	1.895747
O	-0.224119	-2.375321	-0.018073
C	-0.229732	1.190899	-2.116439
N	-0.014354	2.194419	-2.684236
Br	-3.647951	0.0	0.0
