14

C	0.0	0.0	0.0
C	-0.46736	0.120955	-1.439969
F	1.366014	0.0	0.0
H	-1.549931	-0.047046	-1.482977
H	0.046287	-0.642822	-2.025267
N	-0.493991	0.990032	0.836862
H	-1.513858	1.017487	0.735094
H	-0.257604	0.777684	1.798618
N	-0.304905	-1.44603	0.50588
O	-0.378934	-2.346681	-0.322412
O	-0.358213	-1.582605	1.723631
C	-0.132162	1.440277	-1.966965
N	0.125987	2.486084	-2.432534
Br	-3.632794	0.0	0.0
