15

C	0.0	0.0	0.0
C	-0.480016	-0.06406	-1.465474
Br	1.953044	0.0	0.0
H	0.281311	0.415297	-2.090442
H	-0.269263	1.001581	0.338183
C	-0.587879	-1.048448	0.914452
H	-1.681582	-0.95071	0.853354
H	-0.268796	-0.879477	1.945663
H	-0.289696	-2.054016	0.610538
N	-1.709272	0.690223	-1.593597
H	-2.076732	0.570664	-2.532866
H	-2.477531	0.362324	-0.928701
C	-0.520359	-1.476536	-1.925564
N	-0.541359	-2.570198	-2.357513
H	-3.643813	0.0	0.0
