16

C	0.0	0.0	0.0
C	-0.513459	0.049457	-1.439888
Br	1.942307	0.0	0.0
H	-1.605337	0.053905	-1.334485
H	-0.222762	1.049273	-1.785326
N	-0.493335	1.033341	0.841419
H	-0.343956	1.916982	0.366557
H	-1.507846	0.886781	0.914142
N	-0.358389	-1.339135	0.679395
O	-0.76369	-1.30702	1.830675
O	-0.168626	-2.352102	0.013891
C	-0.075409	-0.986565	-2.468383
H	-0.348041	-0.623025	-3.463819
H	1.003308	-1.155558	-2.451163
H	-0.574503	-1.938908	-2.305083
Br	-3.793308	0.0	0.0
