16

C	0.0	0.0	0.0
C	-0.395983	-0.43762	-1.405489
Br	1.953291	0.0	0.0
H	0.177149	-1.336657	-1.631504
H	-0.027233	0.355728	-2.063557
N	-0.562554	1.210005	0.412032
H	-0.401954	1.36591	1.399624
H	-1.569345	1.183318	0.248107
N	-0.299977	-1.16335	1.013872
O	-0.558168	-0.82257	2.162519
O	-0.219877	-2.314658	0.605738
C	-1.875316	-0.696188	-1.640678
H	-2.009706	-1.027588	-2.675497
H	-2.514197	0.171058	-1.491959
H	-2.269197	-1.472674	-0.988
Br	-4.817896	0.0	0.0
