18

C	-0.530738	0.009693	-1.432445
C	0.0	0.0	0.0
Br	0.23246	-1.604527	-2.362529
H	1.086907	0.0	0.0
N	-1.917749	0.151572	-1.558784
H	-2.191257	0.135705	-2.532749
H	-2.382542	-0.566287	-1.017383
N	0.075786	1.176152	-2.213173
O	-0.41141	1.379281	-3.320247
O	0.966054	1.820525	-1.681475
N	-0.426546	-1.277697	0.669883
O	-1.608272	-1.629102	0.552705
O	0.401584	-1.858452	1.357024
C	-0.532452	1.141383	0.854556
H	-0.09562	1.053442	1.851481
H	-0.20268	2.088232	0.430718
H	-1.621023	1.124446	0.916483
Br	3.52842	0.0	0.0
