18

C	-0.41965	0.015886	-1.474255
C	0.0	0.0	0.0
Br	0.328156	1.643162	-2.28556
H	1.091802	0.0	0.0
N	0.000267	-1.113282	-2.223974
H	0.946757	-1.360985	-1.944462
H	-0.645585	-1.882146	-2.08557
N	-1.952888	0.127812	-1.599993
O	-2.55909	-0.868613	-1.983898
O	-2.472361	1.179684	-1.254199
N	-0.425424	-1.342272	0.534488
O	0.432475	-2.20484	0.709202
O	-1.619604	-1.478054	0.845335
C	-0.538038	1.070378	0.921886
H	-1.618203	1.002239	1.045776
H	-0.049029	0.954165	1.891981
H	-0.280048	2.052824	0.529566
Br	3.229844	0.0	0.0
