16

C	0.0	0.0	0.0
C	-0.538235	0.073045	-1.42417
F	1.401158	0.0	0.0
H	-1.647238	0.096	-1.300788
H	-0.258775	-0.830192	-1.979256
C	-0.463977	1.199054	0.798882
H	-1.561972	1.191018	0.796013
H	-0.08596	2.124998	0.354824
H	-0.090751	1.124393	1.825023
C	-0.475439	-1.291981	0.627726
H	-0.100707	-2.151913	0.061797
H	-0.107278	-1.362391	1.655985
H	-1.574162	-1.27554	0.618882
C	-0.069793	1.240768	-2.160464
N	0.284584	2.189707	-2.755495
H	-3.275525	0.0	0.0
