16

C	0.0	0.0	0.0
C	-0.538258	-0.073928	-1.424073
F	1.401174	0.0	0.0
H	-1.647287	-0.096941	-1.300824
H	-0.258723	0.82903	-1.979666
C	-0.47545	1.292364	0.626966
H	-0.106908	1.363604	1.655039
H	-0.101133	2.151946	0.060281
H	-1.574177	1.275773	0.618465
C	-0.463965	-1.198595	0.799586
H	-1.561974	-1.190705	0.796567
H	-0.085751	-2.124783	0.356178
H	-0.090935	-1.123234	1.825746
C	-0.069658	-1.242154	-2.159524
N	0.284686	-2.191691	-2.753656
H	-3.275458	0.0	0.0
