19

C	-0.356382	0.05817	-1.484853
C	0.067547	0.132496	-0.01387
Cl	-2.184958	0.047181	-1.595658
H	1.153972	0.321238	-0.058806
C	0.118901	1.286736	-2.239976
H	-0.245913	2.191278	-1.754109
H	-0.224288	1.259965	-3.277458
H	1.213425	1.296103	-2.232593
C	0.150931	-1.226403	-2.107299
H	-0.023917	-1.228619	-3.187594
H	1.219834	-1.324283	-1.884037
H	-0.348858	-2.078673	-1.649462
N	-0.151653	-1.145328	0.650514
H	-0.239036	-0.94557	1.643527
H	0.78335	-1.611916	0.570378
N	-0.554613	1.280641	0.636148
H	-1.518321	1.034381	0.84097
H	-0.081703	1.42418	1.521925
H	2.52935	-1.612588	0.310136
