19

C	-0.588784	-0.011185	-1.551434
C	0.20582	-0.050871	-0.235019
Cl	-0.244344	-1.539558	-2.473742
H	1.250318	-0.250344	-0.493656
C	-2.089647	0.030274	-1.319307
H	-2.625672	0.061476	-2.27161
H	-2.34762	0.92867	-0.749585
H	-2.41316	-0.854432	-0.769343
C	-0.128899	1.139475	-2.430751
H	-0.633288	1.105974	-3.400846
H	-0.335455	2.081632	-1.924342
H	0.949521	1.077074	-2.592682
N	-0.207617	-1.147935	0.633326
H	0.506423	-1.115998	1.375297
H	-1.065806	-0.858186	1.09771
N	0.198639	1.276057	0.386059
H	-0.690316	1.374275	0.874054
H	0.896774	1.151799	1.148432
H	1.900654	0.098401	2.271081
