19

C	-0.302659	-0.069679	-1.48154
C	0.053056	-0.139146	0.010749
Cl	-2.128831	0.139823	-1.646871
H	1.131559	-0.349121	0.011795
C	0.35956	1.126356	-2.135868
H	0.284951	1.059315	-3.225635
H	1.405306	1.171368	-1.803074
H	-0.100777	2.059316	-1.810805
C	0.051635	-1.365079	-2.189027
H	-0.422464	-2.210437	-1.69362
H	-0.2483	-1.328253	-3.239876
H	1.137949	-1.491233	-2.137969
N	-0.626345	-1.280872	0.636195
H	-1.603716	-1.019388	0.73589
H	-0.261095	-1.306018	1.583286
N	-0.07268	1.099034	0.743532
H	0.849183	1.56912	0.638452
H	-0.807711	1.680861	0.356779
H	2.600713	1.551477	0.136424
