19

C	-0.585345	-0.07155	-1.615053
C	0.188143	0.0489	-0.292798
Cl	-0.434176	1.525188	-2.497423
H	1.238159	0.235046	-0.544295
C	0.03935	-1.12429	-2.510807
H	-0.495859	-1.193669	-3.462121
H	0.008405	-2.078843	-1.985103
H	1.084373	-0.877939	-2.712872
C	-2.064741	-0.316515	-1.389372
H	-2.610749	-0.30001	-2.336479
H	-2.188493	-1.301414	-0.930564
H	-2.465104	0.43827	-0.713382
N	0.157151	-1.230147	0.399393
H	0.871662	-1.093062	1.140884
H	-0.72259	-1.238953	0.91263
N	-0.355285	1.089871	0.576358
H	-0.16734	1.998179	0.159869
H	0.254221	1.015998	1.405413
H	1.798092	0.068974	2.265283
