18

C	-0.530666	-0.189235	-1.414556
C	0.0	0.0	0.0
Br	0.306864	-1.794422	-2.23164
H	1.10892	0.0	0.0
N	-1.975483	-0.375525	-1.58514
H	-2.427734	0.436212	-1.170813
H	-2.240638	-1.184054	-1.031186
C	-0.143728	0.933565	-2.279768
N	0.08629	1.866987	-2.955865
C	-0.464616	-1.102219	0.941429
H	-0.2608	-2.094438	0.53238
H	-1.530944	-1.038514	1.204372
H	0.114833	-1.015198	1.864055
C	-0.407802	1.367783	0.543934
H	-1.495685	1.508443	0.642325
H	0.000612	2.174791	-0.068399
H	0.031425	1.47455	1.539219
F	2.622149	0.0	0.0
