18

C	-0.053318	0.046356	-1.529331
C	0.0	0.0	0.0
Br	-1.837133	0.845651	-2.241235
H	1.109665	0.0	0.0
N	1.035164	0.832507	-1.985043
H	1.239747	0.669441	-2.962077
H	1.860379	0.617691	-1.361765
C	-0.109926	-1.293183	-2.13652
N	-0.086611	-2.357163	-2.640088
C	-0.649338	-1.211979	0.629623
H	-0.533199	-1.1606	1.716294
H	-1.723129	-1.255012	0.407269
H	-0.186923	-2.141791	0.292059
C	-0.446122	1.309996	0.627834
H	-1.537529	1.395852	0.67149
H	-0.048716	2.154096	0.06186
H	-0.046398	1.366773	1.645198
F	2.720721	0.0	0.0
