18

C	-0.520622	0.125024	-1.418507
C	0.0	0.0	0.0
Br	0.392999	-1.170333	-2.622368
H	1.10867	0.0	0.0
N	-1.941089	-0.162127	-1.525073
H	-2.287741	0.098317	-2.441919
H	-2.424042	0.390942	-0.823943
C	-0.194229	1.440532	-2.00029
N	-0.066824	2.51169	-2.47063
C	-0.441224	-1.305215	0.650601
H	-1.505552	-1.3291	0.917195
H	0.154508	-1.43805	1.55827
H	-0.234423	-2.1563	-0.001286
C	-0.414075	1.200711	0.849455
H	-0.032659	2.135768	0.432325
H	-1.500759	1.297491	1.004131
H	0.048345	1.08098	1.83292
F	2.62291	0.0	0.0
