18

C	0.0	0.0	0.0
C	-0.367965	0.012201	-1.524701
F	1.428072	0.0	0.0
H	0.606975	0.069019	-2.024655
N	-0.501526	1.181448	0.625074
H	-0.286138	1.108169	1.616577
H	-1.530606	1.004859	0.527779
C	-0.389894	-1.285106	0.709763
H	-1.481285	-1.31873	0.684001
H	-0.026367	-1.228496	1.741362
H	0.053065	-2.161172	0.230539
C	-1.234102	1.185119	-2.002582
H	-2.20808	1.06372	-1.527693
H	-1.315789	1.151264	-3.093986
H	-0.774679	2.127334	-1.701943
C	-0.97554	-1.243358	-1.981016
N	-1.405335	-2.235034	-2.444014
F	-2.822537	0.0	0.0
