18

C	0.0	0.0	0.0
C	-0.220465	-0.22115	-1.544117
F	1.4162	0.0	0.0
H	0.601083	0.367871	-1.96585
N	-0.553534	1.274609	0.337756
H	-1.578221	1.0638	0.26239
H	-0.370625	1.431274	1.326431
C	-0.465836	-1.131609	0.887526
H	-0.03052	-2.089625	0.596459
H	-0.169106	-0.907964	1.918533
H	-1.55844	-1.129362	0.80223
C	-1.511913	0.244128	-2.221453
H	-1.553554	1.332965	-2.152788
H	-2.383851	-0.138808	-1.687285
H	-1.48253	-0.041019	-3.278255
C	0.07558	-1.61261	-1.897058
N	0.310175	-2.717748	-2.22072
F	-2.983144	0.0	0.0
