18

C	0.0	0.0	0.0
C	-0.485279	0.004813	-1.468776
F	1.396282	0.0	0.0
H	-1.585035	0.041088	-1.320141
N	-0.507658	1.121852	0.734533
H	-0.309024	1.972087	0.212502
H	-1.532274	0.948841	0.673981
C	-0.448255	-1.267498	0.704394
H	0.029673	-2.14877	0.271307
H	-1.537452	-1.297427	0.618923
H	-0.150748	-1.181259	1.751576
C	-0.060429	-1.213669	-2.291908
H	-0.570142	-2.104934	-1.924241
H	1.020081	-1.367284	-2.22489
H	-0.327978	-1.083924	-3.34413
C	-0.028701	1.226246	-2.127214
N	0.358468	2.196238	-2.667159
F	-2.888212	0.0	0.0
