14

C	-0.45223	-0.041478	-1.474549
C	0.0	0.0	0.0
Cl	0.083741	1.462447	-2.275269
H	1.097134	0.0	0.0
H	-1.54331	-0.035956	-1.528704
C	0.142279	-1.24542	-2.179594
H	-0.11057	-1.222541	-3.241517
H	1.2278	-1.234776	-2.060348
H	-0.256136	-2.164686	-1.744729
C	-0.469163	-1.209105	0.680376
N	-0.851094	-2.196487	1.189717
C	-0.505376	1.177524	0.705524
N	-0.932853	2.112778	1.273068
Br	3.380894	0.0	0.0
