14

C	-0.467974	0.061277	-1.46823
C	0.0	0.0	0.0
Cl	0.117517	-1.398665	-2.312027
H	1.096038	0.0	0.0
H	0.057449	0.903188	-1.925063
C	-1.970597	0.181144	-1.631364
H	-2.331701	1.090957	-1.145412
H	-2.469993	-0.682086	-1.186036
H	-2.231883	0.222377	-2.690419
C	-0.518716	-1.181309	0.686688
N	-0.967989	-2.123757	1.224522
C	-0.444619	1.211585	0.692325
N	-0.805274	2.206742	1.202171
Br	3.353857	0.0	0.0
