14

C	-0.339454	-0.004467	-1.496734
C	0.0	0.0	0.0
Cl	-2.117645	-0.064991	-1.762368
H	1.098404	0.0	0.0
H	0.058006	-0.935215	-1.906323
C	0.270929	1.191955	-2.195382
H	0.102711	1.127378	-3.271901
H	-0.171002	2.120325	-1.827227
H	1.345477	1.196786	-1.990578
C	-0.481256	-1.199208	0.680269
N	-0.85421	-2.173886	1.218618
C	-0.485341	1.205482	0.667376
N	-0.861462	2.185901	1.193195
Br	3.359001	0.0	0.0
