14

C	-0.449334	-0.088341	-1.476317
C	0.0	0.0	0.0
Cl	-0.047931	1.451374	-2.294319
H	1.097144	0.0	0.0
H	-1.537975	-0.179284	-1.527386
C	0.25283	-1.240336	-2.170949
H	-0.048222	-2.189458	-1.718105
H	1.333735	-1.122679	-2.061835
H	-0.010993	-1.260141	-3.22988
C	-0.457191	-1.201123	0.702329
N	-0.833815	-2.183906	1.224292
C	-0.519797	1.18411	0.680293
N	-0.96659	2.121258	1.229016
Br	3.378268	0.0	0.0
