14

C	-0.359738	-0.130918	-1.470981
C	0.0	0.0	0.0
Cl	-0.144109	-1.852534	-2.016981
H	1.09344	0.0	0.0
H	-1.413419	0.078115	-1.681484
H	-0.349909	0.999642	0.297529
C	0.611117	0.738545	-2.257033
H	0.5499	0.560387	-3.333025
H	0.38106	1.792676	-2.06239
H	1.614026	0.531726	-1.863061
N	-0.675739	-0.985796	0.861679
H	-0.399863	-0.75577	1.812807
H	-0.221324	-1.875334	0.675131
F	2.794254	0.0	0.0
