14

C	-0.548644	-0.024357	-1.414918
C	0.0	0.0	0.0
Cl	-0.20372	1.558667	-2.222275
H	1.092414	0.0	0.0
H	0.017305	-0.764346	-1.984802
H	-0.39616	0.879159	0.527922
C	-2.037925	-0.292099	-1.50968
H	-2.241471	-1.250284	-1.027233
H	-2.595518	0.495234	-0.992416
H	-2.377603	-0.326782	-2.548053
N	-0.37739	-1.27576	0.655097
H	-1.034909	-1.115507	1.407621
H	0.480468	-1.626298	1.067893
F	2.718369	0.0	0.0
