14

C	-0.183814	-0.004635	-1.501529
C	0.0	0.0	0.0
Cl	-1.941654	-0.190478	-2.019531
H	1.096022	0.0	0.0
H	0.094419	0.98148	-1.882538
H	-0.381979	-0.935882	0.423652
C	0.688015	-1.067472	-2.134587
H	0.342933	-2.064968	-1.847851
H	0.699106	-0.999575	-3.225431
H	1.686015	-0.896792	-1.706235
N	-0.543081	1.146808	0.719179
H	-1.447761	1.400438	0.33521
H	0.086632	1.927255	0.571354
F	2.748413	0.0	0.0
