14

C	-0.185683	-0.035526	-1.50395
C	0.0	0.0	0.0
Cl	-1.941203	-0.266771	-2.019652
H	1.09624	0.0	0.0
H	0.078996	0.945088	-1.90505
H	-0.436339	0.908702	0.425046
C	0.692706	-1.098056	-2.131071
H	0.355263	-2.096653	-1.844739
H	1.690455	-0.917601	-1.704827
H	0.702534	-1.03403	-3.221847
N	-0.447975	-1.18411	0.730197
H	-1.275816	-1.582695	0.302647
H	0.295533	-1.868901	0.690347
F	2.741219	0.0	0.0
