17
Coordinates from ORCA-job run
  C   0.73271473209984      0.34819048782679      0.32539223318845
  C   -0.41165125590458     -0.28722797344344     -0.47860525426990
  Br  0.53810648198142     -0.19401030418903      2.27111069435807
  H   -0.33698920703792      0.19402757114492     -1.45898150476187
  N   0.67329552623898      1.87322827381395      0.35819115814970
  O   -0.23030356245190      2.42374505762066     -0.26254167142660
  O   1.58645236978124      2.43220736439362      0.94974503965138
  N   1.96531882001820      0.03171832082780     -0.23224074380869
  H   2.74986477179630      0.34204834953476      0.32448930359293
  H   1.99032958427252     -0.95443773124671     -0.46391426546668
  C   -1.81644753945638     -0.08358843017209      0.07480268087810
  H   -2.03377205413132      0.96334536392636      0.27905134368940
  H   -1.95729449236374     -0.65823429636000      0.99127768614843
  H   -2.53508870762596     -0.44304953819377     -0.66659884902779
  N   -0.04546378233257     -1.69476688597720     -0.65646144841879
  H   -0.48822972208585     -2.05973894825109     -1.49006238772680
  H   -0.38184196279828     -2.23345668125553      0.13434598525067
