17
Coordinates from ORCA-job run
  C   0.76605295898407      0.21450428244472      0.53791485865317
  C   -0.30716477877811     -0.30320727269933     -0.44633675862750
  Br  0.46358277188345     -0.53491162501563      2.30705945928914
  H   -0.01480429689868      0.15306394013893     -1.40009440997837
  N   0.60446164398705      1.73496025186393      0.58283804357884
  O   0.05873799718398      2.27474000257552      1.53205840767771
  O   0.99792835094298      2.29644729675989     -0.43932476441144
  N   2.11676667701944     -0.04851815658094      0.16045899274404
  H   2.16535784006089     -1.03560234462015     -0.07266414620797
  H   2.32364625668775      0.49410772656440     -0.67227198098474
  C   -1.73119509878304      0.12158563307638     -0.10962501396015
  H   -2.40878373989049     -0.25775071595389     -0.87864294578290
  H   -1.84381783772909      1.20756197711212     -0.07308952991041
  H   -2.04097357893358     -0.28648634210913      0.85448444231123
  N   -0.09605161377018     -1.73998942364326     -0.58041574588453
  H   -0.47085626078472     -2.06025171110112     -1.46452648726054
  H   -0.58388729118171     -2.23125351881245      0.16017757875442
