17
Coordinates from ORCA-job run
  C   0.72436529148401      0.38891691905725      0.29621616920344
  C   -0.38278369671397     -0.40616772177065     -0.41216840224331
  Br  0.24079920324430      0.56390307384829      2.26089896715494
  H   -0.13919879075501     -0.29860002702982     -1.47394355082219
  N   0.83599565461291      1.83223065158813     -0.18687666219944
  O   0.08145693800530      2.19462299322890     -1.08373364990367
  O   1.73075552674536      2.49778022313169      0.31584660659909
  N   1.96924601446130     -0.18260677144408      0.06677949016644
  H   1.90899627442988     -1.18756360124934      0.18157062778598
  H   2.71421579413751      0.24758855742600      0.59748461086362
  C   -1.81040706748640      0.06978636092275     -0.17415973382425
  H   -2.12200391537782     -0.14196544116695      0.84954168022192
  H   -1.92960200352807      1.13489058056328     -0.36504834245281
  H   -2.47327008262536     -0.47461675853428     -0.85206118595318
  N   -0.16110113442529     -1.80968773547341     -0.05510992459145
  H   -0.54040200641944     -2.40961674292168     -0.77641341342197
  H   -0.64706199978922     -2.01889456017605      0.81017671341684
