17
Coordinates from ORCA-job run
  C   0.94924682048577      0.17156374886182      0.07883665341288
  C   -0.38874483139851     -0.59421698560420      0.12324867908152
  Br  2.40004993725167     -1.01242426832371     -0.44312449221125
  H   -0.23531424415261     -1.49681060036094      0.72312065561363
  N   1.22965405447715      0.57419829323132      1.54833193022115
  O   1.47295613238194      1.74622247018485      1.78761877895058
  O   1.13078563681448     -0.32959090219022      2.37367128390835
  N   0.99766237438555      1.34466655769475     -0.70864000301272
  H   0.16354260493199      1.89312941870840     -0.52538887201525
  H   1.07772482052695      1.12177724349859     -1.69075432122773
  C   -0.86114315365775     -0.96865410116335     -1.27039123461501
  H   -1.09705846089911     -0.07040860854198     -1.84598928669984
  H   -0.11290309119587     -1.55049317018427     -1.80853527507670
  H   -1.76864069556804     -1.57354408798365     -1.19827064857212
  N   -1.33701282721229      0.34125865156638      0.72972268855719
  H   -2.27430908288070      0.16851393491431      0.38975022674720
  H   -1.34849599429061      0.23181240569189      1.73679323693811
