16
Coordinates from ORCA-job run
  C   -0.56368135078197     -0.25583894026222      0.15332109691258
  C   0.69722096905050     -0.31247899014897      1.01959992896415
  Br  -1.90444336442534     -1.23197212617014      1.22444924074560
  H   1.01963019725814     -1.34165542406682      1.17119917697320
  H   0.53981269677928      0.19420716228025      1.97070891131602
  C   -0.39343904574279     -0.99098064823111     -1.16599569985890
  H   0.33673187781605     -0.47039225184851     -1.79096712564602
  H   -1.34438055151220     -1.02540311083300     -1.70023493249640
  H   -0.04388775287018     -2.01287121933579     -1.01011067913326
  C   -1.06714743354192      1.16444286749643     -0.04496597173149
  H   -2.02478605219179      1.15173943642250     -0.56811560961661
  H   -0.35195826512513      1.73317730570573     -0.64477106276190
  H   -1.19788596978889      1.67741483203926      0.90924098765608
  N   1.82300725464855      0.39419866550974      0.33756876409226
  O   2.53029378807656     -0.27264297938678     -0.41701239078347
  O   1.94491300235112      1.59905542082941      0.55608536536818
