16
Coordinates from ORCA-job run
  C   -0.45778757451680     -0.12781319361785      0.05392990324005
  C   0.81760419931960      0.38062841243137      0.72303108956523
  Br  -1.13601696474111     -1.65009213225010      1.10138243218740
  H   0.62843655503384      0.65772380774503      1.75885115754800
  H   1.19870713132666      1.23348561121324      0.15561257337540
  C   -0.25649290490490     -0.58827851772697     -1.38102269742196
  H   -1.21850906090083     -0.87329271537255     -1.81072144249985
  H   0.42172484678821     -1.43661454178764     -1.44913915017075
  H   0.16404415194118      0.23170475172048     -1.97181792844459
  C   -1.49408512072179      0.98715151923533      0.13288669614843
  H   -2.44413563821014      0.64858105493863     -0.28323637780025
  H   -1.66433763574891      1.30255799347102      1.16404973953992
  H   -1.14951685124149      1.84846876727025     -0.44915686967233
  N   1.92048764047925     -0.62092938792208      0.74907954557143
  O   2.50385484716670     -0.82954378028612     -0.31450790704097
  O   2.16802237893052     -1.16373764906206      1.82277923587485
