16
Coordinates from ORCA-job run
  C   -0.40784318733181     -0.24914598273138     -0.03014459705862
  C   1.10130524794957     -0.28751341596687      0.20185865721513
  Br  -1.27837614976212     -1.25861026816322      1.41824428676037
  H   1.59600600919931      0.26100052358406     -0.60368657519419
  H   1.46062869246149     -1.31415135950087      0.25034240308611
  C   -0.69037428036760     -0.97908204004076     -1.33809176773265
  H   -0.29732257955235     -1.99739522260495     -1.32063630509682
  H   -0.22798001109883     -0.43447315629488     -2.16810830289748
  H   -1.76552065175445     -1.02971973724402     -1.51653169575633
  C   -0.99014494619095      1.15506838670568     -0.04937162198739
  H   -0.86868890567430      1.66375547010193      0.90504265053661
  H   -0.48519159131866      1.74958945283849     -0.81737658682354
  H   -2.05441371228122      1.10532098845404     -0.28640043448606
  N   1.52928808180325      0.36992972724763      1.46870280489513
  O   1.51082614284955      1.60060623001232      1.48688145378839
  O   1.86680184106910     -0.35717959639719      2.39927563075132
