16
Coordinates from ORCA-job run
  C   -0.41637746507966     -0.23406445363924     -0.03022451090702
  C   1.07063106783989     -0.30590718278294      0.31103318421795
  Br  -1.42755713835543     -1.03036628261543      1.45921514480322
  H   1.37543604682024     -1.33344913179433      0.50264108318044
  H   1.64415945837039      0.12212052217377     -0.51506954254596
  C   -0.64766560617854     -1.10076125196512     -1.26254947141043
  H   -0.30685401463331     -2.12519292758798     -1.10073121769617
  H   -1.70990454251324     -1.12814666287796     -1.51003004932552
  H   -0.10535669112860     -0.67694219480664     -2.11440014011765
  C   -0.92798721436534      1.18051183327366     -0.25133701402019
  H   -1.97564034057087      1.14570767500619     -0.55557247122479
  H   -0.84458076344037      1.79249147499974      0.64467639322196
  H   -0.34622390207687      1.65914815186477     -1.04549724640878
  N   1.44574872463561      0.47862653557165      1.52106990614636
  O   1.48471682245266      1.70259154730396      1.39686803317890
  O   1.68745555822343     -0.14736765212408      2.54990791890769
