16
Coordinates from ORCA-job run
  C   -0.45465941000577     -0.14759797198676      0.02140925662534
  C   0.80423854982190      0.23705671749499      0.79602211072732
  Br  -1.09790929208758     -1.87459681903867      0.71329888791053
  H   0.60387796648542      0.27959525230310      1.86537171035050
  H   1.16425919175996      1.20166962988867      0.42928402293905
  C   -0.23550155097551     -0.28604402611906     -1.47674699191346
  H   0.46336611818217     -1.08465805374059     -1.71781637692206
  H   -1.18831654594526     -0.49452859449098     -1.96666996715755
  H   0.16780147855308      0.65052238314286     -1.87476836056746
  C   -1.51989845788773      0.89909469981258      0.32634051730466
  H   -1.70137857223515      0.98420105398304      1.39947586122473
  H   -1.19599869785364      1.87253903670211     -0.05689133364943
  H   -2.45962696560057      0.63317045121099     -0.16001622780853
  N   1.93353082647240     -0.71819199076134      0.61549004908774
  O   2.19071175426055     -1.47454555592456      1.54854655563147
  O   2.52650360705573     -0.67668621247638     -0.46232971378286
