16
Coordinates from ORCA-job run
  C   -0.56359569103633     -0.25460648818309      0.15514030396534
  C   0.70030251978090     -0.31397027938204      1.01691242632668
  Br  -1.90226014096896     -1.22888934974239      1.23053275898993
  H   0.54703995605386      0.19370584066218      1.96818686138473
  H   1.02041646489721     -1.34388975469246      1.16832829472948
  C   -0.39965893434087     -0.98910947890815     -1.16531133954226
  H   -1.35309608740104     -1.02233288577998     -1.69518381457598
  H   0.32808782741940     -0.46887491769595     -1.79339434122606
  H   -0.05029368427647     -2.01140756348640     -1.01166139282976
  C   -1.06505332341115      1.16680991252651     -0.04028042957830
  H   -2.02431479214192      1.15646667033846     -0.56050975498134
  H   -0.35053238912691      1.73473964828122     -0.64165416903216
  H   -1.19194982375184      1.67901761622794      0.91486324733496
  N   1.82542438684988      0.38956738822466      0.33063462563329
  O   1.95160916270934      1.59402489188417      0.54909932648128
  O   2.52787454874489     -0.27925125027469     -0.42670260307985
