13
Coordinates from ORCA-job run
  C   -0.66030987892731      0.50099694788771      0.64873020958547
  C   0.72105363599100      0.56415131137742      0.03560756621000
  Br  -1.36358585011638      2.25285437094178      1.05832631728395
  H   1.37982979296491      1.04855836380118      0.76116759538095
  H   -0.70105619285810     -0.08658492437378      1.56367660743566
  H   0.67537379729062      1.20268253535173     -0.84918341553447
  N   -1.59413755036081     -0.18916621471467     -0.31006873559856
  O   -2.11905330294724     -1.22320770157270      0.09676977223184
  O   -1.71336081682068      0.29729264462559     -1.42753269546343
  C   1.23870000507549     -0.82744713909603     -0.32268280856176
  H   0.64463712921608     -1.28131594251273     -1.11824607437573
  H   2.26880693168705     -0.76203538178659     -0.67751201351107
  H   1.22210229980537     -1.49677886992891      0.54094767491715
