13
Coordinates from ORCA-job run
  C   -0.61634747394755      0.51851742253757      0.35712094347123
  C   0.29243853446975     -0.51558539601915     -0.29172627280458
  Br  -0.27578861105863      2.31201961904839     -0.24322313478522
  H   0.02430580038417     -1.47673119088627      0.15393109089609
  H   -0.51411424286150      0.51354614314800      1.44274275697328
  H   0.04560582439257     -0.57328959538944     -1.35668000772677
  N   -2.05934773318001      0.11511982892504      0.10181325093803
  O   -2.35128833390306     -0.96819899910500      0.60388139275984
  O   -2.78993960926090      0.81023829042894     -0.58763480583753
  C   1.77601918359123     -0.23302692830034     -0.08564217108611
  H   2.36256044734405     -1.11273531054759     -0.35717668356167
  H   2.11417171810673      0.60407995314849     -0.69570473549301
  H   1.99172449592316      0.00404616301136      0.95929837625640
