13
Coordinates from ORCA-job run
  C   -0.61994073722749      0.49146959750699      0.32703876383132
  C   0.31514645063779     -0.49061471057340     -0.34424431433056
  Br  -0.43690405265892      2.29208554078682     -0.35661281794527
  H   0.12835932036505     -0.46675295162124     -1.41953107490998
  H   -0.48808336063635      0.54414654773588      1.40611060585159
  H   0.02995308265792     -1.48737816461154      0.01382523942893
  N   -2.04759268618338      0.05644028755388      0.12211490544821
  O   -2.40767831301055     -0.16618257093001     -1.02739817048800
  O   -2.72726982401134     -0.06975229081428      1.13793739650360
  C   1.78069566125333     -0.22203418149518     -0.02437547789879
  H   1.95643913388561     -0.21736202699902      1.05426715664111
  H   2.40769866785459     -1.00135502116077     -0.46125727106021
  H   2.10617665707377      0.73728994462188     -0.42787494107196
