13
Coordinates from ORCA-job run
  C   -0.60867655707587      0.44611717216629      0.40375257743125
  C   0.30411886821889     -0.43922483487763     -0.41628077830858
  Br  -0.40570109231833      2.32504114955363     -0.01134205437604
  H   0.10556093752988     -0.25556276858487     -1.47391749231109
  H   -0.46426701516702      0.33862979883118      1.47713106746667
  H   0.00804993074386     -1.47391097070664     -0.20441426637231
  N   -2.04447401941383      0.06525287820509      0.15607044980288
  O   -2.71482565785974     -0.20008169774407      1.15118835292577
  O   -2.42126163333149      0.01974011843944     -1.00870363853854
  C   1.77702587411746     -0.23994080949454     -0.08004774015336
  H   2.38741310755826     -0.95454303047279     -0.63512507075061
  H   2.11217329044583      0.76399300374340     -0.34242984386106
  H   1.96486396655210     -0.39651000905849      0.98511843704501
