13
Coordinates from ORCA-job run
  C   -0.71208973908622      0.66637168475373      0.52299590744841
  C   0.57316463448283     -0.12551743178195      0.71348066270898
  Br  -0.41345870927248      2.45081024993197     -0.13565271694921
  H   0.29806197137273     -1.04173591099519      1.24549305130414
  H   -1.27429420454348      0.75633776233598      1.45057135804993
  H   1.21808860919157      0.45707534484597      1.37634875987379
  N   -1.61080939765161     -0.12235703448319     -0.40549063440316
  O   -1.69313748763283      0.17989875409431     -1.58659932853272
  O   -2.13812926066313     -1.08936153779243      0.14026479131078
  C   1.29523662335259     -0.46359814862658     -0.58516679566871
  H   0.69995195698014     -1.12939533766412     -1.21275749663940
  H   2.23483191847276     -0.97242636299598     -0.36214317608752
  H   1.52358308499714      0.43389796837747     -1.16134438241531
