13
Coordinates from ORCA-job run
  C   -0.65787887967360      0.52773027261566      0.62997656764397
  C   0.72916379039397      0.55394794551084      0.02705186406330
  Br  -1.33766496034921      2.29975123937289      0.98828544514696
  H   0.70073308261757      1.16979150312092     -0.87437580732151
  H   -0.71486631779387     -0.03595795710764      1.55900343236088
  H   1.38929444868555      1.04709440617412      0.74550607565247
  N   -1.59425994631497     -0.17305842358337     -0.31878818239779
  O   -1.69755449801377      0.28655630326046     -1.44912333707660
  O   -2.13722578170511     -1.18898045881752      0.10949209186812
  C   1.22838793744468     -0.85417353607983     -0.29035267953241
  H   1.19482209579243     -1.50032777654105      0.59026321168536
  H   0.63389623435691     -1.31988903567718     -1.07873476665088
  H   2.26215279455943     -0.81348448224829     -0.63820391544185
