13
Coordinates from ORCA-job run
  C   -0.71073021970081      0.64968752426450      0.54583220624887
  C   0.58153421942300     -0.13832307012954      0.70410523726649
  Br  -0.43086233579253      2.45049488490434     -0.07398366194378
  H   1.22972943775767      0.43296844769083      1.37363199701959
  H   -1.26344947206588      0.71295291788796      1.48128569909314
  H   0.31775679946844     -1.06830234532559      1.21765834289536
  N   -1.61406973474530     -0.12332589690251     -0.39139092841220
  O   -2.13106152032811     -1.10517462133689      0.13749362872900
  O   -1.70820865085078      0.20426952043082     -1.56485558716340
  C   1.29207283973589     -0.44127056903072     -0.60937668335309
  H   1.50904813396689      0.47098170591123     -1.16650593495192
  H   0.69428002776274     -1.09554116966937     -1.24663188375702
  H   2.23696047536880     -0.94941732869504     -0.40826243167104
