12

C	0.0	0.0	0.0
C	-0.508549	0.191116	-1.438299
Br	1.960066	0.0	0.0
H	-1.612179	0.191776	-1.343684
H	-0.188047	-0.66616	-2.037234
C	-0.422051	1.078755	0.894718
N	-0.588836	1.988706	1.620272
C	-0.397808	-1.309936	0.525159
N	-0.586038	-2.389433	0.952063
C	-0.023902	1.423599	-2.040789
N	0.346869	2.409241	-2.560544
Cl	-3.299091	0.0	0.0
