12

C	0.0	0.0	0.0
C	-0.492584	0.378357	-1.408624
Br	1.959686	0.0	0.0
H	-0.157392	-0.3887	-2.11183
H	-1.596462	0.366411	-1.335474
C	-0.404362	0.971395	1.018028
N	-0.592631	1.757222	1.871981
C	-0.406784	-1.363514	0.345834
N	-0.549493	-2.505017	0.587463
C	-0.007137	1.683725	-1.833136
N	0.370433	2.734132	-2.198093
Cl	-3.271526	0.0	0.0
