12

C	0.0	0.0	0.0
C	-0.492186	-0.253711	-1.43643
Br	1.959893	0.0	0.0
H	-1.594968	-0.255966	-1.359281
H	-0.167256	0.578205	-2.066901
C	-0.412071	1.326182	0.464484
N	-0.561316	2.441674	0.804547
C	-0.401673	-1.056496	0.930621
N	-0.577386	-1.908153	1.721511
C	0.003255	-1.509455	-1.980947
N	0.386145	-2.513977	-2.453848
Cl	-3.273606	0.0	0.0
