12

C	0.0	0.0	0.0
C	-0.497966	-0.214203	-1.439383
Br	1.959822	0.0	0.0
H	-0.178125	0.634817	-2.049131
H	-1.600572	-0.218645	-1.353453
C	-0.40878	1.312945	0.503904
N	-0.568754	2.411274	0.891817
C	-0.401491	-1.080757	0.903603
N	-0.571556	-1.951315	1.675414
C	-0.007059	-1.455285	-2.020272
N	0.37293	-2.445489	-2.524661
Cl	-3.28453	0.0	0.0
