16

C	0.0	0.0	0.0
C	-0.272244	0.070192	-1.53791
Cl	1.753503	0.0	0.0
H	0.266592	0.963778	-1.856534
H	-0.39469	0.920455	0.45923
N	-0.647099	-1.081237	0.731287
O	-0.42836	-1.087976	1.968626
O	-1.797436	-1.338829	0.178399
C	-1.648854	0.102278	-2.177072
H	-2.165625	-0.838692	-2.02063
H	-2.257269	0.879751	-1.719627
H	-1.505707	0.307794	-3.244802
N	0.475906	-1.030438	-2.245034
O	1.100529	-0.707661	-3.258749
O	0.374002	-2.174286	-1.816137
H	-2.887819	0.0	0.0
