16

C	0.0	0.0	0.0
C	-0.257672	-0.034808	-1.554141
Cl	1.787346	0.0	0.0
H	0.31678	0.825988	-1.900742
H	-0.31253	0.950321	0.409885
N	-0.553817	-1.040529	0.868564
O	-0.545973	-2.20539	0.428267
O	-0.588309	-0.752064	2.08177
C	-1.628975	0.023914	-2.20497
H	-2.231173	-0.835791	-1.930182
H	-1.465119	0.043693	-3.295294
H	-2.155857	0.922857	-1.898157
N	0.447272	-1.177467	-2.271615
O	1.502775	-0.912412	-2.851694
O	-0.119402	-2.262984	-2.33241
H	-2.122861	0.0	0.0
