16

C	0.0	0.0	0.0
C	-0.561936	0.046644	-1.5108
Cl	1.745021	0.0	0.0
H	-1.641404	-0.237612	-1.449315
H	-0.348967	0.86539	0.586275
N	-0.453963	-1.239088	0.747401
O	-1.705575	-1.195825	1.208872
O	0.20027	-2.292482	0.747568
C	0.053968	-0.945384	-2.448288
H	1.060563	-0.589027	-2.657877
H	0.067698	-1.9404	-2.016735
H	-0.561361	-0.91574	-3.351581
N	-0.619175	1.394015	-1.994914
O	0.417159	2.136535	-1.925779
O	-1.801342	1.820473	-2.247734
H	-1.642813	0.0	0.0
