16

C	0.0	0.0	0.0
C	-0.348997	-0.095605	-1.520644
Cl	1.78919	0.0	0.0
H	0.583256	0.128379	-2.041827
H	-0.301891	0.955344	0.405511
N	-0.508698	-1.0195	0.925798
O	-0.534011	-2.199222	0.536341
O	-0.522543	-0.679956	2.123846
C	-1.40738	0.829663	-2.093919
H	-2.403346	0.435038	-1.939322
H	-1.208197	0.963965	-3.168558
H	-1.346066	1.800253	-1.599009
N	-0.591396	-1.51107	-1.984022
O	0.4111	-2.191874	-2.186035
O	-1.743444	-1.879207	-2.188853
H	-2.069196	0.0	0.0
