16

C	0.0	0.0	0.0
C	-0.27345	0.14063	-1.534072
Cl	1.753501	0.0	0.0
H	0.257528	1.053576	-1.810102
H	-0.394447	0.898847	0.500534
N	-0.646846	-1.113283	0.680407
O	-0.423004	-1.176931	1.913835
O	-1.79897	-1.343522	0.119306
C	-1.649827	0.188994	-2.171319
H	-1.51143	0.467055	-3.222336
H	-2.147015	-0.769911	-2.078663
H	-2.272755	0.920671	-1.663284
N	0.482836	-0.918883	-2.293557
O	1.098907	-0.544789	-3.294536
O	0.392425	-2.082412	-1.917446
H	-2.888262	0.0	0.0
