15

C	-0.12754	-0.022141	-1.539614
C	0.0	0.0	0.0
F	0.102994	1.296302	-1.979634
H	1.096279	0.0	0.0
N	0.851489	-0.928337	-1.994312
H	0.969849	-0.875669	-2.997462
H	1.728554	-0.715956	-1.4816
C	-1.47604	-0.350731	-2.055679
N	-2.550294	-0.598027	-2.459058
C	-0.476797	-1.251635	0.568195
N	-0.896507	-2.215634	1.095669
N	-0.582816	1.178379	0.616152
H	0.149741	1.658037	1.123069
H	-1.315553	0.927091	1.263039
F	2.621031	0.0	0.0
