15

C	-0.575757	0.007491	-1.404579
C	0.0	0.0	0.0
F	-2.009094	-0.010952	-1.306381
H	1.093439	0.0	0.0
N	-0.137823	1.148913	-2.103841
H	-0.736866	1.330313	-2.89789
H	-0.15318	1.9197	-1.443776
C	-0.255112	-1.223012	-2.157536
N	-0.052899	-2.186962	-2.795366
C	-0.505158	-1.14095	0.753222
N	-0.91451	-2.023308	1.415385
N	-0.316279	1.285784	0.637072
H	-1.140614	1.233006	1.222545
H	0.490731	1.525353	1.202222
F	2.522691	0.0	0.0
