15

C	-0.07888	-0.020648	-1.555074
C	0.0	0.0	0.0
F	0.086738	1.340734	-1.959068
H	1.098274	0.0	0.0
N	0.94815	-0.856434	-2.001301
H	1.806828	-0.641681	-1.448768
H	1.082424	-0.807932	-3.002859
C	-1.400447	-0.383266	-2.115867
N	-2.466978	-0.650586	-2.53106
C	-0.523104	-1.24509	0.542431
N	-0.969147	-2.232959	0.997306
N	-0.555199	1.153833	0.668805
H	-1.476509	1.372752	0.304959
H	0.055096	1.934931	0.466537
F	2.637861	0.0	0.0
