12
Coordinates from ORCA-job run
  C   -0.38562933691593      0.54041052276619     -0.26449222625157
  C   0.69982155842240     -0.38358850445599     -0.80481459538407
  F   -1.01822252493465      1.11439787100491     -1.31646476373614
  H   0.21287942566788     -1.08908228600200     -1.48465868895663
  H   1.40359233712485      0.22382441555669     -1.38072136484261
  C   0.11644114595513      1.56780385114616      0.64682838916099
  N   0.56102254669780      2.42186635660812      1.32001906745819
  N   -1.41731755573145     -0.32843632554777      0.46940789864950
  O   -1.35844226546137     -0.34317147230033      1.69117482042403
  O   -2.16142740324917     -0.96353682459536     -0.26209168494183
  C   1.39418761184369     -1.09222192714232      0.26410570689178
  N   1.95309446058080     -1.66726567703832      1.12070744152836
