12
Coordinates from ORCA-job run
  C   -0.32383277689946      0.48485042476979     -0.22148981361195
  C   1.05624632373021     -0.16077250636730     -0.16551439508421
  F   -0.78221465063338      0.52389870193161     -1.48770658653051
  H   1.74255167496849      0.45504436261117     -0.75331362879009
  H   1.40093417317996     -0.17891076067456      0.87043728660707
  C   -0.31832360884849      1.82750203874089      0.36467640159152
  N   -0.27884853045022      2.91232703554162      0.81368473113970
  N   -1.28675899681394     -0.37980288901773      0.61218954532326
  O   -2.20784057649253     -0.91396752891266      0.02160584394172
  O   -0.99190631124273     -0.44971373871558      1.79722570390759
  C   1.01362774218056     -1.51523644865248     -0.70966490972506
  N   0.97536553732152     -2.60521869125475     -1.14213017876904
