15

C	-0.431732	-0.1372	-1.464633
C	0.0	0.0	0.0
F	0.017943	-1.333334	-1.976441
H	1.095892	0.0	0.0
C	-1.906153	-0.116276	-1.592578
N	-3.077678	-0.089005	-1.678874
C	0.108141	0.967847	-2.280134
N	0.463925	1.867235	-2.946396
C	-0.508733	-1.148612	0.741723
N	-0.953598	-2.046795	1.354493
C	-0.468601	1.3177	0.6183
H	-0.032186	2.155281	0.070932
H	-1.557895	1.408724	0.627401
H	-0.099574	1.368398	1.643326
Br	3.376008	0.0	0.0
