15

C	-0.443946	-0.186236	-1.452104
C	0.0	0.0	0.0
F	-1.836199	-0.159665	-1.534592
H	1.095332	0.0	0.0
C	0.054898	0.911238	-2.301054
N	0.371871	1.802124	-2.997399
C	-0.002101	-1.478873	-2.004422
N	0.283919	-2.520217	-2.466843
C	-0.503669	-1.11782	0.791305
N	-0.938851	-1.988858	1.448541
C	-0.467895	1.340845	0.570021
H	-1.554745	1.438301	0.543638
H	-0.124856	1.416599	1.602678
H	-0.008666	2.157332	0.00916
Br	3.359727	0.0	0.0
