15

C	-0.442994	0.013011	-1.463759
C	0.0	0.0	0.0
F	-1.835405	0.0469	-1.542204
H	1.096754	0.0	0.0
C	0.052496	1.218124	-2.153899
N	0.367249	2.204906	-2.707305
C	0.002108	-1.190729	-2.187012
N	0.292007	-2.16375	-2.777399
C	-0.503162	-1.215427	0.631724
N	-0.930589	-2.16837	1.16978
C	-0.468828	1.249916	0.747002
H	-1.555591	1.35222	0.728719
H	-0.005238	2.134438	0.306249
H	-0.131222	1.181958	1.78201
Br	3.360716	0.0	0.0
