15

C	-0.440565	0.065937	-1.463153
C	0.0	0.0	0.0
F	-1.831602	0.118791	-1.5439
H	1.107231	0.0	0.0
C	0.073976	1.285443	-2.112684
N	0.414334	2.273633	-2.647549
C	-0.00535	-1.11734	-2.224478
N	0.283359	-2.066413	-2.852419
C	-0.491695	-1.24155	0.58698
N	-0.890703	-2.228408	1.083208
C	-0.468729	1.221831	0.791408
H	-1.555729	1.322298	0.781511
H	-0.009245	2.122219	0.37915
H	-0.126194	1.119444	1.821837
Br	3.35569	0.0	0.0
