11

C	0.0	0.0	0.0
C	-0.612269	-0.041494	-1.358631
F	1.384078	0.0	0.0
H	-0.38447	0.815674	-1.989794
H	-0.340735	-0.863827	0.569018
H	-0.355917	0.904027	0.49831
H	-1.737319	-0.074618	-1.059237
N	-0.24546	-1.236368	-2.108989
O	-0.102969	-1.134305	-3.336552
O	-0.158331	-2.308125	-1.498076
H	-2.937276	0.0	0.0
