15
Coordinates from ORCA-job run
  C   0.91841248070742     -0.18293827064198      0.29638176328011
  C   -0.30957334904096      0.12464518036170     -0.18944090693396
  N   1.25279750135224     -1.42194207092073      0.87678994903201
  H   0.49469724729299     -1.82724382561848      1.40713048381723
  H   2.09212437882386     -1.38077191180498      1.43449829667676
  C   2.01599886459082      0.72725052863110      0.14293913867306
  N   2.93279825085510      1.45682839952546      0.03304713339349
  C   -1.42321493092379     -0.87690034001716     -0.06426384728885
  H   -1.89919069658123     -0.83922764437352      0.92395472377205
  H   -1.06269553074297     -1.89702497507327     -0.22498313497884
  H   -2.20282897796770     -0.67786147650178     -0.80329268094393
  C   -0.62732858475521      1.44178728286716     -0.82999625720866
  H   -1.45385404798335      1.93246331335851     -0.30503851460984
  H   -0.95181225620649      1.29875906486544     -1.86671453472329
  H   0.22466965057926      2.12317674534256     -0.83101161195734
