15
Coordinates from ORCA-job run
  C   0.85451855178801     -0.13961311612854      0.45418601140435
  C   -0.32422439314195      0.15842852395060     -0.14646476874866
  N   1.07525584500051     -1.30900343585077      1.21005211172006
  H   2.05040039581915     -1.46695777767227      1.41594166378945
  H   0.66643105413452     -2.13122719564113      0.79004227427593
  C   1.94686157518521      0.78989818917088      0.42914634788242
  N   2.86050672889351      1.53180755799732      0.42464706755362
  C   -1.46119091912173     -0.81918393745265     -0.05379775582899
  H   -1.39574354634547     -1.59335639869184     -0.82896932875949
  H   -1.47637686664101     -1.31802662995806      0.91914314004146
  H   -2.41829266773059     -0.31152329365994     -0.18988773452663
  C   -0.54032674003860      1.40840243818582     -0.94498333488862
  H   -0.78496661248958      1.16375967770573     -1.98445008805485
  H   -1.38738233279788      1.97552841693731     -0.54412448201687
  H   0.33452992748590      2.06006698110754     -0.94748112384316
