15
Coordinates from ORCA-job run
  C   0.88299922361803     -0.09987868025500      0.40799168108253
  C   -0.36205642882252      0.11558174309742     -0.08441628511001
  N   2.01920469081991     -0.31171927858462     -0.39893533912942
  H   2.81448123156354     -0.64996927700664      0.12199374857237
  H   1.83368626068697     -0.91246791134881     -1.18891332388050
  C   1.13651053618226     -0.03120212445603      1.81833513439483
  N   1.37345872507529      0.01867331906725      2.97011756021384
  C   -1.55845258609786      0.34023073825282      0.79014906256130
  H   -2.03891956224202      1.29269102878462      0.54146526309561
  H   -1.30471414180754      0.35419800481966      1.85105078727055
  H   -2.30583487551091     -0.44444895371172      0.62995396043188
  C   -0.57609406059648      0.08728036918815     -1.57125439157518
  H   -0.73298021882201     -0.93442719171965     -1.94013656079650
  H   0.28140815791010      0.50879821134315     -2.10305771094658
  H   -1.46169695195677      0.66466000252940     -1.84434358618473
