15
Coordinates from ORCA-job run
  C   0.85887773259596     -0.13302006356227      0.44705230553951
  C   -0.32370514440692      0.15576124256084     -0.15031274126085
  N   1.08208120754225     -1.28802475412109      1.22346066718318
  H   0.65864465551260     -2.11498978324370      0.82785947312121
  H   2.05897884340069     -1.44891411122824      1.41786417394261
  C   1.95286079343094      0.79350833294650      0.39777798913014
  N   2.86803275050424      1.53307768187019      0.37355676156758
  C   -1.46093184094249     -0.81851218418636     -0.02753031090354
  H   -1.38528784542198     -1.62830488702074     -0.76472012915648
  H   -1.48667787692117     -1.27276074288509      0.96726895019969
  H   -2.41691726796395     -0.31903180397211     -0.19733104837455
  C   -0.54644619140075      1.39367923662048     -0.96551568477213
  H   -1.37498705113470      1.97875089494763     -0.55183127502756
  H   0.33610150070926      2.03387515356106     -1.00446593064231
  H   -0.82262426550399      1.13290578771290     -1.99313320054649
