15
Coordinates from ORCA-job run
  C   0.86652077284283     -0.11324956224481      0.43732442138153
  C   -0.36045664305034      0.11528574157928     -0.09299580447980
  N   2.02528671238866     -0.32321303562239     -0.33746293660621
  H   1.85667342470664     -0.90838030963607     -1.14311809240508
  H   2.80035172655632     -0.67936162817221      0.20164385799011
  C   1.07623827795334     -0.06137091569190      1.85529449704830
  N   1.27717450578971     -0.02652114606216      3.01445601387095
  C   -1.58166098503972      0.35021423337848      0.74352168013164
  H   -2.02711112390515      1.32151855596936      0.50288870074795
  H   -1.36685504318322      0.32984867008879      1.81318667539510
  H   -2.34274032286348     -0.40966814773390      0.53471486686138
  C   -0.52155977425772      0.10353773267841     -1.58690371778802
  H   -0.61779128141072     -0.91753179029845     -1.97843115992477
  H   0.33631260839000      0.57055382265153     -2.07987440890876
  H   -1.42138285491716      0.64633777911603     -1.88324459331433
