15
Coordinates from ORCA-job run
  C   0.83038605475471     -0.14250853649891      0.43317880927993
  C   -0.34703515462115      0.08595781751372     -0.19283647751554
  N   1.01662288685522     -1.24870738590491      1.32778096830507
  H   1.30517187095608     -0.91053298174164      2.23915811296015
  H   1.75819524264856     -1.84946611802117      0.98486221389000
  C   1.95820718854202      0.72679999521514      0.21430249192233
  N   2.91752486929269      1.39618980007625      0.07804523707785
  C   -0.54512055578582      1.23995476058157     -1.12992568098440
  H   -0.83030223837809      0.87292161745739     -2.12121729795178
  H   0.34613641374049      1.85980311914724     -1.23434789341253
  H   -1.36737051638246      1.87110419665003     -0.77760612251252
  C   -1.52775761448020     -0.81208800720097      0.01468067488856
  H   -1.84090761561490     -1.24363494502687     -0.94207816320976
  H   -2.37781715859654     -0.23433853482035      0.39268050160486
  H   -1.29493367293063     -1.61245479742651      0.71332262565780
