15
Coordinates from ORCA-job run
  C   0.88643504010395     -0.17034932566582      0.37424760696797
  C   -0.29430711989378      0.10667894471690     -0.23223997623251
  N   1.11416346268938     -1.32619165100981      1.14851485116636
  H   1.96302848709969     -1.27546767770395      1.69185882281671
  H   0.32971803085638     -1.56260079854814      1.73892385071303
  C   2.02961711058618      0.67378803877410      0.17976428478355
  N   2.98373154224174      1.34848147645271      0.03931333552888
  C   -0.51840273915300      1.33349987203039     -1.06342029160245
  H   -0.82489682017261      1.05583913462730     -2.07760936382543
  H   -1.32635677604427      1.94129876146378     -0.64147834173196
  H   0.37303283091132      1.95862353604364     -1.13618202532104
  C   -1.44871973542065     -0.83633877004294     -0.04253464835796
  H   -1.96803056745210     -0.65862446059491      0.90821457444179
  H   -2.18562573557728     -0.71116926436626     -0.83836245781437
  H   -1.11238701077494     -1.87746781617700     -0.04901022153255
