15
Coordinates from ORCA-job run
  C   0.86890474168181     -0.14684481592620      0.42315927515684
  C   -0.37872946258727     -0.00942854288437     -0.09008327240253
  N   2.03417804575806     -0.22505768254505     -0.36662836565497
  H   2.02287626797304      0.42026300123662     -1.14351959590413
  H   2.88149718523372     -0.11539962534598      0.17017010810574
  C   1.06953604404948     -0.31760693693287      1.83310966049519
  N   1.26400095613384     -0.45782159054359      2.98540117180075
  C   -1.60998980190940      0.05985695699737      0.76148779857553
  H   -2.30634670699502     -0.74105685620208      0.49036934666800
  H   -1.38815463979644     -0.02737359635574      1.82637079259177
  H   -2.13630411938884      1.00710887947825      0.59988934766752
  C   -0.54474739180152      0.11311601629320     -1.57848132648770
  H   -0.36621402861220      1.13932736848435     -1.92502089228253
  H   -1.56031555134469     -0.15399569556673     -1.87740292107833
  H   0.15080846160544     -0.54408688018719     -2.10882112725116
