15
Coordinates from ORCA-job run
  C   0.86109862510134     -0.21294483501233      0.39995709509850
  C   -0.36173654695457      0.14688151065039     -0.06305722570874
  N   1.99485747546065     -0.34815598503843     -0.42985633996599
  H   1.77443848441635     -0.79619430056531     -1.30927698956991
  H   2.75344962015810     -0.83469719910314      0.02409002874409
  C   1.09788305847474     -0.39430700302046      1.80257390512029
  N   1.31822293151825     -0.56103436714659      2.94655888564548
  C   -1.55771383887884      0.31005510732294      0.82480533556079
  H   -2.33918473033397     -0.40821541821511      0.55609335368423
  H   -1.98747268447700      1.31046601743436      0.70490626758479
  H   -1.31726118457154      0.16818593230752      1.87971096543820
  C   -0.52990602598752      0.36432360172665     -1.53984697962443
  H   0.30313797801868      0.95295921943336     -1.93788241964390
  H   -1.46304313549232      0.88721867237453     -1.76370871262833
  H   -0.54677002645236     -0.58354095314837     -2.09606716973504
