15
Coordinates from ORCA-job run
  C   0.87663745182543     -0.31809932277386      0.16803488563599
  C   -0.36468423689836      0.16117857107363     -0.07632493808338
  N   1.09369430694354     -1.57462672135788      0.82582766017448
  H   1.58103078129888     -2.21099317714626      0.20447600224428
  H   1.68484270082459     -1.44079250841705      1.63866160080882
  C   2.04226378156008      0.42850436402982     -0.23255829778732
  N   3.03243398296041      0.99099032517217     -0.53243359435804
  C   -0.59502711831024      1.47121952372732     -0.76922117357919
  H   -1.16631748015336      2.14237649771418     -0.11976840958300
  H   -1.19548801459328      1.31712439733709     -1.67155847349571
  H   0.33208001041481      1.97104612387534     -1.05209976268191
  C   -1.58873041512650     -0.59896767574925      0.33284048486240
  H   -1.32540547731231     -1.51595986583624      0.85540640363873
  H   -2.18988417753969     -0.84463675989864     -0.54923155198097
  H   -2.21744609589399      0.02263622824964      0.97894916418484
