15
Coordinates from ORCA-job run
  C   0.92437712434333     -0.20302424057026      0.24016702077711
  C   -0.32184722832166      0.12892337317898     -0.17887373375234
  N   1.24295119640061     -1.44016539151359      0.83763810835850
  H   2.16182853361840     -1.45064910315716      1.25468687117125
  H   0.54814712481778     -1.74029695070713      1.50687137259582
  C   2.03723240412776      0.67115910306937      0.00407776264053
  N   2.97069629795363      1.36471992881993     -0.17660799652096
  C   -0.64524383688904      1.44560147166806     -0.81785094623462
  H   0.22879186952299      2.09189167602062     -0.91264107524254
  H   -1.06545768711666      1.29085803920954     -1.81740421380907
  H   -1.40175434952936      1.98002924241107     -0.23290473227198
  C   -1.44607725207985     -0.84481863914874      0.03208523870093
  H   -2.26033238412031     -0.65235961444359     -0.66956820667886
  H   -1.10770569299384     -1.87514057440846     -0.11184561910278
  H   -1.86660611973379     -0.76672832042864      1.04317014936900
