17

C	0.0	0.0	0.0
C	-0.443828	-0.018766	-1.452146
F	1.416138	0.0	0.0
H	-1.53464	-0.098961	-1.451828
H	-0.17213	0.951071	-1.901362
C	-0.460466	1.26744	0.685082
H	-0.064301	2.145473	0.166277
H	-1.553061	1.297461	0.679059
H	-0.103519	1.284106	1.71864
C	-0.453454	-1.23874	0.739847
H	-0.109562	-2.128366	0.21173
H	-0.044633	-1.234066	1.75462
H	-1.545148	-1.241102	0.784535
N	0.138887	-1.162124	-2.158295
H	-0.273678	-1.226462	-3.080459
H	1.131449	-0.99582	-2.272436
Br	-4.096027	0.0	0.0
