17

C	0.0	0.0	0.0
C	-0.446939	0.09115	-1.44826
F	1.416137	0.0	0.0
H	-1.53856	0.164942	-1.441457
H	-0.172377	-0.85235	-1.948247
C	-0.452011	1.200757	0.80169
H	-0.102299	2.11543	0.322701
H	-1.544119	1.203807	0.843466
H	-0.047683	1.139643	1.816232
C	-0.460658	-1.300024	0.621863
H	-0.064464	-2.151019	0.060395
H	-1.553352	-1.330155	0.614058
H	-0.103854	-1.368392	1.653375
N	0.127073	1.272009	-2.0981
H	-0.317195	1.403556	-2.998291
H	1.112414	1.103668	-2.258128
Br	-4.113573	0.0	0.0
