17

C	0.0	0.0	0.0
C	-0.320989	-0.157309	-1.500953
F	1.409197	0.0	0.0
H	0.296024	-0.996604	-1.845083
H	0.071396	0.737596	-1.999741
C	-0.486058	1.31418	0.567375
H	-0.085863	2.148476	-0.015307
H	-0.159447	1.424525	1.605735
H	-1.579284	1.341243	0.54148
C	-0.486059	-1.176351	0.814734
H	-0.127956	-2.115035	0.381004
H	-0.113048	-1.103545	1.840301
H	-1.579075	-1.178619	0.837231
N	-1.683569	-0.379366	-1.934694
H	-2.323292	0.322685	-1.577794
H	-2.045092	-1.241248	-1.547201
Br	-4.459417	0.0	0.0
