17

C	0.0	0.0	0.0
C	-0.309886	0.157433	-1.503768
F	1.409645	0.0	0.0
H	0.243776	-0.645369	-2.006263
H	0.161965	1.097837	-1.815234
C	-0.493067	1.169041	0.820052
H	-1.586977	1.177386	0.822094
H	-0.141492	1.084797	1.852925
H	-0.121685	2.109472	0.402724
C	-0.491432	-1.317327	0.553388
H	-0.126634	-2.148259	-0.058134
H	-0.129562	-1.455344	1.576487
H	-1.585067	-1.324881	0.564476
N	-1.678825	0.137809	-1.96809
H	-2.130668	-0.736481	-1.730076
H	-2.250404	0.826639	-1.493386
Br	-4.432135	0.0	0.0
