12

C	0.0	0.0	0.0
C	-0.467067	-0.084521	-1.468824
Br	1.959976	0.0	0.0
H	-0.134483	-1.039214	-1.88433
H	-1.580041	-0.062165	-1.297279
C	-0.427247	1.242887	0.643972
N	-0.595276	2.262082	1.204007
C	-0.456208	-1.176331	0.740432
N	-0.583717	-2.191997	1.319987
C	0.017815	1.013265	-2.283744
N	0.367674	1.894446	-2.978613
F	-2.482953	0.0	0.0
