12

C	0.0	0.0	0.0
C	-0.47774	-0.131649	-1.460832
Br	1.959928	0.0	0.0
H	-0.150174	0.750452	-2.016463
H	-1.592107	-0.126597	-1.27277
C	-0.450569	1.272817	0.56444
N	-0.580891	2.355551	1.004499
C	-0.429933	-1.131827	0.823127
N	-0.59162	-2.061025	1.524721
C	-0.002949	-1.339379	-2.107731
N	0.339388	-2.313964	-2.66885
F	-2.495278	0.0	0.0
