12

C	0.0	0.0	0.0
C	-0.277634	0.155699	-1.524873
Br	1.962479	0.0	0.0
H	0.182243	1.10125	-1.82698
H	0.284748	-0.635007	-2.030003
C	-0.447476	1.142163	0.787958
N	-0.557893	2.126146	1.423445
C	-0.43488	-1.284114	0.536335
N	-0.538759	-2.375348	0.963001
C	-1.656593	0.127895	-2.023912
N	-2.485082	0.131313	-2.862845
F	-2.279778	0.0	0.0
