12

C	0.0	0.0	0.0
C	-0.268648	0.24581	-1.515705
Br	1.963625	0.0	0.0
H	0.138765	1.236873	-1.745263
H	0.347594	-0.471639	-2.06584
C	-0.456152	1.087003	0.857976
N	-0.56193	2.023935	1.562157
C	-0.430542	-1.321004	0.446573
N	-0.548585	-2.444424	0.771193
C	-1.632542	0.165242	-2.046729
N	-2.460333	0.146251	-2.886082
F	-2.270486	0.0	0.0
