12

C	0.0	0.0	0.0
C	-0.479943	0.102527	-1.46063
Br	1.972324	0.0	0.0
H	-0.160598	-0.794137	-1.997337
H	-1.595175	0.105065	-1.264261
C	-0.428827	1.146848	0.801264
N	-0.576217	2.11359	1.453629
C	-0.437802	-1.265271	0.590355
N	-0.584795	-2.333009	1.059935
C	-0.0009	1.29122	-2.137583
N	0.346104	2.247171	-2.727222
F	-2.499666	0.0	0.0
