12

C	0.0	0.0	0.0
C	-0.468549	-0.126204	-1.465412
Br	1.960131	0.0	0.0
H	-0.133759	-1.090902	-1.855358
H	-1.5819	-0.100471	-1.293363
C	-0.430819	1.259184	0.609334
N	-0.594348	2.296882	1.136368
C	-0.45273	-1.155753	0.77464
N	-0.580601	-2.150884	1.387662
C	0.014717	0.949925	-2.310044
N	0.367897	1.810439	-3.028987
F	-2.485485	0.0	0.0
