12

C	0.0	0.0	0.0
C	-0.2822	-0.120301	-1.525346
Br	1.965423	0.0	0.0
H	0.246358	0.706224	-2.010083
H	0.209395	-1.038319	-1.861735
C	-0.435454	1.268159	0.575074
N	-0.540334	2.344173	1.040718
C	-0.450729	-1.165036	0.753054
N	-0.567146	-2.169282	1.356411
C	-1.665611	-0.135796	-2.010976
N	-2.496168	-0.187847	-2.847903
F	-2.285555	0.0	0.0
