15

C	-0.559862	-0.025826	-1.414561
C	0.0	0.0	0.0
F	0.001595	-1.068135	-2.133655
H	1.094911	0.0	0.0
H	-1.641764	-0.256813	-1.390066
N	-0.260708	1.187741	-2.141285
H	-0.833147	1.944564	-1.787426
H	-0.513425	1.03213	-3.110701
C	-0.484501	-1.181123	0.704692
N	-0.902871	-2.116358	1.281518
C	-0.412727	1.269204	0.747557
H	-1.498042	1.429083	0.760272
H	-0.058054	1.210778	1.778173
H	0.087835	2.122121	0.284978
H	2.826417	0.0	0.0
