15

C	-0.418341	0.075227	-1.454713
C	0.0	0.0	0.0
F	-1.734271	0.642892	-1.553826
H	1.095085	0.0	0.0
H	0.232301	0.792717	-1.961135
N	-0.358013	-1.171397	-2.117177
H	-0.644657	-1.076554	-3.081591
H	-0.941683	-1.856494	-1.652909
C	-0.522226	-1.19735	0.634085
N	-0.960621	-2.17222	1.125969
C	-0.39328	1.256784	0.776636
H	0.030602	2.126849	0.267772
H	0.050521	1.2145	1.773559
H	-1.474059	1.381669	0.856937
H	2.765541	0.0	0.0
