18

C	0.0	0.0	0.0
C	-0.323804	0.072607	-1.509556
F	1.407972	0.0	0.0
H	0.004325	-0.914382	-1.883588
N	-0.498718	1.136737	0.696572
H	-0.365178	1.005372	1.694648
H	-1.507153	1.17577	0.525412
N	-0.430168	-1.260442	0.538783
H	0.278298	-1.966631	0.385146
H	-0.660463	-1.190998	1.520225
C	0.515132	1.148271	-2.206361
H	0.281091	2.114567	-1.756542
H	0.22069	1.186793	-3.259353
H	1.59036	0.965065	-2.140833
N	-1.722779	0.341996	-1.779594
H	-2.025749	-0.208218	-2.573551
H	-2.395506	0.109078	-1.013225
H	-3.681498	0.0	0.0
