18

C	0.0	0.0	0.0
C	-0.487182	-0.001379	-1.479357
F	1.380379	0.0	0.0
H	-1.583426	-0.026793	-1.396865
N	-0.323747	1.279966	0.658273
H	-1.270448	1.198616	1.009996
H	0.32203	1.428251	1.432226
N	-0.339164	-1.258813	0.666357
H	-0.111311	-1.176546	1.652366
H	-1.352146	-1.344748	0.604778
C	-0.035531	-1.233589	-2.226531
H	-0.419265	-2.146427	-1.764785
H	-0.40384	-1.171693	-3.254653
H	1.051865	-1.253828	-2.231061
N	-0.007933	1.213644	-2.122007
H	-0.521134	1.328856	-2.987062
H	-0.23086	1.991456	-1.505988
H	-1.717705	0.0	0.0
