18

C	0.0	0.0	0.0
C	-0.413962	0.057026	-1.491391
F	1.408719	0.0	0.0
H	-0.374194	-0.990048	-1.85365
N	-0.449516	1.088274	0.815629
H	-0.330757	1.947075	0.28987
H	-1.460258	0.963375	0.903073
N	-0.468852	-1.199547	0.59529
H	-0.25917	-1.178779	1.58635
H	-0.025811	-1.996647	0.162783
C	0.569155	0.870545	-2.331494
H	0.623548	1.894506	-1.948314
H	1.572875	0.439226	-2.345731
H	0.194269	0.930684	-3.35885
N	-1.72292	0.674183	-1.597262
H	-2.097779	0.491166	-2.523565
H	-2.443911	0.299078	-0.93257
H	-3.834577	0.0	0.0
