18

C	0.0	0.0	0.0
C	-0.428412	-0.015957	-1.479289
F	1.391362	0.0	0.0
H	-1.521816	0.055207	-1.459976
N	-0.432503	1.257259	0.577499
H	-0.153962	1.262131	1.556197
H	-1.462075	1.17603	0.556262
N	-0.462893	-1.194411	0.655517
H	-1.48968	-1.121518	0.556074
H	-0.269801	-1.096756	1.650746
C	-0.00518	-1.2991	-2.174576
H	-0.289995	-1.240999	-3.228159
H	1.080395	-1.428355	-2.112929
H	-0.474404	-2.16676	-1.712548
N	0.106676	1.134725	-2.216542
H	1.116927	1.104398	-2.105096
H	-0.18781	1.958939	-1.701153
H	-3.087416	0.0	0.0
