15

C	-0.48158	-0.050978	-1.442937
C	0.0	0.0	0.0
Cl	0.184385	-1.426955	-2.317902
H	1.092778	0.0	0.0
H	-0.353801	0.95036	0.409775
C	-1.942574	-0.093713	-1.539898
N	-3.114235	-0.177285	-1.577407
N	-0.050394	1.266767	-2.134359
O	-0.654191	2.251381	-1.719237
O	0.823793	1.241241	-2.978741
C	-0.512243	-1.168112	0.831208
H	-1.604689	-1.1978	0.886412
H	-0.116771	-1.070257	1.843937
H	-0.150951	-2.117238	0.433077
Cl	3.416742	0.0	0.0
