15

C	-0.485437	-0.062483	-1.44095
C	0.0	0.0	0.0
Cl	0.139462	-1.470806	-2.295731
H	1.093985	0.0	0.0
H	-0.349145	0.95664	0.398796
C	-1.947201	-0.064744	-1.536341
N	-3.120988	-0.095241	-1.590646
N	-0.025145	1.232674	-2.160192
O	-0.570603	2.244149	-1.728734
O	0.803657	1.163249	-3.047197
C	-0.519567	-1.154994	0.844769
H	-0.15423	-2.110333	0.466078
H	-0.135521	-1.040346	1.860021
H	-1.612773	-1.184234	0.88899
Cl	3.39289	0.0	0.0
