18

C	-0.655507	0.063312	-1.383108
C	0.0	0.0	0.0
F	-0.066918	1.002601	-2.172935
H	1.104814	0.0	0.0
N	-0.368094	-1.280425	-2.05365
O	-1.272418	-2.111497	-2.070146
O	0.751158	-1.416363	-2.527016
C	-2.144889	0.301204	-1.356644
H	-2.33229	1.305728	-0.974923
H	-2.644384	-0.435232	-0.731133
H	-2.544398	0.227567	-2.368656
N	-0.423414	-1.170609	0.694639
H	0.325934	-1.471845	1.302827
H	-1.252695	-0.994281	1.246237
N	-0.417931	1.283099	0.713171
O	-1.196107	1.185677	1.666619
O	0.010953	2.339326	0.263889
Cl	3.26174	0.0	0.0
