18

C	-0.421637	0.203332	-1.453603
C	0.0	0.0	0.0
F	-0.034063	-0.933409	-2.110553
H	1.107226	0.0	0.0
N	-1.943646	0.224877	-1.533265
O	-2.480029	1.136329	-0.913864
O	-2.509964	-0.618166	-2.214252
C	0.136352	1.393366	-2.183171
H	-0.095802	1.271921	-3.243831
H	1.21683	1.396062	-2.031864
H	-0.284883	2.31955	-1.805576
N	-0.631272	-1.203575	0.487277
H	-0.313323	-1.366606	1.433648
H	-0.270993	-1.962997	-0.077407
N	-0.380253	1.152347	0.880541
O	0.025802	2.261211	0.546869
O	-1.005287	0.907702	1.910144
Cl	3.286372	0.0	0.0
