18

C	-0.493493	-0.070326	-1.433928
C	0.0	0.0	0.0
F	-1.849611	-0.293853	-1.454317
H	1.094846	0.0	0.0
N	-0.251899	1.217882	-2.200229
O	-1.053611	1.487955	-3.088572
O	0.775967	1.82487	-1.933425
C	0.229272	-1.156914	-2.188413
H	0.001865	-2.111206	-1.715456
H	-0.110322	-1.155301	-3.226508
H	1.305993	-0.978726	-2.12852
N	-0.422783	-1.183107	0.685953
H	0.105897	-1.270255	1.543113
H	-1.412667	-1.157344	0.893422
N	-0.499953	1.243509	0.715727
O	-0.25017	1.295047	1.916566
O	-1.151074	2.08349	0.094144
Cl	3.284129	0.0	0.0
