16
Coordinates from ORCA-job run
  C   0.56179267160632     -0.15759749937270     -0.14766427358810
  C   -0.93033606286874     -0.17973119976173      0.25674420274269
  F   0.57406415758966     -0.14556652834612     -1.55265003780875
  H   -1.00419887467062     -0.08615112438698      1.34083498968758
  N   1.15156047409987     -1.32854457469525      0.38627940722323
  H   2.15789403308246     -1.30655859635056      0.28492022970595
  H   0.79114248428407     -2.16495396317048     -0.05859565012386
  C   1.28450047001849      1.08466144978301      0.32232233079367
  H   1.22408614139667      1.18328037454921      1.40603715784278
  H   0.86825159751598      1.97517213314011     -0.14428184833565
  H   2.33303339954940      1.00540208126044      0.02653727741272
  C   -1.57517504995578     -1.40319848366201     -0.20311705034486
  N   -2.04041877311097     -2.42738576878401     -0.53846919245542
  N   -1.63896733252419      1.01842052217495     -0.32245473186924
  O   -2.16038060468246      0.89928282338747     -1.42335494649094
  O   -1.59584873133016      2.03346835423466      0.36791213560821
