16
Coordinates from ORCA-job run
  C   0.61980948960972      0.03145582339415     -0.25051172845103
  C   -0.86309987656266     -0.35526181385166      0.03609478589790
  F   0.58609101404279      0.69477793707469     -1.46588460221043
  H   -0.92134356542414     -0.85446038593718      1.00523325835940
  N   1.45442076284118     -1.11099717748280     -0.40995829077364
  H   1.72890365418788     -1.52426055756964      0.46914501567366
  H   1.06619142177330     -1.80620238098813     -1.03476596514064
  C   1.18378411865581      0.96405493425644      0.79733340090108
  H   0.66183330492899      1.91929474509336      0.78185154583659
  H   2.23435251194317      1.13055099081984      0.55839486412482
  H   1.09961569965123      0.54004383034242      1.80001144361142
  C   -1.37778766184434     -1.21823801714907     -1.01860923459600
  N   -1.72941190764620     -1.96732672797997     -1.85150664174713
  N   -1.72097052734814      0.87791387421470      0.15860032099569
  O   -2.22685491858507      1.32477627467346     -0.86270212778816
  O   -1.79553352022352      1.35287865108940      1.28927395530648
