16

C	0.0	0.0	0.0
C	-0.554216	-0.072785	-1.434478
Cl	1.782728	0.0	0.0
H	-1.66537	-0.063964	-1.246337
N	-0.47418	1.273303	0.487687
H	-0.171419	1.378177	1.452103
H	-1.50462	1.14853	0.490896
N	-0.452616	-1.200793	0.660923
H	-1.485201	-1.116419	0.624264
H	-0.171478	-1.145447	1.63615
N	-0.212956	-1.366148	-2.106503
O	0.863889	-1.435373	-2.698951
O	-1.039169	-2.269027	-2.023996
C	-0.128099	1.034565	-2.26962
N	0.158761	1.918621	-2.98778
H	-2.93298	0.0	0.0
