16

C	0.0	0.0	0.0
C	-0.532724	-0.076763	-1.45641
Cl	1.782274	0.0	0.0
H	-1.648281	-0.141426	-1.249883
N	-0.489971	1.267528	0.462348
H	-0.25998	1.311316	1.451453
H	-1.52109	1.154403	0.405396
N	-0.445038	-1.065822	0.851232
H	-0.176579	-1.963468	0.463864
H	-1.474409	-0.995325	0.803455
N	-0.098632	-1.309599	-2.167707
O	-0.491089	-2.381237	-1.701866
O	0.6099	-1.202363	-3.169734
C	-0.20325	1.090941	-2.253095
N	0.011301	2.028877	-2.927566
H	-2.896435	0.0	0.0
