16

C	0.0	0.0	0.0
C	-0.554247	0.030625	-1.432476
Cl	1.79702	0.0	0.0
H	-1.666896	0.014015	-1.239893
N	-0.468879	1.234955	0.577746
H	-0.156947	1.275849	1.5438
H	-1.4996	1.111027	0.578371
N	-0.445985	-1.238863	0.581905
H	-1.478337	-1.159867	0.550925
H	-0.164608	-1.24658	1.55774
N	-0.200998	-1.200933	-2.205844
O	0.850138	-1.190849	-2.847754
O	-0.991871	-2.136875	-2.150776
C	-0.146207	1.206565	-2.178622
N	0.122235	2.15196	-2.821985
H	-2.922484	0.0	0.0
