12

C	-0.487446	-0.016042	-1.439377
C	0.0	0.0	0.0
Br	-0.063315	1.661786	-2.370349
H	1.099294	0.0	0.0
H	0.05586	-0.785681	-1.993611
H	-0.330123	-0.950927	0.438168
C	-1.924762	-0.235787	-1.560189
N	-3.073244	-0.463033	-1.661697
N	-0.609912	1.105146	0.74806
H	-0.529666	0.880069	1.733261
H	-0.010966	1.914066	0.608246
H	2.960337	0.0	0.0
