12

C	-0.59695	0.157218	-1.393416
C	0.0	0.0	0.0
Br	-0.14889	-1.35775	-2.553357
H	1.097641	0.0	0.0
H	-1.687233	0.152898	-1.328246
H	-0.369006	-0.946891	0.406495
C	-0.193907	1.396594	-2.054097
N	0.111013	2.388873	-2.605379
N	-0.517715	1.134068	0.792797
H	-0.666492	0.816888	1.74273
H	0.247116	1.807234	0.843108
H	2.957861	0.0	0.0
