12

C	-0.326912	0.035284	-1.487964
C	0.0	0.0	0.0
Br	-2.249849	0.396147	-1.879163
H	1.095116	0.0	0.0
H	0.20313	0.867567	-1.955731
H	-0.391529	-0.917492	0.447418
C	0.008609	-1.203838	-2.17876
N	0.242742	-2.200214	-2.754788
N	-0.409024	1.171475	0.749762
H	0.275588	1.904218	0.601116
H	-1.322692	1.502566	0.468668
H	2.849916	0.0	0.0
