12

C	-0.591288	0.033805	-1.40486
C	0.0	0.0	0.0
Br	-0.141617	-1.5859	-2.418231
H	1.097673	0.0	0.0
H	-1.68187	0.040573	-1.346083
H	-0.367349	-0.906154	0.490376
C	-0.182828	1.204604	-2.174489
N	0.116729	2.135986	-2.823458
N	-0.501671	1.208424	0.682181
H	0.285847	1.850158	0.730501
H	-0.727105	0.974607	1.640942
H	2.94131	0.0	0.0
