12

C	-0.532371	0.01611	-1.433944
C	0.0	0.0	0.0
Br	0.095418	-1.525148	-2.4847
H	1.092496	0.0	0.0
H	-1.621774	-0.095103	-1.447381
H	-0.350034	0.932628	0.462548
C	-0.207227	1.242974	-2.153548
N	0.012775	2.260244	-2.699932
N	-0.438264	-1.153158	0.771872
H	0.274101	-1.867142	0.689074
H	-1.31103	-1.537252	0.432468
H	2.908808	0.0	0.0
