19

C	-0.003498	0.022949	0.002323
C	-0.514813	0.160816	-1.419349
F	1.359994	-0.255007	-0.00287
H	-1.515848	0.593557	-1.344662
N	-0.01729	1.40734	0.736844
O	0.578723	1.439183	1.812875
O	-0.663843	2.337433	0.262925
N	-0.678986	-0.92237	0.755252
H	-1.688888	-0.953338	0.549539
H	-0.492821	-0.82888	1.744412
C	-0.642378	-1.227596	-2.04881
H	0.30054	-1.776272	-1.971288
H	-0.896563	-1.119898	-3.10756
H	-1.435079	-1.798439	-1.568527
C	0.393749	1.052093	-2.264068
H	1.381179	0.597862	-2.375462
H	-0.041015	1.166529	-3.260638
H	0.510828	2.047756	-1.836065
Cl	-3.781647	-0.852983	0.022383
