19

C	-0.0629	0.043219	0.009872
C	-0.40331	-0.31122	-1.423845
F	1.298391	-0.237316	0.234403
H	0.417082	0.105727	-2.015765
N	-0.001705	1.612148	0.132664
O	0.633369	2.217167	-0.726232
O	-0.559404	2.134701	1.094767
N	-0.849129	-0.52718	0.972047
H	-0.882427	-0.012715	1.838559
H	-1.774776	-0.874813	0.698515
C	-1.722809	0.317361	-1.869462
H	-1.702175	1.407116	-1.787557
H	-2.55908	-0.077816	-1.289596
H	-1.900036	0.069979	-2.920338
C	-0.432524	-1.831554	-1.584375
H	0.475401	-2.284965	-1.181138
H	-0.504907	-2.08372	-2.64684
H	-1.300573	-2.253764	-1.074718
Cl	-3.791297	-1.74664	0.392069
