19

C	-0.008652	0.038132	-0.002942
C	-0.490078	0.104221	-1.440144
F	1.35688	-0.228547	0.033615
H	-1.494503	0.534498	-1.408226
N	-0.047818	1.455452	0.664661
O	-0.687818	2.358042	0.13229
O	0.522637	1.541996	1.751487
N	-0.693292	-0.875829	0.779564
H	-1.697868	-0.92692	0.552793
H	-0.530324	-0.733618	1.76696
C	-0.59642	-1.313557	-2.004688
H	-1.396991	-1.865306	-1.51518
H	-0.826875	-1.258638	-3.072873
H	0.347269	-1.851911	-1.879378
C	0.431382	0.960185	-2.307324
H	0.016668	1.024376	-3.316873
H	1.423497	0.507842	-2.376668
H	0.533827	1.975784	-1.924848
Cl	-3.780997	-0.878213	-0.013308
