13

C	-0.464576	-0.122043	-1.422716
C	0.0	0.0	0.0
F	-0.13409	-1.328097	-1.952613
H	1.09379	0.0	0.0
H	-0.085496	0.672396	-2.067534
H	-0.351015	0.962635	0.377003
N	-1.975691	-0.007695	-1.475761
O	-2.421853	1.085453	-1.135954
O	-2.63221	-0.968653	-1.846141
N	-0.608315	-1.081251	0.784084
H	-0.466544	-0.866965	1.76567
H	-0.072041	-1.924969	0.605481
Cl	3.503646	0.0	0.0
