13

C	-0.56028	-0.017429	-1.401222
C	0.0	0.0	0.0
F	-0.466247	1.200247	-2.000168
H	1.100217	0.0	0.0
H	-1.60356	-0.345003	-1.405406
H	-0.340655	0.948412	0.426078
N	0.159236	-1.019502	-2.279763
O	0.648389	-0.6424	-3.333136
O	0.143091	-2.172503	-1.855516
N	-0.59025	-1.097242	0.783566
H	-0.153907	-1.954457	0.463571
H	-0.27651	-0.971226	1.739699
Cl	3.492247	0.0	0.0
