13

C	-0.508521	-0.074036	-1.409874
C	0.0	0.0	0.0
F	-1.887254	-0.09694	-1.433809
H	1.091293	0.0	0.0
H	-0.130175	-0.937466	-1.951873
H	-0.356982	0.935537	0.444985
N	-0.111025	1.142065	-2.200179
O	-0.54313	2.220821	-1.799828
O	0.593852	0.969578	-3.191582
N	-0.455087	-1.209396	0.688988
H	-1.298785	-1.026327	1.213688
H	0.269116	-1.499308	1.332513
Cl	3.43879	0.0	0.0
