11
Coordinates from ORCA-job run
  C   -0.26560881413941     -0.12444204139824      0.07108936450898
  C   0.95099734118139     -0.01517858516641     -0.83329056180775
  Br  -1.78678080285977     -0.83613438818936     -1.08609215577317
  H   1.18107184036432     -0.97560952881678     -1.29159146489340
  H   0.75473308431589      0.71156092836320     -1.62413899579331
  H   1.79847599128695      0.32220842406596     -0.23267654850717
  C   -0.08249799682794     -1.15008005663782      1.09923380159327
  N   0.08763079308508     -1.95504926797920      1.93780545869733
  N   -0.56598396817286      1.11416187243797      0.68151162587009
  H   -0.69687575739685      1.84304321304248     -0.00873368834460
  H   -1.37616171083680      1.06451943027820      1.28588316444974
