11
Coordinates from ORCA-job run
  C   -0.37464797779731     -0.20468646577887     -0.01839069659120
  C   0.96193518819066      0.06586811454563     -0.70558481536792
  Br  -1.59976397224490     -0.95334991654351     -1.37429388987110
  H   1.38625517525946     -0.84457897871562     -1.13058375559596
  H   0.81642423039202      0.79527058421050     -1.50486394242519
  H   1.65910199582964      0.47596938267612      0.03106735677558
  C   -0.20691950525187     -1.22359394540047      1.02255942157616
  N   -0.01049935658540     -2.01087714737295      1.87198799602157
  N   -1.03011016482017      0.94174783169254      0.56572105234946
  H   -1.10290316636243      1.68416643304363     -0.12066581432770
  H   -0.49787244660970      1.27406410764299      1.36304708745630
