11
Coordinates from ORCA-job run
  C   -0.26717035093737     -0.12890285473066      0.05956767553021
  C   0.97507869439147      0.02176698064163     -0.80331023947519
  Br  -1.74519840731203     -0.81566178374816     -1.16566538583779
  H   1.22885461771992     -0.92070420800625     -1.28560479508815
  H   1.80009133572326      0.34684855942048     -0.16592030250737
  H   0.79525875802982      0.77254057262991     -1.57523839033332
  C   -0.10282097223000     -1.18617404285300      1.05839785882213
  N   0.05939914151243     -2.02058131971203      1.86905538576987
  N   -0.59870639502815      1.08649633820866      0.70064834599211
  H   -1.42571167363058      1.00843322467219      1.27875805921190
  H   -0.72007474823876      1.83493853347723      0.02931178791560
