11
Coordinates from ORCA-job run
  C   -0.37979830933328     -0.19363727368941      0.01211666858604
  C   0.90841883027898      0.02043668348751     -0.77947341428417
  Br  -1.72726283022573     -0.92513834211518     -1.23316716382672
  H   1.27020426523425     -0.91101491718118     -1.21662581205588
  H   0.72587000601382      0.73954338579480     -1.58044509679320
  H   1.67208410908703      0.42054739272058     -0.10596032772543
  C   -0.16688748901315     -1.19800037714799      1.05881780259452
  N   0.05070583011230     -1.96406374603843      1.92237485659987
  N   -0.95237328969809      0.98368629073276      0.62105433639946
  H   -1.04873402678930      1.71802819820068     -0.07107223086560
  H   -0.35422709566684      1.30861270523584      1.37338038137112
