11
Coordinates from ORCA-job run
  C   -0.33951487492643     -0.12799857681078     -0.08553229373180
  C   1.00887590744180     -0.01331376507163     -0.77645284598863
  Br  -1.66400809260752     -0.81676327081202     -1.36765115154965
  H   0.92073758295871      0.70111104542217     -1.59499384182552
  H   1.75262142263545      0.34735408825123     -0.05908568579279
  H   1.33405579975864     -0.97950435533619     -1.16076689073196
  C   -0.27786867054539     -1.11908721332650      1.00286876630100
  N   -0.17976188422011     -1.86370148145266      1.90771444666880
  N   -0.78854853457004      1.17623398987229      0.33932542689783
  H   -0.09596115845493      1.58391578246194      0.95949713714841
  H   -1.66962749747018      1.11075375680216      0.83607693260431
