14
Coordinates from ORCA-job run
  C   0.78044063438851      0.13263262291304     -0.65945706149740
  C   -0.26621421565977     -0.53489599078393      0.27781756272792
  Cl  0.98012549496834     -0.83704182654738     -2.15940134985022
  H   0.15972266508859     -1.51336606202413      0.54527712596683
  C   0.33143277704383      1.47988390701409     -1.01156171350605
  N   -0.03136819592698      2.56827339712093     -1.26327188618338
  C   2.07271437976350      0.19009276046806      0.02443257486906
  N   3.11648294720854      0.19579872429587      0.56281543615905
  N   -1.53650845688811     -0.58433277173303     -0.41780913674202
  H   -1.50260547957864     -1.20097478122275     -1.22053725083955
  H   -2.24759559851939     -0.92727064209511      0.21665551885306
  N   -0.32578392582811      0.27945224278709      1.46039983697166
  H   -0.51218182250228     -0.25880758769237      2.29374793610525
  H   -1.01766120355801      1.01155600749960      1.35189240696578
