14
Coordinates from ORCA-job run
  C   0.59429641823754      0.27591105367428     -0.79511038218260
  C   -0.64436195284108     -0.12595642305649      0.05566954567173
  Cl  0.53906410742536     -0.53711348454965     -2.39692672509867
  H   -1.51707302803872      0.24892646270097     -0.49948006949314
  C   0.57951178765753      1.72244019509438     -1.01479474996742
  N   0.54013929944612      2.87774817000416     -1.22224540110065
  C   1.81661717505853     -0.11930297951166     -0.09482236323504
  N   2.78796553703616     -0.42026514887012      0.49291530792749
  N   -0.53817263579880      0.60097703878744      1.29077117857865
  H   -1.43822773973168      0.85539092166249      1.67041797903864
  H   -0.00692317157725      0.06933742178507      1.97013955863052
  N   -0.61255880265397     -1.56030659142562      0.25970856193211
  H   -1.35918237565065     -1.82071714417735      0.89264434676911
  H   -0.74009461856910     -2.06706949211788     -0.60788678747072
