14
Coordinates from ORCA-job run
  C   0.62268657169544      0.31332015272603     -0.71695044908173
  C   -0.24922361793237     -0.21320233973921      0.46536058722727
  Cl  -0.09956933226181     -0.13731289238004     -2.28772684427211
  H   0.34849044062813      0.00348225551518      1.36474298065749
  C   0.71620565503195      1.77277022298050     -0.63949101830875
  N   0.75068988045391      2.94023410103111     -0.50919088325528
  C   1.95913708895250     -0.27418929108314     -0.61861692155956
  N   3.03893011727979     -0.72292614669928     -0.50780282612577
  N   -0.34537306879585     -1.63858150994539      0.34399386612009
  H   -0.51335992499514     -2.07716595615307      1.23852195274988
  H   -1.08275944552432     -1.88663012274294     -0.30430039279966
  N   -1.53314471872306      0.45953469205766      0.42186361924512
  H   -1.45379980375036      1.44070832884190      0.66640241688816
  H   -2.15890984205882      0.01995850559069      1.08519391251485
