14
Coordinates from ORCA-job run
  C   0.61351426576751      0.41322202566109     -0.67300992360373
  C   -0.31775798020957     -0.13647176378859      0.45210747139688
  Cl  -0.16819651824040      0.26459528712933     -2.27267308810407
  H   0.20121596571348      0.12214979880172      1.38852616320796
  C   0.89569031963781      1.82419620994582     -0.40754329609952
  N   1.14491158686147      2.94581355960179     -0.16369796864008
  C   1.86422976237808     -0.34857476346573     -0.68400141877010
  N   2.84160929770351     -0.99882263587220     -0.62883198165730
  N   -0.49997495770140     -1.55947116411857      0.24048239569335
  H   -1.21910648158535     -1.89721608459275      0.86784827611796
  H   0.35008015966888     -2.08073438265516      0.42616627811882
  N   -1.54201072970731      0.60894873082335      0.41696385373120
  H   -2.16668273985692      0.22505509153094     -0.28157942474568
  H   -1.99852195042980      0.61631009099895      1.31824266335431
