14
Coordinates from ORCA-job run
  C   0.55098438039115      0.41716872996082     -0.72264952487552
  C   -0.26759163736131     -0.14536973450064      0.48133247118419
  Cl  -0.43314125483680      0.41747723305767     -2.21358550057812
  H   0.38116265250253      0.02078285716014      1.35582596681586
  C   0.96002996502663      1.78876843713804     -0.41880476927785
  N   1.31542369681158      2.87546973532974     -0.14958116973819
  C   1.73592732228281     -0.41663662542721     -0.93608355448549
  N   2.66557653984863     -1.12754679544391     -1.04309287112942
  N   -0.57197776518971     -1.53820455329395      0.21619927332583
  H   0.25719233388553     -2.12077585853831      0.25899312430349
  H   -1.22667039960348     -1.87151239058024      0.91271221557866
  N   -1.43270257172262      0.67372562502608      0.64588473246247
  H   -2.16544994458059      0.37273394432929      0.01478388562223
  H   -1.76976331745434      0.65391939578249      1.59806572079187
