14
Coordinates from ORCA-job run
  C   0.60794166624937      0.30537391016636     -0.82541900603847
  C   -0.67321502175975     -0.13621537311414     -0.05426606034004
  Cl  0.62757553985198     -0.38267201453277     -2.47203362861845
  H   -1.51366220938601      0.20214506489925     -0.66708019299089
  C   0.65150724964482      1.76461061848711     -0.93342686753070
  N   0.68147045558698      2.93097023755212     -1.06862542656895
  C   1.77247158079943     -0.17939138103271     -0.08040023901513
  N   2.64302712839595     -0.60857989083608      0.58228420716885
  N   -0.67596820103122      0.62441705304200      1.18073022527604
  H   -0.09349910374953      0.18263108111894      1.88316651245957
  H   -1.61284007537677      0.71564539348580      1.55092677965760
  N   -0.70273594868513     -1.57813165119754     -0.00277558567109
  H   -0.07518767505772     -1.93125774878539      0.71096073149997
  H   -1.63688538548242     -1.91054529925296      0.19595855071167
