14
Coordinates from ORCA-job run
  C   0.61267046790259      0.36833354224528     -0.67135189227090
  C   -0.22609346533929     -0.15271425288363      0.52450624803271
  Cl  -0.24406791302820     -0.00363971883374     -2.21224986121026
  H   0.35774993322780      0.11019792281270      1.41349783810449
  C   0.78713866173498      1.81798359755027     -0.57593213671399
  N   0.96764400520000      2.97527389896501     -0.48730973857617
  C   1.92100973577745     -0.28620560572512     -0.69810531705276
  N   2.99052967200472     -0.77194220304532     -0.70425969469484
  N   -0.26155690268730     -1.59683883119563      0.44422238718582
  H   -0.90964184032106     -1.90445495432882     -0.27094991718690
  H   -0.54768358218852     -1.99365856834648      1.33016474402027
  N   -1.45183391854374      0.61396423375800      0.57224092694993
  H   -2.10084250135655      0.30662343989350     -0.14200054920716
  H   -1.89702235238288      0.51607749913399      1.47552696261977
