14
Coordinates from ORCA-job run
  C   0.62113683569867      0.37154977105656     -0.66168910213527
  C   -0.22843746249109     -0.16329839892777      0.52037797837040
  Cl  -0.25905187997136      0.09025936642463     -2.20857404098443
  H   0.37075958780254      0.04375036607494      1.41390116328481
  C   0.85079564090513      1.80894182114908     -0.51314343023779
  N   1.07908805988233      2.95371800185749     -0.38177571689106
  C   1.90368890139426     -0.33006843045530     -0.72358692659325
  N   2.95230145708247     -0.85830018767398     -0.75756444826100
  N   -0.31799285015193     -1.60077257614623      0.38568958613264
  H   -0.61014633354891     -2.02171668430504      1.25813050040461
  H   -0.98216142277434     -1.85767327034046     -0.33450117975960
  N   -1.42473397897553      0.64573293568716      0.60716505701526
  H   -2.08866716791919      0.38981931880660     -0.11381263564039
  H   -1.86757938693307      0.52705796679233      1.50938319529509
