14
Coordinates from ORCA-job run
  C   0.75725292750379      0.19096666759667     -0.67152377539568
  C   -0.20178119784607     -0.54636695078622      0.30653166088891
  Cl  1.06575429617362     -0.82266366811853     -2.12339349554632
  H   0.33834224150542     -1.45224071775827      0.61977667355139
  C   0.15501462007134      1.45766225942482     -1.08685194293884
  N   -0.33270398456384      2.48196724179675     -1.39124174448031
  C   2.03546736334723      0.43015192720472     -0.00100178232831
  N   3.07263766946286      0.58018924481488      0.52935512445699
  N   -1.45895117949995     -0.78190418483489     -0.37501306992443
  H   -1.35202363989519     -1.42706175863978     -1.14846930164842
  H   -2.11984717009811     -1.18028431754626      0.28084283221284
  N   -0.35518076679392      0.31509488818371      1.44655509329466
  H   -1.13015870127325      0.95235938509713      1.30664104917156
  H   -0.47382247809392     -0.19787001643473      2.30779267868598
