14
Coordinates from ORCA-job run
  C   0.60534003207041      0.33162654445154     -0.80330249589502
  C   -0.63868308806847     -0.22179616876169     -0.03616601037504
  Cl  0.55292700697412     -0.21730369431959     -2.50059607257753
  H   -1.50261286374935      0.01085035404665     -0.67426776775805
  C   0.58358681556146      1.79525871579461     -0.78743996376689
  N   0.49251289106246      2.96642548073910     -0.75344757902727
  C   1.82339590851702     -0.16477226261428     -0.16415422310390
  N   2.78107073562872     -0.60006866617725      0.35822304193417
  N   -0.64131357525549      0.42228490586827      1.26643325821620
  H   -0.92428842417105      1.39434948201033      1.21190020102978
  H   -1.28420560210236     -0.06246029964926      1.88009562757687
  N   -0.51017375088109     -1.64597083710081      0.04913639462315
  H   0.07099810833650     -1.90444600000114      0.83815711065622
  H   -1.40755419392288     -2.10397755428648      0.11442847846729
