14
Coordinates from ORCA-job run
  C   0.63817034089261      0.32215127025053     -0.78110081983652
  C   -0.63715258909406     -0.22324787972290     -0.06085938899320
  Cl  0.66020308026877     -0.24928791210934     -2.47133210783616
  H   -1.47317961340949      0.00063345398371     -0.73812191362629
  C   0.61501348594743      1.78593411240815     -0.78552976746095
  N   0.52412971081305      2.95746892599566     -0.77040218326544
  C   1.82778542311658     -0.16288632879379     -0.08235433928061
  N   2.76243621823030     -0.58610798504905      0.48955580110646
  N   -0.69524788969957      0.43682739464359      1.23227335885091
  H   -1.36137886130192     -0.04175486223941      1.82538248341407
  H   -0.97690645279511      1.40767050729081      1.15447592822112
  N   -0.51128998014445     -1.64592139993697      0.04715510495652
  H   -1.40972230626535     -2.10524338423946      0.07874831066533
  H   0.03713943344122     -1.89523591248150      0.86210953308476
