14
Coordinates from ORCA-job run
  C   0.50157046972549      0.38583950215803     -0.84902680906530
  C   -0.58675220876103     -0.33930864265290      0.00675096457593
  Cl  -0.22825655404299      0.97971923136956     -2.36512986053929
  H   -1.08605584287388     -1.03367357834712     -0.68339311790326
  C   1.03834353841181      1.51279386887911     -0.08709209998654
  N   1.43307647208557      2.42185252445954      0.54343643040406
  C   1.57248102882527     -0.55390648784578     -1.18554623590124
  N   2.38664175410115     -1.36379470638103     -1.43496217973744
  N   -1.54152150992736      0.63989304587796      0.43228994905614
  H   -2.45400940989873      0.23742941102746      0.58899015445067
  H   -1.21991983713154      1.11239163824368      1.26919586513559
  N   0.11055728549066     -0.96571199132357      1.11699558372060
  H   -0.56067531925925     -1.25024117180712      1.81916547903576
  H   0.63552013325484     -1.78328264365781      0.82732587675431
