14
Coordinates from ORCA-job run
  C   0.59763381311872      0.42950772508345     -0.71850215884934
  C   -0.56672437628044     -0.33639494336837     -0.02818665821463
  Cl  -0.03900726746021      1.47454778919739     -2.03520771750933
  H   -0.99987319144424     -0.97883097490965     -0.80925554246392
  C   1.28855145188238      1.26179973616679      0.26633023258135
  N   1.84948471794894      1.90197257535286      1.07570466617397
  C   1.52607042680852     -0.53454378355917     -1.30938869941674
  N   2.24775874857636     -1.30801359009843     -1.81993798133819
  N   -1.47599840941696      0.63493655139736      0.54651071488761
  H   -2.19274263832381      0.14642947573001      1.06962534730982
  H   -1.92954884988120      1.19311742065609     -0.16682965060259
  N   0.03780410045903     -1.17289435159399      0.97188186495760
  H   -0.46078695706316     -2.04044375260984      1.10543253982912
  H   0.11637843107607     -0.67318987744449      1.84982304265528
