14
Coordinates from ORCA-job run
  C   0.55113223496133      0.41915803065332     -0.72232473398127
  C   -0.26950657684519     -0.14540537538903      0.47946371940144
  Cl  -0.41462836370511      0.37859961720392     -2.22475895945753
  H   0.36586099803983      0.04549527101498      1.35880579658245
  C   0.92568087890645      1.80354433285603     -0.43171004884237
  N   1.24913729851602      2.90260670729212     -0.17276665016414
  C   1.75657541099190     -0.39101282173957     -0.90993214633999
  N   2.70305208152902     -1.08307864846107     -0.99136387857818
  N   -0.54178028752611     -1.54737540445367      0.22871643846916
  H   -1.19737096716029     -1.88588226984476      0.92179357445380
  H   0.29865663098611     -2.11219154582855      0.28696014449728
  N   -1.45341331032097      0.65082456940608      0.62046488719587
  H   -1.79864616430502      0.64004760178115      1.56981949114703
  H   -2.17374986406798      0.32466993550903     -0.01216763438355
