14
Coordinates from ORCA-job run
  C   0.40428113594496      0.32198590126918     -0.88570118704214
  C   -0.66577790892347     -0.36301005674900      0.04531483872339
  Cl  -0.35793313897948      0.95712625775513     -2.36749977886011
  H   -1.18740484709162     -1.07503874041392     -0.60178075439146
  C   1.03369162644923      1.41159882412188     -0.13960864924236
  N   1.48827110254615      2.25467985695797      0.54162242531181
  C   1.41323715353986     -0.66757143603830     -1.26547309748491
  N   2.18591313284259     -1.50966816855058     -1.53919429143164
  N   -1.59423258630091      0.65724816227599      0.45045433625168
  H   -2.41315496543427      0.21400303906133      0.84774261134434
  H   -1.18500468398080      1.24379197193166      1.17078815434668
  N   -0.07779886075085     -1.09311326185156      1.14247427146941
  H   0.50416624131465     -1.86435209051996      0.83945857983272
  H   0.45274659882397     -0.48968025924983      1.76040254117259
