14
Coordinates from ORCA-job run
  C   0.55057666938265      0.26427903762204     -0.77142916476055
  C   -0.69525147928701     -0.21852910060541      0.05320434156171
  Cl  0.53022302830721     -0.47848851789790     -2.40561416363697
  H   -1.56852233336808      0.09730865489654     -0.53826513156380
  C   0.47925337838804      1.71760314277619     -0.92031388011660
  N   0.35600209774219      2.88388170529747     -0.99626929529826
  C   1.77994093248701     -0.11071326715775     -0.07571176789887
  N   2.75592371103661     -0.37766302415049      0.52138371069518
  N   -0.78070184008250      0.38883408312013      1.34838567824585
  H   -0.92636281918093      1.38843252857127      1.30882507183807
  H   0.03128123916830      0.16531241685954      1.91204679002527
  N   -0.55930444447648     -1.63979418178687      0.25337222287316
  H   -0.68806752677158     -2.15287614274286     -0.60874785907045
  H   -1.26599061334541     -1.92958733480191      0.91813344710626
