14
Coordinates from ORCA-job run
  C   0.69991967959396      0.19869853129516     -0.73021805128580
  C   -0.18281562785696     -0.55089277616939      0.30899303771202
  Cl  0.86591454293229     -0.78079059333255     -2.22813932851702
  H   0.36882042307201     -1.47085353805004      0.55368380798512
  C   0.08300487690079      1.48343615582743     -1.05983682956035
  N   -0.41583154211337      2.52054409220195     -1.29485431598512
  C   2.03473140571834      0.40225820738791     -0.16685128475962
  N   3.11589255637998      0.52134180004181      0.27643341928171
  N   -1.49663841788110     -0.75360879672764     -0.26742305842321
  H   -1.46665874181649     -1.38222582848420     -1.06084683541039
  H   -2.10649026173144     -1.15548202818197      0.43402906001120
  N   -0.22518539360379      0.28385184622004      1.47790102101373
  H   -0.27555452992848     -0.24823706964036      2.33423866184588
  H   -1.00010896966576      0.93395999761184      1.42089069609186
