14
Coordinates from ORCA-job run
  C   0.58623461465788      0.30345719344927     -0.67948388165192
  C   -0.33378793924983     -0.16753004590341      0.51944197246621
  Cl  -0.12972894319849     -0.15695762120237     -2.24748261724937
  H   0.25518115675452      0.08209761788527      1.41686477699343
  C   0.74633839241542      1.75505236486131     -0.62683257759203
  N   0.82750872845992      2.92206174151174     -0.51003656760194
  C   1.88471006397832     -0.35408572537156     -0.53849252918508
  N   2.89324331743392     -0.92964548182240     -0.35742511172586
  N   -0.59339144921343     -1.57341010613356      0.54427928403653
  H   -1.03154101698823     -1.87283566165151     -0.31832193999812
  H   0.24165372199540     -2.11659072149065      0.71877792322050
  N   -1.59330913918032      0.52032716082956      0.40248347401472
  H   -1.50968464657688      1.50214982895714      0.63577568872184
  H   -2.24542686128820      0.08490945608115      1.04245210555109
