14
Coordinates from ORCA-job run
  C   0.62318572294100      0.28702105782550     -0.80642014019208
  C   -0.64197301657457     -0.21262096298896     -0.03659004628218
  Cl  0.58656074213938     -0.33182003758183     -2.47976601493195
  H   -1.49196741953360      0.00930256898892     -0.69693358985139
  C   0.62624786176081      1.75016889610009     -0.85138455789534
  N   0.55269062987659      2.92292726999331     -0.86236170087059
  C   1.82334125842409     -0.20152825343379     -0.12872683364196
  N   2.77046691739281     -0.62470307391921      0.42226617124927
  N   -0.65162326162565      0.48361094554529      1.23877553066657
  H   -0.91022110394862      1.45901068623838      1.14033892808922
  H   -1.31650000435411      0.03924789674498      1.85946254996083
  N   -0.54077270199519     -1.63393208452542      0.10896447957909
  H   0.01819654507899     -1.87041760737735      0.92039070408145
  H   -1.44663216958193     -2.07526730160991      0.16998452003906
