14
Coordinates from ORCA-job run
  C   0.55131298142184      0.41626841524764     -0.72138374181329
  C   -0.26739882331676     -0.14588148137875      0.48233021980061
  Cl  -0.43597194022457      0.42741262193600     -2.21002681899529
  H   0.38414537807037      0.01367795853416      1.35597682788305
  C   0.96808005171176      1.78488124651532     -0.41391666140028
  N   1.33239975310107      2.87275765380763     -0.16207375153952
  C   1.73126560545604     -0.42300425024333     -0.94068766323817
  N   2.65764825497284     -1.13778164421454     -1.05033775727101
  N   -0.58103894274550     -1.53575241431112      0.21388296007466
  H   -1.23475819410042     -1.86814631217069      0.91164936196847
  H   0.24467350690967     -2.12358997871243      0.24981166892544
  N   -1.42756846659157      0.67968274706060      0.65228711343589
  H   -2.16483809117117      0.38144455363692      0.02532264642101
  H   -1.75995107349360      0.66103088429260      1.60616559574841
