14
Coordinates from ORCA-job run
  C   0.61938556853835      0.36881665907861     -0.66685533591316
  C   -0.22670359680647     -0.16054323097928      0.52064932064844
  Cl  -0.26210080298615      0.07157599464877     -2.20985650078320
  H   0.37232235574275      0.05651388265265      1.41193888560041
  C   0.84173964999270      1.80823312121509     -0.52936405044791
  N   1.06053017785419      2.95563765614802     -0.40457577209448
  C   1.90498523011049     -0.32715962291039     -0.72472202442418
  N   2.95628618512145     -0.85050898332188     -0.75228172169355
  N   -0.30983194919541     -1.59946940356139      0.39747534591357
  H   -0.97503376367242     -1.86513909108395     -0.31882578097005
  H   -0.59745668455293     -2.01479019777693      1.27420919102941
  N   -1.42646948073714      0.64348694116214      0.60172466481139
  H   -1.86197372406922      0.54156450147317      1.50906641938318
  H   -2.09467916534020      0.37278177325540     -0.10958264105987
