14
Coordinates from ORCA-job run
  C   0.63075021569019      0.26697797960381     -0.77001156745695
  C   -0.64445801123208     -0.13040070200556      0.02756716603858
  Cl  0.65935634296812     -0.57469315558976     -2.35776296313107
  H   -1.49185423206186      0.22954577825788     -0.57467503547005
  C   0.61235604737021      1.70903082535592     -1.01663325558266
  N   0.56898549328459      2.85987857779248     -1.24759998211453
  C   1.82132136129048     -0.10463026340683     -0.00555201487748
  N   2.76537647352332     -0.38834657413315      0.63312583347882
  N   -0.60157827423071      0.61732026908550      1.25393256530343
  H   -0.09900968622635      0.10098861651952      1.96618813420930
  H   -1.51992207588810      0.87196082517725      1.58670786995515
  N   -0.61417008261205     -1.56112193902236      0.25662330840374
  H   -0.69737963383417     -2.08209157463704     -0.60794233542583
  H   -1.38977393804160     -1.81541866299767      0.85603227666953
