14
Coordinates from ORCA-job run
  C   0.57918563797712      0.30082766115493     -0.68711681763339
  C   -0.32759961653754     -0.16385186186919      0.52504876597575
  Cl  -0.12506339271241     -0.21956732817266     -2.24200471521647
  H   0.25678780964482      0.12170777880318      1.41478623486367
  C   0.69821590183266      1.75696884944809     -0.67311173235157
  N   0.74367023000649      2.92869621109637     -0.59088169812194
  C   1.89468009471296     -0.31772759225232     -0.53095010032853
  N   2.91981366922053     -0.85951921487063     -0.33879515331762
  N   -0.55306533166830     -1.57441092131464      0.58448850173377
  H   0.29549832979169     -2.09441183285948      0.76438446792965
  H   -0.99117021489675     -1.90300628524561     -0.26729630863836
  N   -1.60381897533804      0.48939060234733      0.39393130879770
  H   -2.24383282366173      0.05582111179512      1.04723419132916
  H   -1.54430131837150      1.47908282193951      0.59928305497818
