14
Coordinates from ORCA-job run
  C   0.50818013740691      0.36483307352594     -0.71202402601939
  C   -0.26716516642400     -0.22469664500923      0.53649612298208
  Cl  -0.49617302253470      0.27172338040164     -2.18415802519339
  H   0.40557853485591     -0.01855304704525      1.38472597844955
  C   0.81374702222467      1.76720668286126     -0.43354067180298
  N   1.01203150612739      2.88723194225495     -0.13762366446596
  C   1.74081683366033     -0.39186609032136     -0.91873199945489
  N   2.71050319903800     -1.04915168338525     -1.01602034374662
  N   -0.51932272824536     -1.61836999053354      0.27834056195600
  H   0.32735221335419     -2.17121048053129      0.33029640913919
  H   -1.17256910296315     -1.95082363156301      0.97632342967549
  N   -1.51849852491844      0.41186721853730      0.80646057345778
  H   -1.40892622213770      1.37851762333036      1.08284003789498
  H   -2.13455467944406      0.34429164747750      0.00561561712817
