14
Coordinates from ORCA-job run
  C   0.64463299385234      0.29113958301838     -0.74880485185366
  C   -0.64257316897939     -0.13984755748492      0.01050493810008
  Cl  0.72156186378710     -0.51707217070176     -2.35259822168510
  H   -1.48096554425775      0.21967077524857     -0.60453922518744
  C   0.61163657091093      1.73755692381955     -0.96650997929921
  N   0.55485499111665      2.89208122516399     -1.17475332803205
  C   1.82317133317636     -0.07929815210726      0.03481079414564
  N   2.75619658592137     -0.36174502559233      0.69008516430460
  N   -0.63979472794090      0.58449037119747      1.25186740235173
  H   -0.14988178668189      0.05899592614902      1.96628190941965
  H   -1.57005092466687      0.81919976298955      1.56584741405058
  N   -0.59681417978710     -1.57407594765963      0.21320057820480
  H   -1.38908780860983     -1.85249673732053      0.77951577096830
  H   -0.64188619784103     -2.07859897672010     -0.66390836548793
