14
Coordinates from ORCA-job run
  C   0.57645263336154      0.74175595425247     -0.42283059934303
  C   -0.64848031588646     -0.10682057797858      0.02290455239522
  Cl  0.22211221135843      2.49388304714092     -0.23378913089444
  H   -1.46067192613299      0.16377638083319     -0.66815455450284
  C   1.73785127634699      0.39364237279157      0.39582794973862
  N   2.66501602157903      0.08239517637968      1.04635761160584
  C   0.85240601097822      0.48062083309626     -1.83572345474260
  N   1.03822252235015      0.29727327348768     -2.98087522396572
  N   -0.91154280640694      0.16713366653454      1.42143889560601
  H   -1.65386523644938     -0.44240869868628      1.74290989253323
  H   -1.20370900031623      1.12587045884435      1.56750753116870
  N   -0.29106652342847     -1.48036698932072     -0.20359756095187
  H   -1.08279412940602     -2.04860375290017     -0.46690151504869
  H   0.16206926205213     -1.86715114447491      0.61592560640157
