14
Coordinates from ORCA-job run
  C   0.44868334350073      0.40253787869720     -0.78496994940452
  C   -0.60576832506481     -0.40261993532823      0.06922207526988
  Cl  -0.40100254496216      1.19576448693238     -2.14901570520478
  H   -1.12961362620639     -1.04193781150928     -0.65658257706917
  C   1.07193656350530      1.42171040716653      0.05433263852924
  N   1.51260575140220      2.25695423492962      0.75328860399704
  C   1.45026657889901     -0.51304396784353     -1.32516847851613
  N   2.20714652367633     -1.31593286749052     -1.73059146886298
  N   -1.57411545505299      0.41541154671996      0.73132759543955
  H   -2.16131357867387      0.91848069550554      0.08082586599699
  H   -1.12221558787990      1.06491461086138      1.36573197562486
  N   0.15096868321435     -1.09443422129320      1.08512140029090
  H   -0.49417313898578     -1.41670975377811      1.79603856293097
  H   0.64859481262798     -1.89209530356974      0.70943946097815
