14
Coordinates from ORCA-job run
  C   0.57624113473771      0.37281500105222     -0.63197067763431
  C   -0.31521271409333     -0.10956171245113      0.56818323540614
  Cl  -0.24924945387153      0.00461534528800     -2.18567001773437
  H   0.25424556985492      0.17506715588000      1.46026322100415
  C   0.81759344170549      1.81077800703832     -0.54721112227782
  N   1.03372201777457      2.96125524996227     -0.44559916883482
  C   1.84435524483535     -0.35513971935524     -0.60200904575153
  N   2.83705462386462     -0.97772870395448     -0.51098216517405
  N   -0.52355962181619     -1.53392149603570      0.62201804519725
  H   -0.94371848114504     -1.88272486551326     -0.23115004030263
  H   0.33316747108842     -2.04307239821363      0.80411018014126
  N   -1.51973609553823      0.67764592514337      0.53884807557840
  H   -2.11005116071334      0.39065569168449     -0.23372794865332
  H   -2.03385197668343      0.50831651947475      1.39489742903566
