14
Coordinates from ORCA-job run
  C   0.53292306585106      0.40213758233253     -0.83732475912998
  C   -0.57031411279051     -0.38031864838403     -0.06095269244642
  Cl  -0.15364777783266      1.21524688908889     -2.26956568381124
  H   -0.99439424264722     -1.08242712914522     -0.78449579126558
  C   1.09469787308502      1.40478355257852      0.07135010629880
  N   1.47763080093325      2.17503413138231      0.87212373497457
  C   1.58038677559750     -0.51749561065483     -1.28469741811227
  N   2.40535144186608     -1.24788153220096     -1.69157528420443
  N   -1.60403311760002      0.54894599521898      0.32719166215153
  H   -1.32932448412934      1.08029892242834      1.14574754155636
  H   -2.46579525756666      0.06166940507846      0.53299313603363
  N   0.12604426701811     -1.14301209541388      0.95742852434036
  H   -0.41924111306011     -1.94365599928914      1.24969479576479
  H   0.31971588127550     -0.57132546301997      1.77208212784988
