14
Coordinates from ORCA-job run
  C   0.67362212390689      0.31478470989524     -0.76502937708687
  C   -0.64625475925822     -0.13061680969340     -0.05535341294088
  Cl  0.77174519156057     -0.45884591811688     -2.37424819711954
  H   -1.45236537070917      0.23744309438135     -0.69971805957393
  C   0.68915757796229      1.76660426791419     -0.94380097270845
  N   0.65301871182942      2.92739679324819     -1.12023830636714
  C   1.80597364231943     -0.11585178699508      0.05458949115168
  N   2.65561278514841     -0.46023986089261      0.78951715029988
  N   -0.68852815120275      0.59275729110149      1.18988404131832
  H   -1.62840786976302      0.62013347105764      1.56250883885274
  H   -0.07515201890449      0.17290756083563      1.88003903191058
  N   -0.64710783683396     -1.57586033131422      0.03862383645897
  H   -0.76759119635985     -1.87999062074540      0.99314424420200
  H   -1.34272282969554     -2.00962186067615     -0.54991830839734
