14
Coordinates from ORCA-job run
  C   0.51598675956085      0.39501008344463     -0.83291878107617
  C   -0.59729561471738     -0.32255470396855     -0.00368135551268
  Cl  -0.18891347134987      1.05475730283614     -2.33349225789528
  H   -1.11315634365139     -0.98228824877507     -0.71528717358174
  C   1.08235939279021      1.48327217419180     -0.03683128157179
  N   1.51098621983867      2.37334372603267      0.59833110307963
  C   1.56003954817357     -0.56583714642881     -1.19298566387403
  N   2.35108494073702     -1.39216457876781     -1.46203146900142
  N   -1.52534145652672      0.67131576212476      0.44659188687200
  H   -2.45113953485380      0.29256211880266      0.58309986758286
  H   -1.19630894082632      1.10518937288106      1.30124020672153
  N   0.07570165016922     -1.00008212094888      1.09178051767195
  H   -0.60935920859484     -1.29267564081707      1.77733765592872
  H   0.58435605925081     -1.81984810060756      0.77984674465643
