14
Coordinates from ORCA-job run
  C   0.64547299144600      0.29035723569844     -0.74813240054856
  C   -0.64335774321604     -0.13986231586601      0.00924799158069
  Cl  0.72674295123648     -0.52112155257486     -2.34978474142962
  H   -1.48053809338974      0.21925367865338     -0.60766084551689
  C   0.61317520751054      1.73629578569083     -0.96928411466937
  N   0.56158588133669      2.89027319014704     -1.18230184547391
  C   1.82198286727700     -0.07823239960421      0.03913269949130
  N   2.75447565425785     -0.36132494431722      0.69488288028912
  N   -0.64211769880745      0.58538130642306      1.24997518645318
  H   -0.15303027884388      0.06115533798044      1.96581185347576
  H   -1.57208234218943      0.82264237524010      1.56262090207014
  N   -0.59764592003725     -1.57392164502427      0.21303833209551
  H   -0.64655379062146     -2.07967309572642     -0.66322019790472
  H   -1.38710968595932     -1.85122295672029      0.78367430008738
