14
Coordinates from ORCA-job run
  C   0.62663002891398      0.36357469445605     -0.66248567527730
  C   -0.23403554111129     -0.15344067231670      0.51977489512581
  Cl  -0.22305120979326      0.02634349180526     -2.21519858444565
  H   0.34660134695322      0.08743655503784      1.41708418618052
  C   0.82940548257733      1.80808365918561     -0.54800469998410
  N   1.03500926306456      2.95979419052811     -0.44288954897745
  C   1.92096336995292     -0.31828823033944     -0.68390658388823
  N   2.97914584972258     -0.82812739306198     -0.68452183584701
  N   -0.29861946720708     -1.59540367065958      0.42291959021468
  H   -0.94926654901301     -1.88228820757381     -0.29848644477554
  H   -0.59546864791695     -1.99712259198728      1.30282094349761
  N   -1.44432346834910      0.63779881906717      0.56479058295798
  H   -2.09394815419092      0.34932657303124     -0.15691510735156
  H   -1.89804230360300      0.54131278282751      1.46401828257024
