14
Coordinates from ORCA-job run
  C   0.46366104262226      0.33765499918526     -0.89044289588936
  C   -0.58384044374708     -0.33910873093592      0.05207377844480
  Cl  -0.33397266414646      0.84061083542061     -2.40560972127166
  H   -1.10779895859760     -1.07414869003909     -0.57482481413268
  C   1.02701443300035      1.50837469118645     -0.21958356857298
  N   1.44446982941734      2.45327820191079      0.33943633837183
  C   1.52167778018208     -0.61936366886135     -1.21814902965048
  N   2.32506896648897     -1.44357480425109     -1.45526547168398
  N   -1.52520528105686      0.66024356371834      0.46021501670128
  H   -2.42874450321201      0.26495303443086      0.67611754654031
  H   -1.17201996778574      1.17986448705514      1.25531389913603
  N   0.16317982842229     -0.89706681898163      1.16657464499984
  H   -0.47719680127938     -1.14434504481597      1.91048885752734
  H   0.68170673969184     -1.72737205502243      0.90265541947970
