14
Coordinates from ORCA-job run
  C   0.57775668501533      0.37133492234870     -0.82033700558310
  C   -0.57857314026212     -0.36670855685397     -0.07905550532171
  Cl  -0.02323835852133      1.17411827532213     -2.29624530811740
  H   -0.99031103321151     -1.07050346062776     -0.80807764649495
  C   1.12774030035573      1.37609647252818      0.09338114532982
  N   1.49968453084317      2.14956928569012      0.89613639239008
  C   1.61956050154584     -0.58281290110796     -1.20424622712960
  N   2.44449860930564     -1.33824302338324     -1.56267543263030
  N   -1.60216723179735      0.59703618527843      0.24678996426444
  H   -2.48201943425165      0.13536526718759      0.43456528871136
  H   -1.34375354365062      1.14333993411712      1.06070187880745
  N   0.05167039170501     -1.12862269033978      0.98191348828346
  H   -0.52433158146038     -1.91222866692911      1.26025676327456
  H   0.22248330438423     -0.54874104323044      1.79589220421587
