14
Coordinates from ORCA-job run
  C   0.61816371774764      0.34285336804246     -0.74187816314899
  C   -0.31188258941687     -0.17431998420580      0.41634633495872
  Cl  -0.08743713380618      0.02252935705712     -2.33809363399614
  H   0.24464657534084      0.08824703512517      1.33548835464596
  C   0.80008880810081      1.78450981702814     -0.56671651113140
  N   0.89575126508978      2.93570079077328     -0.35133334955519
  C   1.90611529924915     -0.34309310364467     -0.62866915184932
  N   2.90785972445090     -0.93489691154583     -0.46402160481449
  N   -0.47913198837578     -1.59479448905759      0.24299919004347
  H   0.28809002815603     -2.10326858322081      0.66238432228096
  H   -1.34254307373099     -1.92099672861283      0.65428412877696
  N   -1.57399174130438      0.51145156104253      0.30430074196470
  H   -1.53918601054420      1.41099703345422      0.76544671435219
  H   -2.32754288095674     -0.02691916223537      0.70846262747257
