14
Coordinates from ORCA-job run
  C   0.77998694715388      0.07830496941015     -0.73111433063718
  C   -0.22280433239249     -0.59877448106355      0.25286880943737
  Cl  0.98575140055938     -0.90447376317887     -2.20644444638904
  H   0.19408635487004     -1.58881047396190      0.45867599230772
  C   0.23833234322735      1.39125194171087     -1.09079603436462
  N   -0.28078039641754      2.42019423011264     -1.32068175037878
  C   2.08717452814476      0.22886979980637     -0.08974571401698
  N   3.14859827855379      0.30622973008673      0.40712865240366
  N   -1.48437944062424     -0.77151495483775     -0.42616561006019
  H   -2.00316590663834      0.09886851130381     -0.46005293247676
  H   -2.05064888587733     -1.46608998072910      0.04232726840014
  N   -0.16864439641798      0.18096324591346      1.47473631612355
  H   -0.45283862331175     -0.37151510074684      2.27293846529969
  H   -0.77066787082951      0.99449632617398      1.41532531435142
