14
Coordinates from ORCA-job run
  C   0.58676844986180      0.29985650091334     -0.82827140637223
  C   -0.64347378578288     -0.21133444295409     -0.01119105626203
  Cl  0.47522706890878     -0.29236023461591     -2.50804537022477
  H   -1.52168693822290      0.02166614905555     -0.62950435836499
  C   0.59071421330763      1.76362203411027     -0.85094881019464
  N   0.52259151281202      2.93672481585913     -0.84527159095283
  C   1.81465956248195     -0.20061114262356     -0.21158699065886
  N   2.78127400368294     -0.63531540802092      0.29480144642416
  N   -0.59563285883194      0.46394708420727      1.27462835205127
  H   -1.23387159798861      0.01005731617079      1.91621397404286
  H   -0.85650782791477      1.44111647915967      1.20342912828036
  N   -0.53787659067603     -1.63493024561673      0.10649083329314
  H   -1.44066175346783     -2.07634419560478      0.20261956207967
  H   0.05847654182983     -1.88509471004002      0.88663628685888
