14
Coordinates from ORCA-job run
  C   0.43691483231194      0.39315425759687     -0.87997898995192
  C   -0.58754929908014     -0.33359941068977      0.04989400747877
  Cl  -0.40540467684814      1.01481806854752     -2.32519236259253
  H   -1.14654155021071     -1.01412239289220     -0.60759639588431
  C   1.04468967930598      1.50483200124063     -0.14966050848446
  N   1.49878479618001      2.40268846370032      0.45651430884664
  C   1.46741259312057     -0.55216404801668     -1.31322617568660
  N   2.24968243234881     -1.36654286657974     -1.63826268012328
  N   -1.49582381681996      0.64801350758518      0.56261431546424
  H   -1.10641360643820      1.10211126882479      1.38055445629694
  H   -2.39928602259729      0.25353799617212      0.77986229513804
  N   0.18842456705870     -0.98118604244843      1.09397408515959
  H   0.68575361725553     -1.79576246849935      0.75161217537690
  H   -0.43064354558709     -1.27577833454127      1.83889146896197
