14
Coordinates from ORCA-job run
  C   0.54241533159977      0.31565727229993     -0.86755544145907
  C   -0.56898260218715     -0.38618037640576     -0.02830268855790
  Cl  -0.12756716026469      0.97474708624473     -2.38448643646814
  H   -0.98327383938293     -1.15943105600542     -0.68158048151942
  C   1.09114788875026      1.40842706483164     -0.06059744837904
  N   1.46059647753047      2.25919975482866      0.66109153945157
  C   1.59703461533639     -0.64180089438789     -1.20508612287187
  N   2.42953750518451     -1.40637312758085     -1.52431072904520
  N   -1.60851189634874      0.57543438749642      0.25014301267141
  H   -2.46986957799997      0.10903389084269      0.50142732814751
  H   -1.34157049538626      1.19224055079796      1.00929394404775
  N   0.11564197821303     -1.03875981815210      1.07111654875208
  H   -0.42645216245143     -1.81321372676810      1.43074449707959
  H   0.29185393740672     -0.38898100804190      1.82910247815074
