14
Coordinates from ORCA-job run
  C   0.46605976159239      0.35911933635385     -0.78967173750536
  C   -0.65460374662012     -0.31410341808089      0.08023280218534
  Cl  -0.27525624622057      1.26991280205709     -2.14724654312970
  H   -1.20008393002058     -0.97039433218942     -0.61539302091462
  C   1.25494719301942      1.26764600060391      0.03999796795307
  N   1.90240147124122      1.95806085612166      0.73603416981004
  C   1.32219101799377     -0.68886028544514     -1.34472986055529
  N   1.96707555946770     -1.58347828818247     -1.75089282410645
  N   -1.43183801536431      0.74187060867117      0.67956334543633
  H   -1.99158113564128      1.23070699347285     -0.00653924945862
  H   -2.04480910867673      0.32488338392498      1.36915144320866
  N   -0.13149007468515     -1.11705067036611      1.14574115536851
  H   0.39194704295529     -1.91762009495229      0.81861863314080
  H   0.42404021095895     -0.56069289198917      1.78513371856731
