11
Coordinates from ORCA-job run
  C   0.82235832490665      0.47085482253348      0.12333316502591
  C   -0.67223442522462      0.07710969935577      0.02872946907523
  Br  1.80068360790877     -0.76631613781671      1.25274543457706
  H   -1.15795550609528      0.80775920585391     -0.63264093872595
  H   0.89551612770088      1.45128149668104      0.60011310028886
  C   1.41084111878336      0.52366643466145     -1.20749007269265
  N   1.85653234859991      0.58249039761519     -2.29329707051836
  C   -1.31107003833843      0.15858098307193      1.34566513622948
  N   -1.82072626471295      0.25825616730354      2.39855993601426
  C   -0.84245838632764     -1.25379006616454     -0.56119608988429
  N   -0.98248690720062     -2.30989300309507     -1.05452206938955
