11
Coordinates from ORCA-job run
  C   0.82156115543598      0.47199326825437      0.12841640553000
  C   -0.67199891254576      0.07955648785598      0.01661115437850
  Br  1.77766572443365     -0.74570973127399      1.29772709192078
  H   -1.14580562282629      0.80007662477908     -0.66431285800716
  H   0.88934760927099      1.46119092586130      0.58752418397493
  C   1.43300422995876      0.49666522603487     -1.19280811280327
  N   1.90027465028207      0.52809044389993     -2.27048507903199
  C   -1.33174088231063      0.18466272412280      1.32155827608877
  N   -1.85787992588651      0.30571906629806      2.36401954941476
  C   -0.83708628610291     -1.26034155010276     -0.55409223271640
  N   -0.97834173970935     -2.32290348572965     -1.03315837874892
