15

C	0.0	0.0	0.0
C	-0.369607	-0.106033	-1.503674
Br	1.947801	0.0	0.0
H	0.497172	-0.527559	-2.02986
H	-0.282488	0.974444	0.383885
C	-0.512871	-1.025034	0.893617
N	-0.569007	-1.85874	1.732119
C	-0.695497	1.252853	-2.079453
H	0.146412	1.921585	-1.880544
H	-0.855605	1.194624	-3.156619
H	-1.59764	1.62723	-1.595195
N	-1.424727	-1.122278	-1.826961
O	-2.293167	-0.826125	-2.650357
O	-1.208042	-2.263705	-1.420389
H	-2.076205	0.0	0.0
