15

C	0.0	0.0	0.0
C	-0.232919	0.036704	-1.556201
Br	1.949657	0.0	0.0
H	0.354846	0.884104	-1.913127
H	-0.291425	0.964271	0.407194
C	-0.661605	-1.057467	0.754387
N	-0.694288	-1.988248	1.494596
C	-1.594538	0.082048	-2.242943
H	-1.403629	0.116929	-3.328658
H	-2.194842	-0.786931	-1.987781
H	-2.145913	0.965638	-1.937127
N	0.44707	-1.144455	-2.205878
O	0.176592	-2.262114	-1.777634
O	1.152583	-0.915987	-3.188994
H	-2.096949	0.0	0.0
