17

C	-0.49062	0.003011	-1.452568
C	0.0	0.0	0.0
Br	0.432386	1.542715	-2.322721
H	1.091651	0.0	0.0
N	-0.176996	-1.168154	-2.229634
H	-0.776736	-1.932705	-1.939959
H	0.798506	-1.417346	-2.089417
C	-1.919839	0.303577	-1.583775
N	-3.063428	0.562211	-1.665083
N	-0.386306	-1.328862	0.569152
O	-1.547093	-1.726471	0.392036
O	0.394687	-1.843674	1.375841
C	-0.564596	1.097694	0.875645
H	-0.13104	1.014378	1.875702
H	-1.655774	1.037011	0.946426
H	-0.286714	2.07242	0.470901
Br	2.922624	0.0	0.0
