17

C	-0.407204	0.002674	-1.465728
C	0.0	0.0	0.0
Br	-2.37255	0.114205	-1.729462
H	1.094416	0.0	0.0
N	0.153246	1.188915	-2.089176
H	-0.195506	1.288523	-3.036475
H	1.16604	1.080408	-2.123653
C	0.004489	-1.239975	-2.145174
N	0.391728	-2.176362	-2.744682
N	-0.375142	-1.317076	0.604508
O	0.491757	-2.193012	0.600224
O	-1.486987	-1.428831	1.130296
C	-0.557194	1.146949	0.803692
H	-0.087543	1.152592	1.791965
H	-1.63661	1.064418	0.930908
H	-0.319036	2.083226	0.297718
Br	2.754974	0.0	0.0
