17

C	-0.27859	0.047789	-1.504927
C	0.0	0.0	0.0
Br	-2.216336	0.34033	-1.87476
H	1.094663	0.0	0.0
N	0.45766	1.188408	-2.004242
H	1.420386	1.101923	-1.660972
H	0.480623	1.159603	-3.017182
C	0.068503	-1.17494	-2.246642
N	0.403339	-2.024223	-2.988426
N	-0.470568	-1.249593	0.662454
O	-0.735977	-2.228534	-0.032168
O	-0.530815	-1.230506	1.889891
C	-0.489584	1.216755	0.757851
H	-1.562914	1.162044	0.947156
H	-0.270628	2.104797	0.166376
H	0.040181	1.27989	1.707128
Br	3.374719	0.0	0.0
