17

C	-0.316042	0.130818	-1.489247
C	0.0	0.0	0.0
Br	-2.278058	0.408872	-1.771835
H	1.109066	0.0	0.0
N	0.380844	1.308876	-1.946096
H	1.358597	1.219825	-1.652088
H	0.349313	1.351421	-2.958496
C	0.003877	-1.036264	-2.325758
N	0.292929	-1.8227	-3.151489
N	-0.458586	-1.287137	0.594276
O	-0.700165	-1.289835	1.799974
O	-0.528396	-2.277789	-0.130767
C	-0.473497	1.174084	0.832677
H	-1.542202	1.112781	1.041684
H	-0.260568	2.092701	0.287574
H	0.073664	1.18283	1.77421
Br	3.36052	0.0	0.0
