17

C	-0.318786	-0.094152	-1.501253
C	0.0	0.0	0.0
Br	0.03869	1.790136	-2.298155
H	1.092085	0.0	0.0
N	0.489013	-1.084289	-2.063083
H	0.421864	-1.144444	-3.069284
H	1.45731	-0.996699	-1.747405
C	-1.733817	-0.292093	-1.820074
N	-2.864151	-0.469022	-2.092353
N	-0.450233	-1.309259	0.593971
O	-1.636493	-1.384563	0.929341
O	0.374764	-2.209768	0.704475
C	-0.615944	1.13888	0.775146
H	-1.685522	1.231047	0.578646
H	-0.472562	0.957138	1.842251
H	-0.108053	2.066238	0.517187
Br	3.461781	0.0	0.0
