13

C	0.0	0.0	0.0
C	-0.442146	0.266139	-1.44675
Br	1.923883	0.0	0.0
H	-0.023533	-0.574124	-2.017109
H	-0.368828	-0.94826	0.365759
N	-0.437321	1.042767	0.983648
O	-0.608144	2.179164	0.568894
O	-0.507534	0.67447	2.149552
C	0.16824	1.47198	-2.025843
N	0.633133	2.408812	-2.559847
C	-1.911779	0.27085	-1.737802
N	-2.673053	0.333057	-2.647008
F	-2.40278	0.0	0.0
