13

C	0.0	0.0	0.0
C	-0.405855	0.226019	-1.46664
Br	1.919777	0.0	0.0
H	-0.017349	-0.658168	-1.991087
H	-0.383656	-0.928683	0.397278
N	-0.433197	1.093336	0.92786
O	-0.526571	0.783758	2.108525
O	-0.569063	2.213132	0.456105
C	0.278545	1.374786	-2.082128
N	0.798597	2.249493	-2.668245
C	-1.859311	0.298725	-1.786835
N	-2.631513	0.396676	-2.682095
F	-2.36749	0.0	0.0
