13

C	0.0	0.0	0.0
C	-0.483275	-0.141664	-1.463458
Br	1.917866	0.0	0.0
H	-1.607744	0.017855	-1.351063
H	-0.403262	-0.794373	0.61271
N	-0.444321	1.290386	0.602423
O	-0.573807	2.262196	-0.147129
O	-0.526289	1.301995	1.823969
C	-0.243012	-1.510251	-1.916019
N	-0.068146	-2.612148	-2.281306
C	0.133723	0.786711	-2.410575
N	0.559218	1.504154	-3.240002
F	-2.485657	0.0	0.0
