13

C	0.0	0.0	0.0
C	-0.445385	-0.034735	-1.470407
Br	1.923311	0.0	0.0
H	0.202687	0.645188	-2.033401
H	-0.384	-0.811888	0.60122
N	-0.410173	1.282374	0.658304
O	-0.557674	1.247794	1.871844
O	-0.466043	2.277115	-0.054577
C	-1.851399	0.366762	-1.76145
N	-2.590909	0.71525	-2.619744
C	-0.208788	-1.389074	-1.979559
N	-0.024518	-2.473021	-2.392241
F	-2.378951	0.0	0.0
