13

C	0.0	0.0	0.0
C	-0.440286	-0.050807	-1.469174
Br	1.923122	0.0	0.0
H	0.062408	-0.939517	-1.87463
H	-0.362105	-0.855984	0.5534
N	-0.448365	1.215297	0.755476
O	-0.615097	2.250922	0.128379
O	-0.532812	1.079149	1.96946
C	0.071384	1.072071	-2.268422
N	0.508723	1.893361	-2.984585
C	-1.898687	-0.251566	-1.738555
N	-2.644824	-0.526736	-2.620122
F	-2.404755	0.0	0.0
