16

C	0.025564	0.052344	0.02596
C	-0.463639	0.35402	-1.365691
F	1.415942	-0.132541	0.020449
H	0.135913	1.178761	-1.752827
H	-1.504058	0.67938	-1.288126
N	-0.033189	1.360805	0.901039
O	-0.149086	1.205156	2.114676
O	0.10699	2.445251	0.342863
N	-0.604137	-1.011607	0.629411
H	-0.496125	-0.998037	1.633967
H	-1.593716	-1.081047	0.355207
C	-0.376243	-0.876231	-2.263373
H	-1.108496	-1.62	-1.952141
H	0.623145	-1.315708	-2.227438
H	-0.596611	-0.596306	-3.297006
Cl	-3.673284	-0.958246	-0.302825
