19

C	0.0	0.0	0.0
C	-0.253607	-0.027306	-1.556304
Br	1.946437	0.0	0.0
H	0.409785	0.757607	-1.930777
N	-0.581373	1.195715	0.606125
O	-0.601841	1.237996	1.862846
O	-0.557765	2.238229	-0.109367
C	-0.2733	-1.255998	0.835975
H	0.076303	-2.116154	0.265435
H	-1.335953	-1.35088	1.047802
H	0.275732	-1.179318	1.775457
C	-1.626255	0.316613	-2.130366
H	-1.485123	0.474803	-3.212117
H	-2.015245	1.228132	-1.683218
H	-2.346204	-0.490467	-1.981561
N	0.174215	-1.341413	-2.070114
H	-0.553614	-1.71837	-2.664677
H	1.023652	-1.25508	-2.611396
H	-2.043292	0.0	0.0
