19

C	0.0	0.0	0.0
C	-0.616322	0.120081	-1.388484
Br	1.932659	0.0	0.0
H	-1.684527	0.316898	-1.132953
N	-0.342632	1.267068	0.822329
O	-0.651749	2.287956	0.21557
O	-0.239679	1.190288	2.040288
C	-0.554582	-1.173179	0.767956
H	-0.233325	-2.106423	0.306285
H	-0.209873	-1.148187	1.800582
H	-1.654557	-1.06384	0.718832
C	-0.558402	-1.206358	-2.133827
H	0.463305	-1.593455	-2.193246
H	-1.215958	-1.939408	-1.671697
H	-0.921257	-1.050593	-3.15403
N	0.024557	1.149238	-2.21412
H	-0.276563	2.051138	-1.869694
H	-0.344286	1.051645	-3.152822
H	-3.330967	0.0	0.0
