19

C	0.0	0.0	0.0
C	-0.455713	0.179102	-1.502787
Br	1.952703	0.0	0.0
H	0.275103	-0.452568	-2.024377
N	-0.374179	1.141328	0.950185
O	-0.830522	0.835272	2.046381
O	-0.142413	2.289043	0.582772
C	-0.513514	-1.295944	0.577204
H	-1.60365	-1.209539	0.653957
H	-0.082159	-1.49177	1.558284
H	-0.249615	-2.110877	-0.101382
C	-0.31917	1.590542	-2.066451
H	0.643356	2.052044	-1.844099
H	-0.449841	1.506519	-3.147608
H	-1.11264	2.228804	-1.679031
N	-1.766754	-0.328036	-1.819793
H	-1.764471	-1.341326	-1.763281
H	-2.517863	-0.036237	-1.134096
H	-3.622989	0.0	0.0
