17

C	-0.384295	0.01758	-1.469905
C	0.0	0.0	0.0
Br	0.121202	1.728824	-2.252398
H	1.095847	0.0	0.0
C	0.305606	-1.099691	-2.221709
H	0.138943	-1.013798	-3.294327
H	1.373598	-1.028396	-1.978902
H	-0.07764	-2.064221	-1.874531
N	-1.899457	-0.066678	-1.677448
O	-2.622172	0.123844	-0.701771
O	-2.30058	-0.324303	-2.807776
C	-0.415175	-1.276784	0.581068
N	-0.723173	-2.29594	1.083816
N	-0.404546	1.156775	0.767624
H	0.353348	1.372337	1.406885
H	-1.261514	0.994763	1.276739
H	2.652088	0.0	0.0
