17

C	-0.433203	0.003793	-1.4583
C	0.0	0.0	0.0
Br	0.431786	1.50068	-2.365836
H	1.101198	0.0	0.0
C	-0.055003	-1.276329	-2.171128
H	-0.582625	-2.116654	-1.719691
H	1.023125	-1.410546	-2.051087
H	-0.306097	-1.213866	-3.232184
N	-1.950775	0.213381	-1.533099
O	-2.423734	1.282382	-1.891208
O	-2.602693	-0.765426	-1.170264
C	-0.432417	-1.215674	0.672858
N	-0.702634	-2.186706	1.279404
N	-0.545772	1.177651	0.699115
H	0.051572	1.955315	0.42509
H	-0.364702	1.039916	1.688774
H	2.667954	0.0	0.0
