17

C	-0.352069	0.010143	-1.487347
C	0.0	0.0	0.0
Br	0.120775	1.751169	-2.247342
H	1.096815	0.0	0.0
C	0.39428	-1.076202	-2.220188
H	0.258873	-0.998144	-3.296298
H	0.032332	-2.05104	-1.882459
H	1.448865	-0.969863	-1.939945
N	-1.85669	-0.114915	-1.746741
O	-2.216034	-0.5026	-2.853325
O	-2.615636	0.192512	-0.829336
C	-0.442501	-1.279559	0.549978
N	-0.786966	-2.324099	0.967303
N	-0.406087	1.09216	0.854103
H	0.260647	1.841726	0.735561
H	-1.336831	1.406257	0.631553
H	2.660072	0.0	0.0
