17

C	-0.617585	0.028521	-1.394344
C	0.0	0.0	0.0
Br	0.180461	-1.385284	-2.494681
H	1.091844	0.0	0.0
C	-2.121503	-0.111066	-1.422566
H	-2.400624	-1.057655	-0.960063
H	-2.55451	0.718319	-0.858263
H	-2.497618	-0.078614	-2.44343
N	-0.223302	1.342784	-2.061946
O	-1.039079	1.836568	-2.841962
O	0.880338	1.796722	-1.805531
C	-0.439446	-1.198138	0.700901
N	-0.814006	-2.139571	1.300304
N	-0.379988	1.232059	0.699554
H	-1.019523	1.047225	1.460715
H	0.486134	1.609247	1.081394
H	2.634113	0.0	0.0
