17

C	-0.645947	0.009014	-1.379909
C	0.0	0.0	0.0
Br	0.128586	-1.416748	-2.481512
H	1.091872	0.0	0.0
C	-2.15013	-0.13228	-1.367465
H	-2.564536	0.697461	-0.788588
H	-2.414563	-1.07847	-0.894035
H	-2.55619	-0.101238	-2.376109
N	-0.273284	1.31514	-2.075885
O	0.805388	1.81726	-1.799023
O	-1.079516	1.753915	-2.897884
C	-0.423267	-1.192683	0.720903
N	-0.779424	-2.132243	1.333943
N	-0.383985	1.235676	0.696024
H	-0.962748	1.040232	1.503019
H	0.491815	1.648021	1.017574
H	2.634366	0.0	0.0
