17

C	-0.40445	-0.026338	-1.455577
C	0.0	0.0	0.0
Br	-2.382953	0.114513	-1.675183
H	1.093104	0.0	0.0
C	0.287251	1.073715	-2.216826
H	0.047089	1.021715	-3.277279
H	-0.013728	2.028709	-1.792079
H	1.364722	0.938661	-2.045009
N	-0.031987	-1.352433	-2.108213
O	0.411821	-2.238853	-1.385596
O	-0.176929	-1.434081	-3.325049
C	-0.534552	-1.084908	0.811201
N	-0.971893	-1.874564	1.566055
N	-0.313482	1.311993	0.568468
H	-1.143789	1.270989	1.145441
H	0.483471	1.572124	1.144519
H	2.618986	0.0	0.0
