15

C	0.0	0.0	0.0
C	-0.490575	-0.451755	-1.40273
F	1.37957	0.0	0.0
H	-1.194152	-1.272783	-1.24025
H	-0.363737	1.003758	0.204686
C	-0.425082	-0.912372	1.076155
N	-0.589616	-1.644604	1.980241
C	0.660399	-0.921538	-2.284718
H	0.250906	-1.297971	-3.22777
H	1.234766	-1.72611	-1.820404
H	1.334143	-0.091739	-2.508692
N	-1.170965	0.697398	-2.0022
H	-1.998912	0.724611	-1.369776
H	-1.500087	0.41048	-2.922411
F	-2.606758	0.0	0.0
