15

C	0.0	0.0	0.0
C	-0.39306	0.002796	-1.522181
F	1.385247	0.0	0.0
H	0.569714	-0.174749	-2.021545
H	-0.375561	0.868154	0.535558
C	-0.424428	-1.227207	0.689692
N	-0.601281	-2.235578	1.2646
C	-0.925752	1.380025	-1.8915
H	-0.226807	2.172533	-1.599237
H	-1.095735	1.434903	-2.969406
H	-1.868018	1.483216	-1.35177
N	-1.336867	-1.005445	-1.971674
H	-0.950502	-1.92148	-1.764694
H	-2.128107	-0.843387	-1.314155
F	-2.608079	0.0	0.0
