15

C	0.0	0.0	0.0
C	-0.404295	0.024986	-1.484094
F	1.388904	0.0	0.0
H	-1.495063	0.044282	-1.443159
H	-0.369679	0.894595	0.494333
C	-0.45522	-1.183542	0.732997
N	-0.559815	-2.17955	1.3455
C	0.121318	-1.199323	-2.2155
H	-0.166659	-1.136835	-3.267024
H	1.213296	-1.262697	-2.162764
H	-0.297493	-2.113898	-1.789178
N	0.099895	1.241105	-2.13904
H	1.078127	1.362848	-1.882774
H	-0.406853	2.031502	-1.753022
F	-2.514924	0.0	0.0
