15

C	0.0	0.0	0.0
C	-0.388475	0.053523	-1.523377
F	1.386677	0.0	0.0
H	0.574205	-0.117951	-2.024668
H	-0.374857	0.850913	0.562264
C	-0.423866	-1.251988	0.643318
N	-0.575056	-2.310725	1.128596
C	-0.911041	1.446345	-1.8472
H	-1.856377	1.531038	-1.309367
H	-1.074648	1.539852	-2.923739
H	-0.212314	2.22514	-1.521689
N	-1.33914	-0.931047	-2.011866
H	-2.129958	-0.78856	-1.35012
H	-0.960155	-1.856614	-1.834328
F	-2.600259	0.0	0.0
