15

C	0.0	0.0	0.0
C	-0.388266	0.407841	-1.468527
F	1.385207	0.0	0.0
H	0.574789	0.360614	-1.994499
H	-0.374583	0.697328	0.744595
C	-0.429302	-1.3653	0.333252
N	-0.564694	-2.505204	0.582257
C	-0.908001	1.838319	-1.460167
H	-1.069635	2.180055	-2.485475
H	-0.205667	2.517905	-0.963081
H	-1.853668	1.804408	-0.917342
N	-1.336471	-0.435675	-2.174066
H	-2.128296	-0.453149	-1.498938
H	-0.957501	-1.376766	-2.22078
F	-2.595846	0.0	0.0
