15

C	0.0	0.0	0.0
C	-0.384164	-0.275218	-1.501471
F	1.389242	0.0	0.0
H	0.580187	-0.542893	-1.952968
H	-0.372024	0.953777	0.364444
C	-0.432661	-1.080727	0.895092
N	-0.562707	-2.002188	1.611981
C	-0.905953	1.014807	-2.11842
H	-0.196982	1.839538	-1.981565
H	-1.080378	0.871273	-3.187745
H	-1.844167	1.230421	-1.604965
N	-1.331639	-1.342302	-1.769224
H	-0.958057	-2.209975	-1.395688
H	-2.122948	-1.058825	-1.155975
F	-2.586595	0.0	0.0
