15

C	0.0	0.0	0.0
C	-0.191351	-0.266541	-1.533254
F	1.390584	0.0	0.0
H	0.537057	0.452826	-1.95517
H	-0.375838	0.971655	0.295954
C	-0.473617	-1.036907	0.91374
N	-0.558774	-1.884416	1.724398
C	-1.496921	-0.040107	-2.266185
H	-2.260761	-0.697291	-1.870227
H	-1.307596	-0.204875	-3.342025
H	-1.857975	0.975703	-2.116771
N	0.255326	-1.650178	-1.769868
H	0.271058	-1.809281	-2.771211
H	1.209079	-1.741717	-1.437301
F	-2.420639	0.0	0.0
