15

C	0.0	0.0	0.0
C	-0.438675	0.053927	-1.489706
Cl	1.789481	0.0	0.0
H	0.118242	-0.739464	-2.003434
C	-0.394246	1.226625	0.826929
H	-0.002266	1.110004	1.839695
H	-1.480098	1.268436	0.822369
H	0.057731	2.113068	0.378186
C	-0.444807	-1.253159	0.606926
N	-0.607141	-2.291007	1.135126
C	0.004136	1.321047	-2.089961
N	0.370182	2.318424	-2.589862
C	-1.881809	-0.152671	-1.825229
N	-2.625083	-0.345043	-2.728775
F	-2.559925	0.0	0.0
