15

C	0.0	0.0	0.0
C	-0.436681	0.002366	-1.490021
Cl	1.789328	0.0	0.0
H	0.140054	-0.79793	-1.97453
C	-0.392425	1.256322	0.785634
H	0.067711	2.124798	0.311533
H	-0.007569	1.170973	1.803333
H	-1.478961	1.305905	0.773235
C	-0.448381	-1.236094	0.63851
N	-0.611397	-2.286004	1.141987
C	-0.014202	1.255566	-2.130141
N	0.333815	2.246702	-2.653753
C	-1.871164	-0.240334	-1.833842
N	-2.618512	-0.361482	-2.743993
F	-2.546372	0.0	0.0
