15

C	0.0	0.0	0.0
C	-0.382948	0.113473	-1.514007
Cl	1.789639	0.0	0.0
H	0.171246	-0.689888	-2.018033
C	-0.398997	1.199437	0.862694
H	-0.009618	1.043106	1.870737
H	-1.487021	1.247909	0.857718
H	0.062309	2.097437	0.446347
C	-0.465761	-1.275878	0.538378
N	-0.609631	-2.350199	0.993089
C	0.143428	1.37209	-2.065673
N	0.561515	2.367341	-2.528024
C	-1.799221	-0.010674	-1.949565
N	-2.643029	-0.0948	-2.781092
F	-2.551562	0.0	0.0
