15

C	0.0	0.0	0.0
C	-0.433413	0.077056	-1.485229
Cl	1.789393	0.0	0.0
H	0.0837	-0.744832	-1.997833
C	-0.393655	1.206335	0.853267
H	-1.477548	1.235943	0.888668
H	0.028744	2.107714	0.402198
H	0.038818	1.086939	1.849711
C	-0.435717	-1.270656	0.580369
N	-0.600643	-2.328486	1.06548
C	0.072228	1.319587	-2.086072
N	0.477108	2.304805	-2.581473
C	-1.883562	-0.061512	-1.81958
N	-2.621653	-0.271175	-2.723969
F	-2.55614	0.0	0.0
