15

C	0.0	0.0	0.0
C	-0.44213	0.038679	-1.485147
Cl	1.789661	0.0	0.0
H	0.0877	-0.780989	-1.987364
C	-0.396171	1.232154	0.813343
H	0.020437	1.141697	1.819101
H	0.03173	2.118939	0.33939
H	-1.482706	1.26073	0.829943
C	-0.440498	-1.247257	0.625384
N	-0.602056	-2.277486	1.167258
C	0.027853	1.282068	-2.111697
N	0.397902	2.27203	-2.624094
C	-1.890762	-0.125675	-1.81094
N	-2.63421	-0.245199	-2.726643
F	-2.561722	0.0	0.0
