15

C	0.0	0.0	0.0
C	-0.308643	-0.029513	-1.524192
Cl	1.789749	0.0	0.0
H	0.334204	0.750509	-1.95428
C	-0.376114	1.325717	0.662562
H	0.055668	1.342316	1.668963
H	-1.462894	1.344794	0.686955
H	0.055191	2.14919	0.08733
C	-0.476006	-1.187903	0.693936
N	-0.676919	-2.231919	1.209785
C	-1.666069	0.242315	-2.034864
N	-2.595863	0.315973	-2.750971
C	0.188076	-1.272682	-2.116258
N	0.47642	-2.295446	-2.599597
F	-2.44455	0.0	0.0
