15

C	0.0	0.0	0.0
C	-0.466459	-0.066156	-1.478176
Cl	1.789376	0.0	0.0
H	0.223993	-0.744695	-1.993715
C	-0.398546	1.260623	0.769166
H	0.044234	2.130874	0.280735
H	-0.00148	1.190307	1.784224
H	-1.485519	1.294437	0.767418
C	-0.418898	-1.219135	0.696215
N	-0.576824	-2.221208	1.289577
C	-0.306277	1.247323	-2.11073
N	-0.15068	2.289515	-2.629437
C	-1.832416	-0.598405	-1.737517
N	-2.508145	-1.203476	-2.498899
F	-2.559213	0.0	0.0
