15
Coordinates from ORCA-job run
  C   -0.70006593609372     -0.04142339770287      0.37377999331275
  C   0.76174591275869      0.35278923126638      0.57001012898721
  F   -0.87926504378740     -1.31924390804231      0.91020385322960
  H   0.87710145371810      1.40024140316939      0.27374206097128
  H   0.96230422733155      0.30080725502460      1.64426507830352
  C   -1.55698721645674      0.87854317721880      1.14854807980763
  N   -2.22370048625714      1.63688139480818      1.74711347561165
  C   -1.15594461962163     -0.08174192989960     -1.07305837731210
  H   -0.58619982559609     -0.83835231805188     -1.61265988331626
  H   -2.21366559102028     -0.34368080023352     -1.12022883316950
  H   -1.00922680160249      0.88957602997414     -1.54952745555266
  C   1.73796453046762     -0.53963523616725     -0.18914280402642
  H   1.67779090432541     -0.38968794206107     -1.26840192066951
  H   1.54674471970636     -1.59172292461450      0.02764683183502
  H   2.76140377212776     -0.31435003468850      0.11670977198778
