15
Coordinates from ORCA-job run
  C   -0.78228381666084     -0.18562423081656      0.37512029352137
  C   0.65467259348248     -0.65898860259930      0.55864598676359
  F   -1.60258990201716     -1.07291607019380      1.07487359252124
  H   0.70103805412187     -1.67611001971556      0.15635907342080
  H   0.83631570431471     -0.72982157487249      1.63509360324806
  C   -0.95912912184802      1.14720051304365      0.98587536423482
  N   -1.06979066146477      2.21904110873367      1.45188723795072
  C   -1.25216092234730     -0.16786808825497     -1.06742306064081
  H   -0.71823742973565      0.58383523646063     -1.64946496314286
  H   -1.08565635774754     -1.15274130735075     -1.50879534085538
  H   -2.31897183431531      0.05770929822772     -1.09865759231113
  C   1.69322772332661      0.23950328437575     -0.10385547498654
  H   2.69824989104649     -0.12066684285238      0.12307466021238
  H   1.62008773452786      1.26722580845723      0.25930906649433
  H   1.58622834531658      0.25022148735717     -1.19004244643057
