15
Coordinates from ORCA-job run
  C   -0.69101599255354     -0.03946036882391      0.39005603364874
  C   0.77220467852027      0.36510950721235      0.54969789030350
  F   -0.85069518787755     -1.31105717739433      0.94849206950356
  H   0.87625188857979      1.40972859161604      0.23948182180018
  H   0.99633417533317      0.32597292800432      1.61987915158967
  C   -1.53772602222336      0.88549747873597      1.16915956587080
  N   -2.20018041593547      1.64759831727389      1.76787666613980
  C   -1.17773784273125     -0.10380381715031     -1.04575237063805
  H   -2.23482059965215     -0.37173842842397     -1.06594677944500
  H   -0.61589560864931     -0.86545644318959     -1.58653461867305
  H   -1.04664165509881      0.86100524053458     -1.53974272274149
  C   1.73662514071746     -0.53102781857300     -0.22031221288151
  H   2.76521836764100     -0.29730372927226      0.06096229275254
  H   1.55545790116910     -1.58150939735841      0.01230365609746
  H   1.65262117276066     -0.39355488319137     -1.29962044332716
