15
Coordinates from ORCA-job run
  C   -0.64094695310419      0.04017101962211      0.14138383314308
  C   0.76559567895300     -0.44106301541873     -0.19308982543821
  F   -0.90460482950687     -0.28776129486199      1.47392530708738
  H   0.95647354045538     -0.22738197313505     -1.24975176283932
  H   0.75525265545410     -1.52996992051636     -0.07730242809962
  C   -0.71828307127158      1.51086315963365      0.03314885074751
  N   -0.76944207874934      2.67750949241107     -0.08689166968759
  C   -1.71461106589671     -0.60749926396737     -0.71293630800835
  H   -1.64992604030673     -1.69154054021646     -0.60222222680301
  H   -1.58204284636159     -0.34426830170789     -1.76370248152278
  H   -2.70102087158664     -0.27664290190606     -0.38520979847647
  C   1.84325053122776      0.17905697532901      0.68848682599702
  H   1.63298908044523     -0.00898881089756      1.74192181184943
  H   2.81877930722738     -0.25134570270776      0.45413541298346
  H   1.90753696302081      1.25886107833938      0.53810445906746
