13

C	0.0	0.0	0.0
C	-0.525287	-0.059256	-1.41042
F	1.381932	0.0	0.0
H	-1.631488	-0.13251	-1.289379
H	-0.2894	-0.920122	0.518839
H	-0.222528	0.815006	-1.981414
N	-0.512321	1.201627	0.589836
H	-0.302383	1.173424	1.583048
H	-1.541588	1.070108	0.513607
N	-0.037529	-1.248501	-2.130191
O	-0.127746	-2.341659	-1.565804
O	0.398562	-1.096341	-3.275712
H	-3.025781	0.0	0.0
