13

C	0.0	0.0	0.0
C	-0.469187	0.027969	-1.45219
F	1.396817	0.0	0.0
H	-1.571843	0.117146	-1.373127
H	-0.334038	-0.96485	0.391717
H	-0.17008	-0.868563	-1.991856
N	-0.500576	1.01465	0.859554
H	-1.518418	0.826925	0.868542
H	-0.382517	1.909903	0.397099
N	0.091339	1.159313	-2.213186
O	0.702607	0.914069	-3.25879
O	-0.088335	2.300623	-1.777464
H	-3.019943	0.0	0.0
