15

C	0.0	0.0	0.0
C	-0.620739	0.043024	-1.364905
F	1.381487	0.0	0.0
H	-1.819821	-0.008246	-1.004062
H	-0.337553	-0.942454	0.442962
C	-0.445121	1.170645	0.863607
H	-0.013971	2.100434	0.48631
H	-0.097131	0.999198	1.883378
H	-1.537522	1.210171	0.838657
C	-0.197417	-1.062598	-2.202244
N	0.090599	-2.008497	-2.833158
N	-0.343518	1.31996	-2.063617
O	0.576391	1.343413	-2.887519
O	-1.041489	2.293704	-1.753969
H	-2.891496	0.0	0.0
