16
Coordinates from ORCA-job run
  C   -0.35698446027531     -0.42541167528597     -0.39028621695374
  C   0.82173205442118      0.57041393757399     -0.28571108583487
  F   -0.20851572522541     -0.92240147453891     -1.70940215195668
  H   0.69246029699689      1.35335321378120     -1.03444783762396
  N   -0.22002604426445     -1.42601020062577      0.58822751031601
  H   -1.01039950863804     -2.05628003122277      0.59578183423981
  H   0.64086133346305     -1.95125221919409      0.49637891781474
  C   -1.71413526981877      0.23698501251763     -0.32647003960668
  H   -1.91508300565454      0.63420577997830      0.66631901361005
  H   -1.78032766223211      1.04195848141224     -1.05815663765604
  H   -2.46879119532281     -0.51259482831334     -0.57554835217593
  C   2.09526805563558     -0.11337471291083     -0.47142832526227
  N   3.10038500945010     -0.69599137550386     -0.64036218834134
  N   0.79471342593582      1.25476243261611      1.05757503129933
  O   0.04305549227525      2.22269223692028      1.13330173709597
  O   1.48578720325356      0.78894542279581      1.95322879103559
