16
Coordinates from ORCA-job run
  C   -0.35685305711866     -0.40940552794738     -0.40744881772828
  C   0.82698611544897      0.57486949792951     -0.25986942081340
  F   -0.20215368602617     -0.86079209652061     -1.74199948420443
  H   0.70801276388859      1.38470927148134     -0.98124759373614
  N   -0.23234205948299     -1.44456913338839      0.53648191750582
  H   0.62536455681090     -1.97214362614266      0.42994629252755
  H   -1.02675790401092     -2.06945150973192      0.51655493588981
  C   -1.71046774383905      0.25861711888758     -0.32954873657568
  H   -1.91529897041769      0.62365787329875      0.67480008535651
  H   -1.76721557448212      1.08828215435602     -1.03405135721183
  H   -2.46801146438059     -0.47751568550671     -0.60817426813725
  C   2.09812117860339     -0.10904988481057     -0.46096661140031
  N   3.10233841051367     -0.68970286677981     -0.64139804056949
  N   0.79467500194287      1.21181880548198      1.10630044473173
  O   0.04740801726900      2.18053487242969      1.21092259817509
  O   1.47719441528081      0.71114073696319      1.98969805619030
