16
Coordinates from ORCA-job run
  C   -0.36144365154004     -0.53152127269214     -0.05525327756635
  C   0.62540247374346      0.66239303179690      0.16114824610927
  F   0.45417354710248     -1.54395627608930     -0.55411840373322
  H   0.11861173728431      1.44739908938892      0.72670347803406
  N   -0.98673098086341     -1.00256796103854      1.12541065887363
  H   -0.39082897877829     -0.97245263058045      1.94121103873792
  H   -1.86884236845797     -0.54814159791785      1.30698973257831
  C   -1.39343984468957     -0.18525459923433     -1.10634648179234
  H   -1.94715313043721      0.71852067467828     -0.83957262802640
  H   -0.91386467468164     -0.03483040511715     -2.07251019348249
  H   -2.08773474364324     -1.02300578780369     -1.18492057364623
  C   1.15318181987315      1.18570916478084     -1.09028492323460
  N   1.50658910397760      1.62868629863681     -2.11864635214522
  N   1.76521083969035      0.19191971557258      1.03294549376652
  O   1.49093994312708      0.06841433012409      2.22580501799013
  O   2.83692890829293     -0.06031177450498      0.50243916753698
