16
Coordinates from ORCA-job run
  C   -0.37081550612037     -0.31515807216881     -0.52827423074469
  C   0.98343218047109      0.37657877806777     -0.24502387497975
  F   -0.83022325799698      0.22626125132867     -1.71471171826308
  H   1.58425054335748      0.28159696568987     -1.15002140864774
  N   -0.04762026224427     -1.69450091419038     -0.81111112084779
  H   -0.80171616161219     -2.09138723159451     -1.36045781885544
  H   0.03590156962143     -2.22712825256771      0.04731091775561
  C   -1.42407279248704     -0.07677082068103      0.53291046904518
  H   -1.07701837750025     -0.42122876286701      1.50898682805373
  H   -1.68393826329602      0.97902329260879      0.60836521702983
  H   -2.31838608431664     -0.63800353174616      0.25519043896297
  C   1.63974083312804     -0.23544106874016      0.90030780578879
  N   2.13777863231722     -0.78124559974717      1.81283067252276
  N   0.78607618159539      1.84921122543368     -0.00392748127907
  O   0.88192202285509      2.56862727730737     -0.99177741216648
  O   0.50468874222811      2.19956546386688      1.13840271662521
