16
Coordinates from ORCA-job run
  C   -0.34529513967351     -0.49645093958349     -0.10449203754320
  C   0.58634883930471      0.71791843330479      0.07149072242334
  F   0.38302012531633     -1.49568533671007     -0.76313517369857
  H   -0.01400855735056      1.58608192795078      0.34769267240729
  N   -0.80294317595753     -0.91230167785312      1.17121420672115
  H   -1.59020193640621     -1.54112939875455      1.07948223820233
  H   -0.06424014249592     -1.38405670454211      1.67895831163022
  C   -1.49921924402593     -0.12088271068216     -1.01132855582656
  H   -1.12760965581508      0.23499855032620     -1.97301611712137
  H   -2.10119350300800     -1.01329772436050     -1.19543079658781
  H   -2.12456058648143      0.64383477592991     -0.54951413327830
  C   1.35846662045706      0.99974726862981     -1.13328359672697
  N   1.95851853353625      1.24378425918548     -2.11234159924099
  N   1.55552339290270      0.54779687386389      1.22165417526998
  O   1.75270799804677      1.54429267368234      1.90662868741559
  O   2.07268643165035     -0.55465027038718      1.36342099595383
