16
Coordinates from ORCA-job run
  C   -0.34120487648763     -0.25303923079766     -0.57742822191216
  C   0.98064999232597      0.42709251720337     -0.15026658982333
  F   -0.76839040830364      0.42895589810191     -1.70191690097697
  H   1.62180822127214      0.45656261650347     -1.03173174621635
  N   0.03279769137406     -1.57558142670165     -1.02330718715538
  H   -0.68651952078324     -1.91363363386104     -1.65297063927358
  H   0.09464775174425     -2.21438342223269     -0.23866233975610
  C   -1.44274019323801     -0.18254636224365      0.45865456980800
  H   -1.12721744407965     -0.65092416717192      1.39292239898889
  H   -1.73271939661127      0.84723347320812      0.66623771987177
  H   -2.30977311557468     -0.71846904510289      0.06742999846043
  C   1.60446258021240     -0.30695071793825      0.94029567011910
  N   2.08211363299944     -0.94999780063121      1.79876766873629
  N   0.73635130789522      1.85474846676907      0.25890428026064
  O   0.87125642085410      2.69366759527945     -0.62471204434574
  O   0.38447735640049      2.05526523961562      1.41778336321444
