16
Coordinates from ORCA-job run
  C   -0.37019130798716     -0.46818365111084     -0.49285372205090
  C   0.80633555306950      0.55501922282405     -0.33307466244654
  F   -0.24753410897194     -0.83072250772260     -1.83026637682315
  H   0.71878608343717      1.33200477546602     -1.09312813168746
  N   -0.27130347317309     -1.65546136280107      0.27537797034605
  H   -0.46897279794894     -1.49424673100863      1.25291768676286
  H   0.63528115577464     -2.09745162176984      0.18030010555301
  C   -1.70707731907996      0.20708210371425     -0.28800643437911
  H   -2.48144082209519     -0.49780077020765     -0.58951319934257
  H   -1.78102832900800      1.10855627838448     -0.89726297794019
  H   -1.86520424403349      0.47756994426344      0.75776203326379
  C   2.09164040019897     -0.12042563680142     -0.41467466994900
  N   3.10156905234081     -0.71441233741751     -0.49258732457294
  N   0.66780249497182      1.23818941698663      0.99563204128993
  O   0.22765801350925      2.38377572419040      0.97713563097478
  O   0.94267964899566      0.57550715301033      1.99224203100147
