16
Coordinates from ORCA-job run
  C   -0.41550322683215     -0.23661478268936     -0.59735359192315
  C   0.93504944864904      0.36112734375060     -0.10786576849172
  F   -0.74724350301216      0.56373022922673     -1.68423019067232
  H   1.63985370480903      0.32906529648298     -0.94209809925136
  N   -0.25179214448311     -1.56976424757588     -1.06365267280532
  H   0.58967434251174     -1.71331295584908     -1.60573795615382
  H   -0.32705697101147     -2.25744439355464     -0.32869110413694
  C   -1.52869317260967     -0.15916052237146      0.42040421120905
  H   -2.40826127312681     -0.63268042402697     -0.01713177069229
  H   -1.26031530981468     -0.67174217563957      1.34597476124868
  H   -1.76213147522891      0.87754793378719      0.65438203127904
  C   1.44073301319938     -0.38054145882766      1.03736414907865
  N   1.83411902567395     -1.03416222818619      1.93008537472947
  N   0.79769302401784      1.82057770629217      0.24230049133723
  O   1.14883784734806      2.61718012601614     -0.62004684338250
  O   0.31503666990993      2.08519455316510      1.33929697862730
