16
Coordinates from ORCA-job run
  C   -0.37583557025251     -0.38902151786039     -0.54208854100620
  C   0.97569468742625      0.23746579502556     -0.09204218247611
  F   -0.50289512249534      0.03055989602664     -1.86075111382367
  H   1.75388556815202     -0.11526001291806     -0.77300690655023
  N   -0.31541482836398     -1.80981163596516     -0.53508568915973
  H   0.55381258481246     -2.18287650892090     -0.89283641028952
  H   -0.53294772351782     -2.20933581321353      0.36602655093915
  C   -1.57147364839656      0.09917607426810      0.24088512785273
  H   -2.44891988885043     -0.42776259758793     -0.13549467408520
  H   -1.71100461166789      1.16902132334742      0.09924875909964
  H   -1.45750595573475     -0.09741984296038      1.30850168611575
  C   1.27645970773607     -0.12455313645968      1.28480480308080
  N   1.49773938795423     -0.47695562217298      2.38288598247436
  N   0.96486638459294      1.73717731191890     -0.24092042197767
  O   0.40872789809266      2.37913720299617      0.64507627779910
  O   1.48381113051264      2.18145908447624     -1.25820324799328
