16
Coordinates from ORCA-job run
  C   -0.34419232605923     -0.50401368826477     -0.10252734364892
  C   0.57259377683962      0.71304077564916      0.11097590887355
  F   0.39387230320338     -1.46294679720186     -0.81069348803654
  H   -0.02758668819872      1.54386270416378      0.48657897815230
  N   -0.78975001751001     -0.97756789455424      1.15678956771304
  H   -0.04145957145403     -1.45541935048761      1.64298974819381
  H   -1.56969053295169     -1.61156939831686      1.04260654657349
  C   -1.51158584288597     -0.10671426599287     -0.98343966368316
  H   -1.15547989154279      0.27704580850657     -1.93995442064700
  H   -2.11315588060995     -0.99608962020406     -1.18336852549797
  H   -2.13419863712930      0.64152701026958     -0.49173280978432
  C   1.25946533101167      1.10805227071596     -1.11421034774576
  N   1.78551082377372      1.43388234186517     -2.11185039883343
  N   1.63051059829416      0.50554634732659      1.17902847810475
  O   2.02462432406170     -0.63593152298053      1.38815112420830
  O   2.02152223115740      1.52729527950598      1.72965664605783
