16
Coordinates from ORCA-job run
  C   -0.36679298490951     -0.46191459268938     -0.50101878722384
  C   0.79493429435161      0.57571113037373     -0.32521708918905
  F   -0.24886314020294     -0.79095964974821     -1.84727074668117
  H   0.68985258893787      1.36904067458953     -1.06593468829149
  N   -0.24352876653017     -1.66578613655360      0.23754019892792
  H   -0.42849629620905     -1.52979440323968      1.22134904698317
  H   0.66689884621870     -2.09400396012593      0.11884627020247
  C   -1.71236173311649      0.18722186570380     -0.27015337108490
  H   -2.47785544792972     -0.52207471326227     -0.58373479758833
  H   -1.80477825954482      1.10231549533211     -0.85615299878183
  H   -1.86693257398126      0.42867607612611      0.78319546094023
  C   2.08993965994577     -0.07733452066175     -0.43168892773021
  N   3.10757656760050     -0.65466245428367     -0.53144010790550
  N   0.65547061314376      1.22545345317139      1.02009518662094
  O   0.19820602467556      2.36439263272733      1.03150926783049
  O   0.94673060755019      0.54371910254043      1.99907608297105
