16
Coordinates from ORCA-job run
  C   -0.35921325074194     -0.42916589357884     -0.38469968389155
  C   0.81435903362002      0.57403630759045     -0.29770347375620
  F   -0.22381796549048     -0.92908981412148     -1.70432331428474
  H   0.67048968596358      1.35472507241836     -1.04608425648441
  N   -0.20445094714495     -1.42611483714793      0.59464576353848
  H   -0.99110439649267     -2.06071229972911      0.61400821534675
  H   0.65838400266730     -1.94639077773883      0.49373907633351
  C   -1.71920798654692      0.22582908238637     -0.30659566181120
  H   -1.91044170067067      0.62469870260415      0.68738815241752
  H   -1.79819491551593      1.02844292000816     -1.03952514953330
  H   -2.47292791833956     -0.52819357046310     -0.54466155104646
  C   2.09042478140788     -0.10084872085481     -0.49800854690305
  N   3.09958325801746     -0.67510971900641     -0.67113628007900
  N   0.80000779476467      1.26153439267050      1.04447202047334
  O   1.50380080755898      0.80125658922870      1.93289176897119
  O   0.04230971694320      2.22410256573382      1.12759292070909
