16
Coordinates from ORCA-job run
  C   -0.33881069469440     -0.48383414559476     -0.05146636605565
  C   0.52448310538945      0.76285997830259      0.26201599527354
  F   0.57216531834840     -1.42643171831458     -0.57796270491154
  H   -0.03118959508983      1.41640989241647      0.93804884854084
  N   -0.96664045799894     -0.93609935977887      1.13054997211362
  H   -1.52768152963231     -1.75651408620180      0.94160216335171
  H   -0.30061033096704     -1.13385282848789      1.86629841746899
  C   -1.36086169989786     -0.20159274681387     -1.13020875411985
  H   -2.01283902921750      0.62213821491747     -0.83650643219586
  H   -0.86964672763118      0.03430687568171     -2.07319753668277
  H   -1.97183375823942     -1.09523130092275     -1.27555394827007
  C   0.93042930710488      1.48213229483638     -0.93721626174845
  N   1.20381282760258      2.09772274871989     -1.89872593395126
  N   1.75916838242240      0.32211078078306      1.02269805822006
  O   2.83445997949508      0.34042301936011      0.44330167500126
  O   1.55659490300571     -0.04454761890316      2.17732280796542
