16
Coordinates from ORCA-job run
  C   -0.41247495220199     -0.49474986954338     -0.04498870292855
  C   0.68576908634852      0.60131495956776      0.15097945336334
  F   0.30527485116141     -1.59840900930018     -0.49973388480140
  H   0.25325704331650      1.45053833908213      0.68457522481999
  N   -1.09761464431631     -0.86417205731248      1.13826549390653
  H   -1.93300519373501     -0.31995296975551      1.29156019027598
  H   -0.51324933756319     -0.86843165119379      1.96288300823865
  C   -1.39047544008681     -0.08153088363559     -1.12317095252053
  H   -2.16267578498598     -0.84920898314018     -1.18911236056097
  H   -0.88549672572804     -0.00804871741696     -2.08526831793740
  H   -1.85638682697938      0.87966664899365     -0.89165191252183
  C   1.27875134909536      1.03032527541588     -1.10705662668974
  N   1.69530089326498      1.40848181092229     -2.13780657271183
  N   1.76184177660806      0.04785704615693      1.05461932413669
  O   1.46001030452053     -0.01173209310550      2.24577477975620
  O   2.81117360128136     -0.32294784573507      0.55013185617485
