16
Coordinates from ORCA-job run
  C   -0.42870023944956     -0.40725569492218      0.02319996711601
  C   0.66268460569566      0.68521041441517      0.14152169960312
  F   0.28556656706704     -1.59886175246015     -0.23373572562356
  H   0.23274527786669      1.56283159080028      0.62925969007308
  N   -1.17236170155790     -0.46718109535090      1.22267347739524
  H   -0.58502495484517     -0.63252032241196      2.02991641827585
  H   -1.88642779708793     -1.18121145843427      1.16144303240856
  C   -1.33688253819982     -0.16779357164133     -1.16241389934141
  H   -0.77850160212657     -0.23880544602028     -2.09472337941907
  H   -1.81383245010668      0.81059211690922     -1.09071693677350
  H   -2.11403333135087     -0.93524260244291     -1.16808621164523
  C   1.24453654180316      1.03944522998325     -1.14541694576443
  N   1.65584419553998      1.35743016994638     -2.19799748602847
  N   1.75628649212049      0.18456405608030      1.06407795405340
  O   2.83148925773617     -0.12486379214074      0.57377117095182
  O   1.44561167689541      0.11366215769007      2.25022717471857
