16
Coordinates from ORCA-job run
  C   -0.39129235229246     -0.28235655100586     -0.48492769526126
  C   0.95108193404713      0.38287366612869     -0.10670209698851
  F   -0.91362312173333      0.54975393960635     -1.49545874128565
  H   1.62861377331085      0.31630734570930     -0.96105363782835
  N   -0.07681416712358     -1.57448652219571     -0.96570480142047
  H   0.43391472026478     -1.53505138893566     -1.83922945369686
  H   -0.90670140076335     -2.13999498214344     -1.08641104294989
  C   -1.40670803505213     -0.34021454901069      0.63129361088317
  H   -1.04112024668737     -0.95442657704513      1.45397788416296
  H   -1.63076561388709      0.65875637236778      0.99885779225943
  H   -2.32609505747784     -0.77713609920377      0.23488559476486
  C   1.54141712419935     -0.23006763780000      1.07351418719240
  N   2.02201336128466     -0.72971129302433      2.02085719472570
  N   0.75869184184061      1.86133744813038      0.12460412253546
  O   0.23960451711032      2.19550765353408      1.18442688870288
  O   1.11878272295947      2.59990917488803     -0.78392980579587
