16
Coordinates from ORCA-job run
  C   -0.41168449949031     -0.20202778999878     -0.55065818220017
  C   0.92696455655338      0.50103726228893     -0.22622178434297
  F   -1.02767305417864      0.58377408369895     -1.50736090534360
  H   1.43197614465577      0.67633934833180     -1.17656803778423
  N   -0.04824151102450     -1.43530640300617     -1.21084179727905
  H   0.12551494089333     -2.16814239140141     -0.53251211309016
  H   -0.82386826996918     -1.72141668994714     -1.79779842270053
  C   -1.35181160233884     -0.32776243517267      0.62913813132976
  H   -0.88199043373870     -0.88520128663487      1.44183463036194
  H   -1.65372186084856      0.64886677575083      1.00686439633455
  H   -2.24189419844439     -0.86566414329404      0.29694443272782
  C   1.73548290540273     -0.32034131333617      0.66219713057731
  N   2.39186699140916     -1.01419064641925      1.34505742894157
  N   0.68289934773506      1.84986897743441      0.39528622945856
  O   0.49641223194002      1.88459190004993      1.60812212716077
  O   0.65076831144366      2.79757475165567     -0.38148326415157
