16
Coordinates from ORCA-job run
  C   -0.43530013179840     -0.25205056707311     -0.57889537029174
  C   0.90349451914237      0.41318562932605     -0.15007677271254
  F   -0.86913112819815      0.54423621282069     -1.63224239037216
  H   1.56408593962280      0.43319720195231     -1.02012866360831
  N   -0.22219707073629     -1.56677815738325     -1.07757619610065
  H   -0.21757508783167     -2.26832849859065     -0.35187288930476
  H   0.59561985000088     -1.65303649369244     -1.66611017932313
  C   -1.49541090564407     -0.25428384906301      0.49685693777166
  H   -1.14976810544603     -0.76514251862245      1.39748171455700
  H   -2.36887179434851     -0.77051190478710      0.09704176726356
  H   -1.77387807413509      0.76356902551582      0.76217358280140
  C   1.51223245532797     -0.31429923379247      0.95344584477889
  N   2.01715476899159     -0.93283453909030      1.81444464814897
  N   0.70497580276193      1.85742730879330      0.23279248904325
  O   0.97175650777387      2.68521086935228     -0.63042845771649
  O   0.26281245451677      2.07843951433434      1.35609393506509
