16
Coordinates from ORCA-job run
  C   -0.28754710231093     -0.54227098098993     -0.45922376359173
  C   0.99058961271110      0.17788091298266      0.06078392323408
  F   -0.09664979043833     -0.58663960759806     -1.83455352770359
  H   1.85908915328944     -0.39110538052673     -0.27896490223814
  N   -0.35882073366771     -1.88019348518631      0.01829463233897
  H   0.52811484970062     -2.36612270662441     -0.00137074397129
  H   -0.78485645756261     -1.95014286138949      0.93101221901090
  C   -1.57137079985289      0.19826809424465     -0.16939909869742
  H   -1.69976837196474      0.37289087344567      0.90027764194506
  H   -2.39491146551828     -0.41252735241020     -0.54070617722374
  H   -1.58248103257288      1.15892127559826     -0.68027524795454
  C   0.96494928751386      0.28595449151384      1.51160021100590
  N   0.91920645942600      0.31760830965588      2.68452091980000
  N   1.14258907382797      1.54477039821858     -0.55579494257761
  O   1.89544085057781      1.61995783537108     -1.51956682561738
  O   0.47542646684157      2.45175018369456     -0.06763431775948
