15

C	-0.314108	-0.017915	-1.48477
C	0.0	0.0	0.0
Br	-2.283692	-0.125298	-1.835958
H	1.098633	0.0	0.0
H	-0.029241	0.941348	-1.922279
C	0.387963	-1.159858	-2.184661
H	1.452433	-1.077193	-1.925264
H	0.251951	-1.107215	-3.267122
H	0.010791	-2.122389	-1.833769
N	-0.391684	-1.172605	0.762563
H	0.367192	-1.842032	0.714483
H	-1.242494	-1.582987	0.396003
C	-0.495775	1.221399	0.629574
N	-0.889537	2.21616	1.116969
H	2.714879	0.0	0.0
