15

C	-0.492428	0.03294	-1.445112
C	0.0	0.0	0.0
Br	-0.049187	-1.669556	-2.341394
H	1.102059	0.0	0.0
H	-1.584639	0.058331	-1.47996
C	0.160263	1.166202	-2.2151
H	-0.117876	1.138941	-3.270562
H	-0.160765	2.123284	-1.793268
H	1.24495	1.08592	-2.110315
N	-0.553664	-1.146758	0.747946
H	-0.204782	-1.050971	1.698886
H	-0.065858	-1.95941	0.378429
C	-0.462121	1.23206	0.636956
N	-0.821595	2.226056	1.152374
H	2.813554	0.0	0.0
