15

C	-0.43326	0.049077	-1.47657
C	0.0	0.0	0.0
Br	-0.032254	-1.672929	-2.345946
H	1.096502	0.0	0.0
H	-1.520972	0.131997	-1.569486
C	0.291843	1.159487	-2.214154
H	-0.005627	2.124356	-1.794434
H	1.366607	1.033506	-2.063685
H	0.054003	1.153679	-3.28026
N	-0.428767	-1.141554	0.792938
H	0.318176	-1.825634	0.741672
H	-1.269641	-1.55774	0.410778
C	-0.487245	1.237416	0.615136
N	-0.903252	2.232807	1.083537
H	2.774875	0.0	0.0
