16

C	0.0	0.0	0.0
C	-0.43574	-0.046686	-1.487865
Br	1.960334	0.0	0.0
H	0.410732	-0.443294	-2.057024
H	-0.212066	-0.992703	0.407486
N	-0.590852	1.080866	0.729058
H	-1.609204	0.950906	0.576914
H	-0.434555	0.922116	1.719747
C	-0.74594	1.350271	-2.032661
H	0.093417	2.037176	-1.875769
H	-0.940138	1.274666	-3.109421
H	-1.636533	1.759273	-1.554554
N	-1.514982	-1.025676	-1.604883
H	-2.313169	-0.6936	-1.020534
H	-1.846544	-1.010331	-2.567284
H	-3.378631	0.0	0.0
