16

C	0.0	0.0	0.0
C	-0.285206	0.018249	-1.551933
Br	1.961431	0.0	0.0
H	0.586673	0.457499	-2.042216
H	-0.279756	-0.981288	0.382172
N	-0.602279	0.99352	0.821768
H	-1.610674	0.740969	0.808875
H	-0.521353	1.898588	0.376202
C	-1.500421	0.826238	-1.989838
H	-1.446861	1.870756	-1.657997
H	-2.418208	0.407051	-1.555051
H	-1.527123	0.82583	-3.088701
N	-0.340637	-1.387941	-1.977172
H	-1.248354	-1.745492	-1.692355
H	-0.323006	-1.417936	-2.991276
H	-3.366342	0.0	0.0
