16

C	0.0	0.0	0.0
C	-0.501448	0.084356	-1.43749
Br	1.970848	0.0	0.0
H	-1.593068	0.062453	-1.255316
H	-0.272055	-0.973302	0.41324
N	-0.522608	1.023518	0.845384
H	-1.534344	0.78574	0.873632
H	-0.463799	1.881878	0.301449
C	-0.112366	-1.098814	-2.311331
H	-0.649045	-1.049978	-3.264741
H	0.962177	-1.108124	-2.518356
H	-0.378126	-2.043359	-1.82638
N	-0.163648	1.390737	-2.002438
H	-0.844968	1.630103	-2.710525
H	0.751786	1.352745	-2.438363
H	-3.143549	0.0	0.0
