16

C	0.0	0.0	0.0
C	-0.405469	-0.018452	-1.506272
Br	1.965621	0.0	0.0
H	0.438726	-0.416159	-2.078336
H	-0.254494	-0.984612	0.39323
N	-0.577377	0.982604	0.857546
H	-1.586023	0.753921	0.870803
H	-0.487418	1.900023	0.435704
C	-0.701171	1.392529	-2.021879
H	-0.8699	1.35349	-3.103496
H	0.131642	2.084395	-1.841398
H	-1.611912	1.771501	-1.554366
N	-1.507129	-0.965005	-1.645998
H	-2.293912	-0.644052	-1.038714
H	-1.850707	-0.913473	-2.602448
H	-3.383237	0.0	0.0
