18

C	-0.619088	-0.028682	-1.4035
C	0.0	0.0	0.0
F	-0.333791	-1.281948	-1.905043
H	1.097131	0.0	0.0
C	-2.105316	0.180223	-1.444423
H	-2.359236	1.206747	-1.191235
H	-2.553128	-0.513102	-0.734569
H	-2.466266	-0.026843	-2.452034
N	0.087332	0.91966	-2.366697
O	1.269018	0.684286	-2.567708
O	-0.584098	1.795436	-2.905764
N	-0.536947	-1.136456	0.732537
H	-0.347767	-0.963632	1.713498
H	0.030956	-1.930078	0.45939
N	-0.39592	1.261884	0.689589
O	-0.35283	2.288891	0.014133
O	-0.681121	1.213031	1.884366
Cl	3.299829	0.0	0.0
