18

C	-0.431695	-0.007854	-1.458023
C	0.0	0.0	0.0
F	0.234841	0.936112	-2.1694
H	1.094196	0.0	0.0
C	-0.200807	-1.351742	-2.104576
H	0.854138	-1.598837	-1.971407
H	-0.81039	-2.119428	-1.633457
H	-0.429192	-1.263881	-3.168923
N	-1.914791	0.327522	-1.59078
O	-2.283704	0.886669	-2.612902
O	-2.646335	-0.057699	-0.679057
N	-0.407043	-1.156142	0.7241
H	0.217645	-1.287038	1.507278
H	-1.360248	-1.072594	1.047489
N	-0.42901	1.294677	0.67343
O	-0.723029	2.256348	-0.031923
O	-0.430406	1.293959	1.900956
Cl	3.241335	0.0	0.0
