18

C	-0.512643	0.005409	-1.451191
C	0.0	0.0	0.0
F	0.137456	-0.996158	-2.099745
H	1.090836	0.0	0.0
C	-1.998528	-0.19004	-1.612595
H	-2.556259	0.580491	-1.085326
H	-2.252943	-0.157093	-2.673643
H	-2.245139	-1.174119	-1.215307
N	-0.106267	1.298901	-2.152772
O	0.944167	1.304929	-2.773819
O	-0.892325	2.238171	-2.038261
N	-0.488537	-1.156819	0.672114
H	0.207071	-1.465004	1.338964
H	-1.358562	-0.950005	1.149005
N	-0.449381	1.289795	0.669114
O	0.238318	2.288802	0.494476
O	-1.492319	1.249615	1.333335
Cl	3.307482	0.0	0.0
