18

C	-0.619604	-0.02836	-1.403207
C	0.0	0.0	0.0
F	-0.333031	-1.280689	-1.906207
H	1.097109	0.0	0.0
C	-2.105882	0.178854	-1.442924
H	-2.552095	-0.515585	-0.733439
H	-2.467477	-0.027942	-2.450167
H	-2.360871	1.204909	-1.18883
N	0.084776	0.921026	-2.366251
O	-0.587555	1.796934	-2.904153
O	1.266548	0.686977	-2.568033
N	-0.536449	-1.135885	0.733706
H	-0.354922	-0.958183	1.715178
H	0.036985	-1.927578	0.467532
N	-0.395547	1.262067	0.689414
O	-0.350796	2.289408	0.014325
O	-0.682788	1.213483	1.883873
Cl	3.296815	0.0	0.0
