18

C	-0.54559	0.158312	-1.421714
C	0.0	0.0	0.0
F	-1.859025	0.566346	-1.358871
H	1.08884	0.0	0.0
C	0.243727	1.044021	-2.347081
H	-0.12966	0.928408	-3.367522
H	0.127661	2.076968	-2.027051
H	1.298185	0.771832	-2.289774
N	-0.571121	-1.246816	-2.013012
O	-1.661098	-1.78128	-2.17248
O	0.522218	-1.719603	-2.289595
N	-0.487156	-1.173723	0.627174
H	0.134639	-1.435051	1.379574
H	-1.421109	-1.041708	0.989979
N	-0.397706	1.277312	0.752412
O	-1.096682	1.153946	1.756346
O	0.013669	2.345594	0.311726
Cl	3.266153	0.0	0.0
