15

C	-0.476449	0.053477	-1.459314
C	-0.001182	-0.001245	0.001005
Br	-0.026299	-1.622047	-2.376225
H	1.09542	0.003073	-0.000384
H	0.119422	0.810187	-1.974672
N	-1.881411	0.318234	-1.711904
H	-2.442361	-0.357032	-1.204035
H	-2.092793	1.237732	-1.335307
C	-0.475902	-1.195151	0.823274
H	-1.564568	-1.319961	0.817422
H	-0.150057	-1.064734	1.857605
H	-0.007602	-2.102039	0.440337
C	-0.450618	1.245642	0.607048
N	-0.845238	2.2564	1.063608
H	2.754201	0.004208	-0.00147
