15

C	-0.089861	-0.007158	-1.449292
C	-0.020157	0.023713	0.079601
Br	-1.993578	-0.166081	-2.057713
H	1.074745	0.052746	0.196807
H	0.376122	-0.943283	-1.76319
N	0.577501	1.056725	-2.106765
H	1.57781	0.856386	-1.861172
H	0.31703	1.939339	-1.675555
C	-0.580627	-1.211514	0.777384
H	-1.661097	-1.291075	0.646223
H	-0.10603	-2.100551	0.35382
H	-0.353476	-1.181607	1.846076
C	-0.587256	1.253746	0.618163
N	-1.03419	2.244214	1.067304
H	2.758903	-0.020172	-0.884935
