11
Coordinates from ORCA-job run
  C   0.39645803678554      0.29990455402508     -0.17141116116265
  C   -0.28208198664196     -0.68686718729895      0.47605966037350
  H   0.29500209105315     -1.42405723601558      1.02432549154898
  N   1.84793293158045      0.33521067989850     -0.11446888801202
  O   2.42053836082048     -0.53431460368737      0.53794144257775
  O   2.39645648666719      1.24469422454996     -0.73234308549243
  C   -0.26692631175837      1.30294569528379     -0.92213648600215
  N   -0.94047833085190      2.06910458530956     -1.50958764522678
  N   -1.61803977107782     -0.80455686963190      0.51152416220029
  H   -2.20618379211952     -0.18979686466722     -0.02936242692710
  H   -2.04367771445726     -1.61126697776588      0.92945893612260
