11
Coordinates from ORCA-job run
  C   0.37813706466719      0.33945170863876     -0.13920573087640
  C   -0.24470294185970     -0.82258676498131      0.20155868866079
  H   0.35678211660879     -1.72408475620138      0.25517875088927
  N   1.80450683502634      0.34063652196157     -0.41371688618436
  O   2.40890370820787     -0.72584606866907     -0.32906430021468
  O   2.30181138326759      1.42348751625297     -0.71371149516590
  C   -0.32193141519657      1.56834252885897     -0.23431713242252
  N   -1.02277404404535      2.51326464394611     -0.27650868031445
  N   -1.55195851735117     -0.94088780818200      0.47325159481534
  H   -1.94278869532722     -1.82875902180858      0.72788908930124
  H   -2.16598549399776     -0.14201849981604      0.44664610151167
