11
Coordinates from ORCA-job run
  C   0.41160173905971      0.32174945279941     -0.05618429057428
  C   -0.34899136511362     -0.80704679164940     -0.07181478306576
  H   0.09045639783220     -1.70881730902929     -0.48525268355058
  N   1.76316619727750      0.28892853046427     -0.58896207785618
  O   2.38502586804964      1.34832753806296     -0.56543514566409
  O   2.18618988827809     -0.78023788013180     -1.02209794396678
  C   -0.07441524019521      1.55152296962710      0.45484439445996
  N   -0.60154090931383      2.50360582803777      0.90375864831489
  N   -1.59507113456994     -0.90125785083325      0.41768436287258
  H   -2.13256070137712     -1.73503070561128      0.26682422634237
  H   -2.08286073992743     -0.08174378173651      0.74463529268787
