11
Coordinates from ORCA-job run
  C   0.20564929510036      0.58422761169564     -0.04122830401239
  C   -0.92502442943326     -0.17684876910181      0.10503294450227
  H   -1.86037040289916      0.37231224922424      0.17055332168071
  N   1.52541489289775      0.01070921460964     -0.14828326779264
  O   2.47538253499462      0.77600542725104     -0.27742425138512
  O   1.61433897574667     -1.22422783477962     -0.10108538131403
  C   0.12229878866877      2.00239860007926     -0.09438310846082
  N   -0.00724523813909      3.17060519584505     -0.13036048196345
  N   -1.02429266525100     -1.50512423013020      0.19781815869694
  H   -1.92952892363521     -1.93873856566418      0.22613691209109
  H   -0.19562282805046     -2.06931889902906      0.09222345795744
