11
Coordinates from ORCA-job run
  C   0.39698278033461      0.30615323153156     -0.15904671732550
  C   -0.30321803019754     -0.79981457748693      0.21549064741158
  H   0.23149425772017     -1.74186857581437      0.27631462532798
  N   1.81442474765165      0.19606018489311     -0.45813525636820
  O   2.38615849231305      1.23438657782073     -0.78200342154773
  O   2.33842728830614     -0.91158672472582     -0.36766598527827
  C   -0.21056199458242      1.58275290236019     -0.26287577607472
  N   -0.83774392066338      2.57800851818738     -0.30710742236084
  N   -1.61541395912013     -0.82053027326677      0.49265525749531
  H   -2.04621089874001     -1.65620418950837      0.84277090260260
  H   -2.15533876302213      0.03064292600929      0.50960314611779
