11
Coordinates from ORCA-job run
  C   0.42770985518098      0.30233207777597     -0.05575982105842
  C   -0.47606871730715     -0.69658582960724     -0.25541733437424
  H   -0.29136051011641     -1.39290398080019     -1.06651087331226
  N   1.58791558954960      0.40977490133937     -0.92343299102519
  O   2.34597695190491      1.35220004314264     -0.70747297608020
  O   1.73144010802321     -0.43724699657727     -1.80194359637757
  C   0.27236544238339      1.26329958598536      0.97481700655449
  N   0.02185248479999      1.99053233079616      1.86602450929954
  N   -1.57408546501331     -0.89833640220522      0.48674469791363
  H   -1.82175062582079     -0.26885385818987      1.23421434446430
  H   -2.22299511358443     -1.62521187165972      0.24873703399591
