11
Coordinates from ORCA-job run
  C   0.18069990352034      0.59390972492210     -0.01933395156986
  C   -0.92314941840460     -0.21895854990841     -0.01168907637462
  H   -1.88487396934838      0.28480183857814     -0.05563727249242
  N   1.52830476587521      0.08009404409026      0.03335088281450
  O   1.66671616748251     -1.15023946896529      0.08784867987791
  O   2.45187199817719      0.88752955897122      0.02144865050557
  C   0.04228656608145      2.00724481343626     -0.08176262023597
  N   -0.12702754918090      3.16967480874295     -0.13238031922621
  N   -0.96992874508244     -1.55177455672894      0.04170784901366
  H   -0.11029569176268     -2.07672908318649      0.08118495893890
  H   -1.85460402735769     -2.02555312995180      0.03426221874855
