11
Coordinates from ORCA-job run
  C   0.38124231484043      0.32761280024218     -0.15603890574358
  C   -0.24079643077543     -0.76244470667466      0.37224950452767
  H   0.38003731046355     -1.56959911691603      0.74628615284317
  N   1.83219806712130      0.37801557568038     -0.20398278708418
  O   2.32736444735369      1.38749568602010     -0.69960425248990
  O   2.45768077620254     -0.57826081106669      0.24773599672245
  C   -0.34333303885064      1.43044721046166     -0.67411521443152
  N   -1.06486732667826      2.27333583187673     -1.06762983932300
  N   -1.56893023374053     -0.91049818493023      0.48015572092931
  H   -2.20231147014983     -0.21345225945251      0.12093599318198
  H   -1.95928441578681     -1.76365202524095      0.83500763086760
