11
Coordinates from ORCA-job run
  C   0.38102545784463      0.32660876467188     -0.15853077904596
  C   -0.24077735274229     -0.76770179501174      0.36075651894572
  H   0.37915135793230     -1.59570386576559      0.68839698175824
  N   1.82979998316375      0.35267393682439     -0.26118479649388
  O   2.45408740822111     -0.62562521693701      0.14247637877162
  O   2.32422685493865      1.36534282504311     -0.75096111846413
  C   -0.34199159845943      1.45537244850079     -0.61960813867884
  N   -1.06226490176123      2.32035720953900     -0.96436961884156
  N   -1.56646212711989     -0.89511848557300      0.51696913935799
  H   -2.19994003540242     -0.17999965916677      0.19521623992077
  H   -1.95885504661516     -1.75620616212506      0.84983919277003
