11
Coordinates from ORCA-job run
  C   0.15492714592853      0.59790350396350     -0.06482589248407
  C   -0.74975634539088     -0.24485966283637      0.52758140333203
  H   -1.51740129670660      0.23086809561920      1.13203720859043
  N   1.23580842653607      0.12342214463001     -0.89528792560874
  O   1.99974441325812      0.95528045954102     -1.37411345736420
  O   1.32287167229818     -1.09992849775789     -1.07214494196308
  C   0.06581002169296      2.00477070793880      0.11774010334745
  N   -0.05207498950117      3.16027589958374      0.30116043974168
  N   -0.81024302455225     -1.57644230566510      0.45776607090146
  H   -1.52551272533014     -2.07521196948152      0.95493651310374
  H   -0.12317329823281     -2.07607837553539     -0.08484952159668
