11
Coordinates from ORCA-job run
  C   0.37577689627590      0.33867285610476     -0.14222133446430
  C   -0.23029897908259     -0.77271696903717      0.35840121636206
  H   0.40265273477345     -1.57832703384252      0.71560873189242
  N   1.82634012521680      0.41187200609710     -0.18611843678148
  O   2.46505745661782     -0.54000851396995      0.25604885278443
  O   2.30677814647579      1.43387132017126     -0.67020251788028
  C   -0.36371816537803      1.44231452518366     -0.63699258156288
  N   -1.09577440069731      2.28357876408502     -1.01421698441658
  N   -1.55689650014188     -0.93790321100039      0.47444500887005
  H   -2.19621291718298     -0.25754060098360      0.09365008058602
  H   -1.93170439687696     -1.82581314280816      0.75359796461054
