11
Coordinates from ORCA-job run
  C   0.39432599025738      0.31720320318469     -0.14512539733124
  C   -0.31978151366897     -0.81502355533208      0.10447226247066
  H   0.16548896633639     -1.76961504336187     -0.07000806034146
  N   1.76229945493865      0.21669722306460     -0.62382993635234
  O   2.35047113985815      1.27707636421260     -0.82262995558639
  O   2.23187645582913     -0.90566093876455     -0.79607430833286
  C   -0.14958416690630      1.61047122123350      0.05707641512972
  N   -0.72288079844874      2.61658923897795      0.26901422597007
  N   -1.58832937814871     -0.84228705175068      0.53743497487545
  H   -2.08662009838180      0.00847754426772      0.74683932411299
  H   -2.03826605166518     -1.71492820573188      0.74283045538542
