11
Coordinates from ORCA-job run
  C   0.41446350127691      0.32017848824670     -0.04840358440635
  C   -0.37288432789161     -0.78635429233468     -0.14329282109598
  H   0.05759815053694     -1.67968053891171     -0.58363527283859
  N   1.78571006889359      0.27414842165657     -0.52645572716486
  O   2.44237825545229      1.30506749153672     -0.40077898065431
  O   2.19044692809166     -0.77745699263431     -1.01619912343948
  C   -0.05510643106554      1.53197220781259      0.51793938121572
  N   -0.57035958857471      2.46911870526236      1.00995782510815
  N   -1.65715939798274     -0.85031198032216      0.23982108596980
  H   -2.14247248637158     -1.72840609823119      0.23238903995560
  H   -2.09261467236520     -0.07727541208089      0.71865817735030
