11
Coordinates from ORCA-job run
  C   0.22224177863459      0.57970180147332      0.01874400000776
  C   -0.88162649162040     -0.18454788122132      0.29636703650760
  H   -1.73541963889622      0.34628422781585      0.70856662540009
  N   1.43650094867712      0.02655037464587     -0.53078262648208
  O   2.37152117141981      0.79169900391282     -0.74334943076872
  O   1.45675681868837     -1.19228438602233     -0.75317534584094
  C   0.21654790480577      1.97947118692789      0.26636289997266
  N   0.15817724697337      3.13233166849323      0.49024829579533
  N   -1.04387850961342     -1.49846963075945      0.12616130535933
  H   -0.28730682254252     -2.04627132004765     -0.25286412661884
  H   -1.91251440652647     -1.93546504521825      0.37472136666780
