11
Coordinates from ORCA-job run
  C   0.13073941828753      0.59406946705443     -0.12469845343238
  C   -0.85330999046000     -0.24087410597126      0.33819865310960
  H   -1.79066476532890      0.23564737298142      0.61200631177244
  N   1.43137548109424      0.11809432839438     -0.53000628465059
  O   1.64323023196875     -1.10000900256792     -0.44644538107152
  O   2.24577821100352      0.94330908749378     -0.93092081309148
  C   -0.09358993889839      1.99389803029919     -0.22849102877941
  N   -0.33135598151215      3.14362767684132     -0.29412584734789
  N   -0.80935388041005     -1.56555363684228      0.49460720959953
  H   0.03462776933178     -2.06424450591771      0.25970152215062
  H   -1.60847655507631     -2.05796471176535      0.85017411174110
