11
Coordinates from ORCA-job run
  C   0.45099213656377      0.27086772094901     -0.01439693421174
  C   -0.49130164297755     -0.67214470943877     -0.29052347797596
  H   -0.27797423611774     -1.38821134912294     -1.07726951001978
  N   1.68998937370707      0.29810327689099     -0.77270019120303
  O   1.85349873679052     -0.55589274961321     -1.64076152367956
  O   2.48845104883972      1.18564297399335     -0.48183692953471
  C   0.26002780556693      1.25378557194781      0.98933296127403
  N   -0.02829777526747      2.00662992181826      1.84719343414534
  N   -1.65950344492023     -0.80316239335771      0.35573090535259
  H   -2.34321845154222     -1.46311272783309      0.03444380573990
  H   -1.94366355064279     -0.13150553623370      1.05178746011291
