11
Coordinates from ORCA-job run
  C   0.13454696749322      0.56052305151051     -0.23098538912345
  C   -0.89240736852021     -0.32185472379302     -0.01559252253477
  H   -1.87644825575266      0.00581221561891     -0.33949464078900
  N   1.49887125402976      0.27679479058868      0.14371594727327
  O   1.72621894491648     -0.81758858344641      0.67870187969137
  O   2.34806301776041      1.13107243652345     -0.08861439909981
  C   -0.10677069371819      1.82072743656786     -0.84272719851441
  N   -0.35989760133040      2.85070027805725     -1.35050109625463
  N   -0.83992196037734     -1.53357606098550      0.54157125406300
  H   -1.67639009479370     -2.07938303637972      0.64056764647814
  H   0.04513579029263     -1.89322780426201      0.86335851881032
