11
Coordinates from ORCA-job run
  C   0.40319733562929      0.31810403124142     -0.11560270274253
  C   -0.31459140214253     -0.81523818860684      0.11765543269038
  H   0.19184886639252     -1.76826102209414      0.00569109413996
  N   1.80049308468149      0.22084837146204     -0.50043383882364
  O   2.29524068523540     -0.89965050518018     -0.59786525848505
  O   2.38642179672831      1.28208735231633     -0.70158413768881
  C   -0.16977819269468      1.60944716003520      0.00121555680217
  N   -0.76951278131176      2.61373837844296      0.13377094930210
  N   -1.60174424935543     -0.84463702627096      0.49179853513463
  H   -2.13889543279989      0.00433929706451      0.57461061846039
  H   -2.08367971036271     -1.71877784841032      0.59074375121040
