11
Coordinates from ORCA-job run
  C   0.39981935831221      0.31914223963082     -0.11620431177801
  C   -0.29662173885915     -0.81108606629656      0.18345688750250
  H   0.26189501834511     -1.73168461111793      0.31564952113444
  N   1.84613985626213      0.26419859993402     -0.24365201366705
  O   2.41144806275592      1.32241713572106     -0.50859247831254
  O   2.39838211490604     -0.82076193495717     -0.07882381889020
  C   -0.23865887722576      1.57110114230195     -0.30302459388979
  N   -0.89110501074932      2.54233369038418     -0.43219206945536
  N   -1.63281693284763     -0.88456176092569      0.28974720073947
  H   -2.19706375515212     -0.04951352408755      0.25598788493150
  H   -2.06241809574743     -1.72258491058712      0.63664779168504
