11
Coordinates from ORCA-job run
  C   0.38099560226860      0.31539521575833     -0.18036792438810
  C   -0.25136144453854     -0.78516563381712      0.31229348146752
  H   0.33653832848086     -1.68542617585171      0.45764455409913
  N   1.79822558648637      0.25396392228484     -0.49354388185852
  O   2.30322209594811      1.28070883488465     -0.94158349178711
  O   2.38791954691898     -0.80500051616885     -0.29236252796601
  C   -0.30166884875216      1.53651860033559     -0.40910914138984
  N   -0.98809264541259      2.48234682462467     -0.55082710907747
  N   -1.54753616019274     -0.83817691580039      0.65186104412067
  H   -2.15766170994612     -0.05057657062288      0.49861198537720
  H   -1.96058035126078     -1.70358758562713      0.94638301140252
