11
Coordinates from ORCA-job run
  C   0.40369202658921      0.32080031795777     -0.10657161198916
  C   -0.30022360354161     -0.81029352502263      0.17524190162062
  H   0.24751563834211     -1.74394476924202      0.24994952927875
  N   1.84203463423015      0.24759157891036     -0.29566346043131
  O   2.38197758253798     -0.85140761536366     -0.19287005847129
  O   2.41401866245156      1.30546011829867     -0.54809862985365
  C   -0.22215557362191      1.58719932688264     -0.22508394842341
  N   -0.86621892260019      2.57015265130126     -0.29428668310349
  N   -1.62448471133668     -0.85909384046378      0.37806789269278
  H   -2.19496026199013     -0.03138862812304      0.30556035004695
  H   -2.08219547106049     -1.73407561513556      0.55375471863322
