11
Coordinates from ORCA-job run
  C   0.19737596111547      0.58814127621707     -0.03104515046709
  C   -0.86606629970058     -0.19722013718298      0.33204563862504
  H   -1.73270087808481      0.32814186244301      0.72394043699327
  N   1.42150233356591      0.04436678109281     -0.56803125226067
  O   2.31725911935086      0.82866196282362     -0.86376491154551
  O   1.48944475490827     -1.18622041776031     -0.69630832212428
  C   0.13768310747467      2.00141263798282      0.10928938436475
  N   0.03509192214763      3.16473148328412      0.24652280062000
  N   -0.97534703416438     -1.52582742230753      0.26666271216338
  H   -1.81949758270780     -1.97693266272417      0.56890174457882
  H   -0.20474540390523     -2.07025536386845     -0.08821308094773
