11
Coordinates from ORCA-job run
  C   0.38915123860945      0.30617822240397     -0.18012395219420
  C   -0.25667888191862     -0.73203631766499      0.41880621334371
  H   0.34265170832916     -1.55770123530644      0.78776322535344
  N   1.83540620094937      0.27632386557699     -0.31397104220682
  O   2.43695253230615     -0.69245671827090      0.14333998967222
  O   2.35078986748701      1.23572280008976     -0.88310122240331
  C   -0.30863907277291      1.42269675033989     -0.70597061832907
  N   -1.01170162522113      2.28086763984956     -1.09956746700925
  N   -1.58193091994911     -0.80152367648968      0.61468505460699
  H   -2.19848447656648     -0.09715011996390      0.24029781428513
  H   -1.99551657125289     -1.63992121056427      0.97884200488116
