11
Coordinates from ORCA-job run
  C   0.16480659879270      0.58578271165760     -0.12403197150702
  C   -0.84563727333051     -0.18681701469804      0.38753953115338
  H   -1.72869929851783      0.34848009021836      0.72553731055745
  N   1.40122144026186      0.02762096825353     -0.61639127223825
  O   1.52972384560030     -1.20375867512721     -0.56631481182387
  O   2.24691397358231      0.80151675953639     -1.05328484331739
  C   0.03425873787965      1.99952404950427     -0.19376737146111
  N   -0.12588313595866      3.16394051563706     -0.22770459862452
  N   -0.88405712270191     -1.51378197542532      0.52668528530575
  H   -1.69675407842302     -1.95618882775038      0.91525739142575
  H   -0.09589368718490     -2.06631860180626      0.22747535052982
