11
Coordinates from ORCA-job run
  C   0.18157393430430      0.58783119635341     -0.08407137984045
  C   -0.72076873843579     -0.20004891305641      0.58176192511919
  H   -1.43770615004079      0.32407547276739      1.20797393536243
  N   1.19002467872691      0.04693593991382     -0.96392569897127
  O   1.22107640914761     -1.18343588436579     -1.10473387550178
  O   1.95059968400695      0.83403644251915     -1.51787993055645
  C   0.15358810206553      2.00207000693131      0.05591532009745
  N   0.08100308371166      3.16618182091897      0.20532115443057
  N   -0.81990058541341     -1.53189093987100      0.58028992832407
  H   -1.58159027084216     -1.97492157762389      1.06098254793477
  H   -0.21590014723081     -2.07083356448695     -0.02063392639852
