11
Coordinates from ORCA-job run
  C   0.24295722221409      0.57055355666963      0.03100541050011
  C   -0.85685711508645     -0.17550345005898      0.36752964158594
  H   -1.64743237772193      0.35364655459205      0.89254008327021
  N   1.37822260496129      0.01631109340049     -0.66660113518406
  O   2.31514968358837      0.76491602520775     -0.92482868096161
  O   1.33354839594670     -1.18651161837229     -0.96091947593628
  C   0.31346513528799      1.95102083587776      0.36255033677818
  N   0.32111724900859      3.08845927251325      0.66052920752398
  N   -1.08621089785864     -1.46822878075947      0.12687601904825
  H   -1.93220438777817     -1.89843465436536      0.45333637258894
  H   -0.38275551256182     -2.01722883470484     -0.34201777921366
