11
Coordinates from ORCA-job run
  C   0.37947679603409      0.33760619090451     -0.13488278139738
  C   -0.30956700075263     -0.82542946856506      0.02485325557514
  H   0.17731138278555     -1.74797319415108     -0.27350952112149
  N   1.72305737395909      0.30996208073835     -0.68766956946830
  O   2.29350872684260      1.39348094155864     -0.78958335874806
  O   2.19168990624228     -0.77912524778222     -1.00977178703622
  C   -0.16594022258189      1.59353022502491      0.23255354460497
  N   -0.73519803943358      2.56362958374319      0.57999057389451
  N   -1.56415352616538     -0.91847301574932      0.49300089073379
  H   -1.95657554863100     -1.81882291372205      0.69887690425186
  H   -2.03460984829915     -0.10838518199988      0.86614184871118
