11
Coordinates from ORCA-job run
  C   0.18833790425844      0.59096804717891     -0.03390444310095
  C   -0.85690868924683     -0.20957428411520      0.34874286851859
  H   -1.73323002356647      0.30494675126404      0.73340879809035
  N   1.41842864740916      0.06353727180581     -0.57391735989524
  O   2.29487765333694      0.86082129744573     -0.89129111651535
  O   1.51095773288403     -1.16741846577721     -0.68141403828722
  C   0.09385241890597      2.00581526123475      0.06829187100498
  N   -0.03726115609414      3.16971303161570      0.17199735409994
  N   -0.93193469412213     -1.54217819744617      0.32477848754339
  H   -0.16440870404056     -2.07306830467273     -0.05617280554924
  H   -1.78271108972443     -2.00356240853363      0.59048038409075
