11
Coordinates from ORCA-job run
  C   0.38939633293195      0.27107022600655     -0.22903770261201
  C   -0.27079435755974     -0.71547535032868      0.43797660892990
  H   0.30943398158017     -1.55407740489865      0.80834230165297
  N   1.82665403821459      0.17841968667355     -0.41716332081831
  O   2.35858466695979      1.10411562383703     -1.02540077412680
  O   2.40545496731504     -0.80526871184866      0.03805400001408
  C   -0.28037980237951      1.40956604914231     -0.74336879427139
  N   -0.95912383086927      2.29691376337692     -1.11476077129753
  N   -1.59331922174882     -0.74069390419964      0.65807939862955
  H   -2.18312635632071      0.02649489246720      0.37573385819123
  H   -2.00278041812350     -1.47106487022792      1.21054519570829
