11
Coordinates from ORCA-job run
  C   0.22209293322622      0.57766080124506      0.05246443294776
  C   -0.78326752120645     -0.25588284190055      0.46964024528341
  H   -1.50992226944286      0.17962044245236      1.15010866932942
  N   1.26578281038927      0.15153879604291     -0.84841107683208
  O   2.12670061468103      0.96894873842566     -1.15762831435429
  O   1.22461394108861     -1.01857935900428     -1.25406833365397
  C   0.28117023356741      1.92529149608294      0.50066091787213
  N   0.28182876386032      3.03089555072089      0.90109294629585
  N   -0.98353745708201     -1.53646112137709      0.15096753309085
  H   -1.77511030760116     -2.02959959934535      0.52184781686601
  H   -0.35035174148038     -1.99343290334256     -0.48667483684510
