11
Coordinates from ORCA-job run
  C   0.42739623288907      0.30395588854085     -0.03463759924305
  C   -0.37702648654301     -0.79286854622579     -0.08704367586679
  H   0.04247418652475     -1.71096091533030     -0.48511441210702
  N   1.79725940808463      0.21897366514720     -0.51150991952685
  O   2.46076244425497      1.25151033416880     -0.45246652599950
  O   2.19423370567307     -0.86388430175551     -0.93497272837861
  C   -0.03256572171945      1.55165890161080      0.45701091993125
  N   -0.54220500822913      2.52226133137548      0.88604083676741
  N   -1.64401956771431     -0.83914031357529      0.35470218390558
  H   -2.21167148230739     -1.64352606123034      0.15955312357535
  H   -2.11463771091322      0.00302001727410      0.64843779694223
