11
Coordinates from ORCA-job run
  C   0.41530393593099      0.31598746635346     -0.06986717153172
  C   -0.35481800930878     -0.80643976689843     -0.03447643553524
  H   0.09677376720511     -1.74124828861941     -0.34978990456617
  N   1.79344632322365      0.23186856994091     -0.52066457097709
  O   2.42927519648029      1.28343178916135     -0.53224322419684
  O   2.22439492406815     -0.86880226604107     -0.85630090215079
  C   -0.08308043594396      1.58410355852626      0.32136410467060
  N   -0.62315019125824      2.56950204536026      0.67240125238075
  N   -1.63270045213302     -0.84814949470113      0.36798348281913
  H   -2.11722497282849     -0.01306419451370      0.65762421023495
  H   -2.14822008543570     -1.70818941856851      0.34296915885242
