11
Coordinates from ORCA-job run
  C   0.22200059731415      0.58029281413779     -0.01745038401000
  C   -0.91131100237365     -0.15610366040186      0.20964543520883
  H   -1.81074578530352      0.41106347235792      0.43468033818124
  N   1.49277752013355     -0.02472121339459     -0.33885178667148
  O   2.44882115973051      0.71823176393613     -0.53498498939511
  O   1.53706215357973     -1.26161304807516     -0.39239070692246
  C   0.19131446442604      2.00000405942856      0.04395040628803
  N   0.10975263234007      3.17152237764903      0.10474123969935
  N   -1.05326211068137     -1.48349002085381      0.20223297286942
  H   -1.96216490184439     -1.89091139738602      0.32741411873729
  H   -0.26524472732112     -2.06427514739799     -0.03898664398512
