11
Coordinates from ORCA-job run
  C   0.41211089871169      0.29684622979400     -0.13750003700442
  C   -0.32420838375802     -0.78420972170148      0.24026436560015
  H   0.18485118645038     -1.73794903469640      0.33173561380026
  N   1.83200906996207      0.14543906216732     -0.40528431875873
  O   2.32817419269372     -0.97058045718611     -0.27130332698468
  O   2.43358784517749      1.15982254673114     -0.75020089736814
  C   -0.16329591026614      1.58333625356692     -0.29094910797460
  N   -0.76703157489985      2.58994245570624     -0.38076384167132
  N   -1.63245492099720     -0.75707273559858      0.53552190356268
  H   -2.12730885750815     -1.61031920904591      0.71895122271294
  H   -2.17443354556601      0.08374461026288      0.41052842408587
