15
Coordinates from ORCA-job run
  C   -0.72879785934562     -0.15023670322370     -0.37883447762007
  C   0.67562705861595      0.48427927707158     -0.50372935358927
  F   -1.08049371987145     -0.59867680136700     -1.64413670652322
  H   0.62405082761409      1.18270641426214     -1.35221219660971
  C   -0.79497135138315     -1.29983460736816      0.60053734282973
  H   -1.81895248007072     -1.67038936597366      0.66073795400219
  H   -0.14703731358837     -2.10474261931595      0.24972133559719
  H   -0.46405605750781     -0.96683643871067      1.58355958829513
  C   -1.66054284011958      0.92845724042216     -0.00235267335137
  N   -2.36730189554772      1.81249528365001      0.31094324730754
  C   1.64379492297623     -0.55901620918245     -0.85269520747857
  N   2.43211945590908     -1.38726741435215     -1.11704334618749
  N   1.03679889515577      1.09985219072950      0.76807033481918
  H   2.03997840113501      1.21287086051954      0.83903926784077
  H   0.60978395602829      2.01633889283882      0.83739489066797
