15
Coordinates from ORCA-job run
  C   -0.62066356449669     -0.21742653380094     -0.24910707326856
  C   0.70406059816640      0.51907852666379      0.03008005748217
  F   -0.34577862853576     -1.17240053658842     -1.22464532251528
  H   0.50881465260970      1.26296095626032      0.80987880050342
  C   -1.16906764903035     -0.91894512006732      0.97570347472346
  H   -1.43881230122901     -0.19055986449997      1.74298097518694
  H   -0.40842606573747     -1.59140108830177      1.36774001599171
  H   -2.05966868784039     -1.48280668157083      0.69523222506302
  C   -1.60605556638584      0.72839936015962     -0.79936834060791
  N   -2.40317131135062      1.49547604408971     -1.19332262820732
  C   1.14386761193645      1.23536231157003     -1.18490195815694
  N   1.56098475203420      1.77724619543317     -2.14014883935882
  N   1.67663141630060     -0.43644316434769      0.53150966737531
  H   2.50369777195364      0.04843223104514      0.85708479978757
  H   1.95358697160515     -1.05897263604484     -0.21871585399876
