15
Coordinates from ORCA-job run
  C   -0.73368834350926     -0.10785183681476     -0.40839654414146
  C   0.65708914019276      0.55535969486461     -0.48089466023985
  F   -1.00450637670221     -0.61684782432546     -1.67192714331187
  H   0.58626810522476      1.34696179662591     -1.23328846967095
  C   -0.81356867080905     -1.23482629771129      0.59903346393778
  H   -0.06424164528468     -1.99227957816821      0.36012495128394
  H   -1.80263647428250     -1.69142305766732      0.54656825917095
  H   -0.65740489083254     -0.85677157130701      1.60995824153207
  C   -1.72768450880534      0.93849617545827     -0.11681228668136
  N   -2.53735533532105      1.76056008614662      0.09904707306848
  C   1.64241513385600     -0.43366770963472     -0.95583231278264
  N   2.45607632174513     -1.22358380553989     -1.26213976683536
  N   0.97529018431419      1.15068631423994      0.80426052626907
  H   1.60946315239197      1.93032588831580      0.69185516974306
  H   1.41348420782181      0.47586172551750      1.41844349865815
