15
Coordinates from ORCA-job run
  C   -0.74580091992756     -0.13891858169438     -0.37538714866717
  C   0.62300323992774      0.55666312679948     -0.52400567341106
  F   -1.05146204531791     -0.69551411250926     -1.61049643281708
  H   0.50148614000432      1.32127409253930     -1.29744124296035
  C   -0.75678224483986     -1.23430651174557      0.66920353392272
  H   -1.73469130592747     -1.71729098806386      0.67029935379344
  H   -0.57171340782805     -0.82048621467705      1.66115811540312
  H   0.00258692267510     -1.97985511623681      0.42435609232595
  C   -1.75515799656672      0.89105232857604     -0.07819329298437
  N   -2.57847220045503      1.69811357168798      0.14308205896564
  C   1.61493038009598     -0.42286304085415     -1.00612014227713
  N   2.43712008461118     -1.20131397383744     -1.31912754337409
  N   0.97506544207125      1.20216744245846      0.72758202607394
  H   1.59383381513186      1.98573389231925      0.56524515476660
  H   1.44505409634517      0.55554408523799      1.34884514123984
