15
Coordinates from ORCA-job run
  C   -0.72845484503151     -0.12971886575905     -0.38747774061622
  C   0.69363132502066      0.46792047019877     -0.49328066063733
  F   -1.07803458206642     -0.56249076974177     -1.65887133422401
  H   0.66997407796223      1.17098311323027     -1.33922156011141
  C   -0.83593606054020     -1.28176587819869      0.58524474555465
  H   -1.87049522695390     -1.62328842123398      0.63581898374730
  H   -0.50332358600794     -0.96303122981843      1.57239542130038
  H   -0.20844397341087     -2.10304345834285      0.23514286051851
  C   -1.63466400765680      0.97228495489371     -0.01554241963265
  N   -2.31863220297416      1.87381472028736      0.29808947453790
  C   1.63834863939332     -0.59811737170091     -0.83763681720431
  N   2.40844139726890     -1.44307455131383     -1.10324779792757
  N   1.05583163634643      1.06833950689174      0.78517878499154
  H   2.06050184947198      1.15678158697963      0.86764826969198
  H   0.65025555917826      1.99440619362802      0.85475979001124
