15
Coordinates from ORCA-job run
  C   -0.66921151270527     -0.01222456336958     -0.10059164801236
  C   0.80006761579478      0.26591120866391     -0.50607607809209
  F   -1.44127619496084      0.62210031644250     -1.07368399345538
  H   0.91743501621283     -0.18520291329642     -1.49915690970978
  C   -1.03199937227781     -1.48081090251938     -0.07823716969356
  H   -2.10291775093729     -1.58811607886378      0.09915746566442
  H   -0.48577092267517     -2.00492168868167      0.70698366870161
  H   -0.78912931177266     -1.92476467379592     -1.04622474350448
  C   -0.94789472143610      0.64490725252828      1.18631149520484
  N   -1.13427835907117      1.17440727367091      2.21788417881941
  C   1.69527441216080     -0.43016954513093      0.42373388058921
  N   2.38062962458966     -0.99222424304659      1.19323356062609
  N   1.16230691446245      1.66325857352168     -0.60092050130434
  H   0.52436580352624      2.13652521742115     -1.22860775197924
  H   1.12039875908954      2.11132476645585      0.30719454614567
