15
Coordinates from ORCA-job run
  C   -0.62038452050508     -0.23009920435095     -0.23723690689302
  C   0.69352954026033      0.53393549176987      0.01714710066345
  F   -0.34470508001696     -1.17780367531102     -1.21974989141629
  H   0.49777511058632      1.27235503965097      0.80195096341735
  C   -1.12953225147363     -0.94482256167671      0.99696297818479
  H   -2.01287210020391     -1.52755869751154      0.73283252073747
  H   -0.34690857048257     -1.60117060158740      1.37256653114072
  H   -1.40014386657893     -0.22336701259444      1.77035232931405
  C   -1.63695517676063      0.69455542532218     -0.76650254911198
  N   -2.46088035855453      1.44145104361934     -1.14354771959917
  C   1.09357356878187      1.26197849251535     -1.20477897172884
  N   1.48006834248719      1.81611046514732     -2.16587282546695
  N   1.69604581098271     -0.40142093861821      0.49688654027147
  H   1.97208553378876     -1.01565046455147     -0.26044812338434
  H   2.51830401768907      0.10050719817671      0.80843802387128
