15
Coordinates from ORCA-job run
  C   -0.56690331371187     -0.18799848459775     -0.27069520157499
  C   0.79534095110914      0.53308645253970     -0.08817148031674
  F   -0.33290893237287     -1.28613802865635     -1.09146481856807
  H   0.62059037952472      1.41555926155769      0.53813608827546
  C   -1.14809970387042     -0.68844998171322      1.03615815598985
  H   -0.45926927239952     -1.40008070630122      1.49188021007636
  H   -2.09208887178385     -1.19864622914828      0.84226103078250
  H   -1.33021519310186      0.14062105554708      1.72304011128968
  C   -1.51642517484562      0.70819919116376     -0.94846396486841
  N   -2.28046670716589      1.45137365564627     -1.44179986153557
  C   1.26076210089064      1.00149776677264     -1.40324253028947
  N   1.63113107725207      1.35927661198469     -2.45774120767565
  N   1.83516778840028     -0.26675246587947      0.52225264866161
  H   1.93081829169208     -1.15329495811009      0.04260243723338
  H   1.65256658038295     -0.42725314080546      1.50324838252006
