15
Coordinates from ORCA-job run
  C   -0.55305469373660     -0.39987026490711     -0.17074860804627
  C   0.60262529894438      0.61914454206100     -0.13933691921749
  F   -0.04377082155326     -1.56093132842950     -0.74652175115523
  H   0.22117532551054      1.53461916463182      0.32554570340840
  C   -1.07589949897003     -0.73282322193620      1.21105511827046
  H   -1.51688035381884      0.15209773909168      1.67446581378483
  H   -0.24932645831492     -1.08753744993937      1.82405154726998
  H   -1.84040531152750     -1.50639422627641      1.12750351619487
  C   -1.63328287572654      0.10380560692815     -1.03554127622320
  N   -2.51391488332218      0.52777019536986     -1.68641301453728
  C   1.01722975073811      0.94730902685730     -1.51914347252683
  N   1.41670065322948      1.19999211121305     -2.59458410964981
  N   1.67464817839295      0.08975982801348      0.68546856522910
  H   2.37930140633574      0.80073769743055      0.83774545765075
  H   2.11385428381868     -0.68867942010829      0.20745342954770
