15
Coordinates from ORCA-job run
  C   -0.56979499315356     -0.35915982444884     -0.20127984878634
  C   0.63856744623991      0.59113670339578     -0.09464955828430
  F   -0.11118032014582     -1.51548486829606     -0.82715381042476
  H   0.29877600860138      1.50057036479310      0.41227540468547
  C   -1.14102093282139     -0.73295624411239      1.15041741989935
  H   -0.34776983406485     -1.15560117426640      1.76411328686338
  H   -1.55275794476698      0.14807428633695      1.64665895317938
  H   -1.93783131623906     -1.46468063332681      1.01113748089507
  C   -1.60212911690462      0.24663656935792     -1.05915466026560
  N   -2.44425822655136      0.75105789064448     -1.70357256835264
  C   1.09953135382468      0.96770853763763     -1.44701334721849
  N   1.53444494690327      1.25417199941776     -2.50004403831696
  N   1.66307925212695     -0.04003729765329      0.71916877081764
  H   2.07096008339406     -0.81333842295268      0.20651462868596
  H   2.40038359355739      0.62290211347285      0.92458188662283
