15
Coordinates from ORCA-job run
  C   -0.55552485225278     -0.36505795438046     -0.22890100639890
  C   0.61554016937674      0.62027883522490     -0.04922055005157
  F   -0.05314461725414     -1.45286521089598     -0.93864411789027
  H   0.24205557501518      1.47521611374275      0.52444549492527
  C   -1.11040304418339     -0.86085858919921      1.09008013934587
  H   -1.55485101330741     -0.03586316385153      1.65030101122906
  H   -1.87888678884694     -1.60989386397133      0.89497387021212
  H   -0.30066739167550     -1.29759712511837      1.67149869863982
  C   -1.61154156826173      0.26282054995931     -1.04078040911376
  N   -2.47348222313327      0.78216005718287     -1.64594974179812
  C   1.05946030439059      1.11555784221719     -1.36851760693732
  N   1.48005431502152      1.49961143426435     -2.39592601654054
  N   1.66461803710267     -0.03024945036128      0.71662515408458
  H   2.37595523585726      0.64335815128339      0.97240344339496
  H   2.10181786215120     -0.74661762609662      0.14861163689880
