15
Coordinates from ORCA-job run
  C   -0.70185562577339     -0.00518732528210     -0.09140891701573
  C   0.77887298836427      0.26504928977608     -0.40633275061199
  F   -1.40920552622647      0.56035214977082     -1.15454847766731
  H   0.98194005178509     -0.27129452702023     -1.34772779805104
  C   -1.04329076378186     -1.47855570623920     -0.02149051898903
  H   -2.12189732282166     -1.59054489461866      0.09492964363760
  H   -0.54405831166864     -1.95299976507269      0.82446143753123
  H   -0.73523524962193     -1.96764126030209     -0.94799687529957
  C   -1.09958791105541      0.69599458369773      1.13913889135327
  N   -1.45245150130093      1.19497237790481      2.14130184549698
  C   1.61953694657420     -0.32615710833166      0.63847733829312
  N   2.29981387871573     -0.81443569762066      1.46095020778427
  N   0.99260900287202      1.70046923794489     -0.46973925717958
  H   1.97242216389851      1.90943439891420     -0.61518035752334
  H   0.46238718004046      2.07954424647876     -1.24483441175889
