15
Coordinates from ORCA-job run
  C   -0.68901951229640     -0.10668118560405     -0.38766359363724
  C   0.73165323964893      0.49632447494843     -0.57745567125254
  F   -1.08481950915179     -0.60163976888615     -1.62178563913981
  H   0.65491371784425      1.17676579439133     -1.43305424451782
  C   -0.76394607402632     -1.22487047332662      0.63042739829903
  H   -1.78654865589399     -1.60102248987129      0.67847532107743
  H   -0.47898236549399     -0.87339812076823      1.62331076095813
  H   -0.10214828113708     -2.03662914492235      0.32446009165092
  C   -1.58812899228752      1.00292446342324     -0.02392658669329
  N   -2.26243036266112      1.91062063237883      0.29348778074393
  C   1.64826421892875     -0.58762532468760     -0.95307725743425
  N   2.36356264996768     -1.47895599664253     -1.22006001342952
  N   1.27424262982408      1.23243848339705      0.54238446758293
  H   0.70516631556546      2.03997343420729      0.76146137669547
  H   1.38022098116905      0.65277522196264      1.36401580909662
