15
Coordinates from ORCA-job run
  C   -0.67041892219353     -0.02645700779622     -0.09007633682952
  C   0.78798208688012      0.26517320461925     -0.52412014469214
  F   -1.46639490634846      0.56513773759928     -1.07096973804920
  H   0.89758817671675     -0.20967911726324     -1.50691580411861
  C   -1.00673275837941     -1.49980067060659     -0.01948596275030
  H   -2.07326820318074     -1.62024507607739      0.17487562847082
  H   -0.76826396001796     -1.96814060860449     -0.97699020604790
  H   -0.44150775299504     -1.99072157552336      0.77362145654499
  C   -0.94387697105966      0.66393508304709      1.18048009214595
  N   -1.12453610001885      1.22215478294343      2.19780582188595
  C   1.70913364112261     -0.39120038112826      0.40922429162238
  N   2.41746271741479     -0.92185376280446      1.18029925098240
  N   1.12565776275260      1.66516479524975     -0.66159097877641
  H   0.47526392640835      2.10926888151721     -1.29800974495486
  H   1.08191126289841      2.13826371482799      0.23385237456643
