15
Coordinates from ORCA-job run
  C   -0.69974791776474     -0.01473875466796     -0.10937660384744
  C   0.78247293294768      0.29859005469045     -0.37325425426058
  F   -1.39256478972160      0.58792912577891     -1.16156421946822
  H   1.02145498254606     -0.19178685602421     -1.33113186288340
  C   -1.01268524598712     -1.49611864074913     -0.11909438324575
  H   -2.09062873598030     -1.63504439433798     -0.03011081619401
  H   -0.52022687701904     -2.00260805718645      0.71193041846986
  H   -0.67708146350578     -1.93172150218575     -1.06234759526323
  C   -1.14052224290035      0.61766246818150      1.14379196548830
  N   -1.52504746351619      1.05839415722065      2.16157445872007
  C   1.60888546328826     -0.31959697436675      0.66718291044200
  N   2.27959822656185     -0.82424867909946      1.48771975198792
  N   0.96684721151480      1.73967653409483     -0.36896788240084
  H   1.94629243211532      1.97421035701761     -0.47186342406218
  H   0.45495348742116      2.14040116163376     -1.14548846348250
