15
Coordinates from ORCA-job run
  C   -0.75090126760848     -0.12842489177491     -0.36989536500369
  C   0.63134106444179      0.53713596910487     -0.53214411041501
  F   -1.07499016587869     -0.69114206349650     -1.59765386948634
  H   0.52162975731370      1.29822421709137     -1.31093104514534
  C   -0.77874588642195     -1.21229590220721      0.68640293183453
  H   -0.03601054167353     -1.97586050160013      0.44591980309616
  H   -0.57985628159405     -0.79108054820407      1.67249279316168
  H   -1.76634111044108     -1.67504042056390      0.69725698174257
  C   -1.73663031723376      0.92545997554939     -0.07769470927822
  N   -2.53783962940629      1.75440035473698      0.14343661963356
  C   1.59960685385168     -0.46538462306842     -1.01361123074089
  N   2.40321176304945     -1.26136209667368     -1.33046056506423
  N   1.00426595276553      1.18387184436252      0.71275833967234
  H   1.62368224757977      1.96435901592262      0.54110272369319
  H   1.47757756125592      0.53713967082108      1.33102070229967
