20

C	0.0	0.0	0.0
C	-0.446289	-0.017623	-1.468526
F	1.404254	0.0	0.0
H	-1.538764	0.049916	-1.392125
N	-0.519241	1.201586	0.601179
H	-0.318974	1.155432	1.598344
H	-1.54381	1.028761	0.494584
C	-0.422667	-1.246803	0.763756
H	-0.097824	-1.142498	1.806075
H	-1.515647	-1.25992	0.702963
H	0.029008	-2.15577	0.358245
C	-0.052515	-1.310244	-2.178823
H	1.018557	-1.509622	-2.062295
H	-0.264153	-1.229783	-3.250773
H	-0.610442	-2.168375	-1.798591
C	0.136699	1.184649	-2.208541
H	-0.104395	2.109132	-1.684481
H	-0.262503	1.237098	-3.227892
H	1.227323	1.105198	-2.274046
F	-2.91745	0.0	0.0
