20

C	0.0	0.0	0.0
C	-0.349754	-0.052766	-1.540436
F	1.405795	0.0	0.0
H	0.621875	-0.171131	-2.036337
N	-0.519157	1.115076	0.736365
H	-0.346314	1.965215	0.211468
H	-1.541604	0.927618	0.677333
C	-0.407514	-1.250652	0.760226
H	-0.052084	-1.134473	1.786834
H	-1.497272	-1.302851	0.737799
H	0.050109	-2.140981	0.323613
C	-1.005052	1.235361	-2.038096
H	-1.166098	1.174289	-3.12062
H	-0.397853	2.12769	-1.855138
H	-1.970582	1.319542	-1.534856
C	-1.253869	-1.218982	-1.953155
H	-1.416476	-1.186949	-3.037859
H	-2.202767	-1.09259	-1.422067
H	-0.81236	-2.191571	-1.71879
F	-2.950176	0.0	0.0
