17
Coordinates from ORCA-job run
  C   -0.62922356070274     -0.13113721436116     -0.31651602249272
  C   0.74191855829822     -0.09314710810691      0.38583897152770
  Cl  -0.51936684961861     -0.97016398075747     -1.86129316239567
  H   0.57461360773092      0.43151476696039      1.33283919482033
  C   -1.72313228900909     -0.74763760076951      0.53292680547946
  H   -2.67922522105956     -0.68383630234904      0.01054002395238
  H   -1.79556131445818     -0.21988994974224      1.48444251414842
  H   -1.49384601710357     -1.79842718778299      0.71216699729799
  N   -0.99837169361522      1.34121309852441     -0.55095546835723
  O   -1.07991247899066      1.99754258841821      0.48441450926366
  O   -1.16925956412604      1.75667360947465     -1.68606117980605
  C   1.82469385012022      0.64374060765926     -0.40593782685382
  H   2.75626790758987      0.64065707233390      0.16190135658577
  H   1.53382249572693      1.68261337841077     -0.57230493045654
  H   2.00214080657570      0.16451411012948     -1.36840549847453
  C   1.15360152018677     -1.46044124440980      0.70077841281392
  N   1.49984024245504     -2.55278864363195      0.95762530294695
