17
Coordinates from ORCA-job run
  C   -0.71182958825119     -0.23551135606747     -0.25973546068476
  C   0.82206248691504     -0.28714311532486     -0.36538432702514
  Cl  -1.35575825068090     -1.89333316918616     -0.32416960204672
  H   1.05627791344016     -0.84115621940549     -1.27832610345687
  C   -1.23960383139797      0.48222720919346      0.95599573809459
  H   -0.92775610680110     -0.05090209612654      1.85401412571596
  H   -2.32677162054669      0.51719105855930      0.92917403307087
  H   -0.85821138229224      1.50472178472664      0.98476976232365
  N   -1.21933493829024      0.44896826795867     -1.53991409706348
  O   -0.70127373382045      0.08443608381643     -2.58858015061621
  O   -2.10164372195916      1.29022087897956     -1.41975509194259
  C   1.50081075630104     -0.94825095698937      0.83697531167252
  H   1.36885035757349     -0.35773705831965      1.74404553802409
  H   2.57119519415018     -1.03135071272592      0.64236156465829
  H   1.10193027517478     -1.95002189846727      0.99720382996861
  C   1.31604109409338      1.08202035771341     -0.53553900238399
  N   1.70601509639187      2.18562094166528     -0.63413606830881
