17
Coordinates from ORCA-job run
  C   -0.71822350048024     -0.23740718097283     -0.36598255230363
  C   0.77709730059772     -0.54233079575685     -0.19695791895307
  Cl  -1.38556302578582     -1.33973793803022     -1.59325324720914
  H   0.79751791495534     -1.59927507664772      0.09673960775037
  C   -1.50385478029500     -0.37580796940049      0.92177526948287
  H   -1.30529607013826     -1.35229586322912      1.36700188333934
  H   -1.22210108219030      0.40854454663503      1.62673739660933
  H   -2.56795665633513     -0.28627389699147      0.71334601515810
  N   -0.94864367011088      1.18002209840162     -0.89539406177251
  O   0.03342942576636      1.82783404098058     -1.24376366175463
  O   -2.11185961047912      1.56087370997223     -0.91974962029115
  C   1.47943788703260      0.27263764293081      0.89593389964924
  H   1.45927574420166      1.33712994112827      0.66917164071771
  H   1.01947253591422      0.09502008524313      1.86853165628693
  H   2.52228955988511     -0.04280956257431      0.95781522513502
  C   1.51234849905070     -0.46348008856504     -1.46227871592269
  N   2.16362952841104     -0.44364369312362     -2.43867281592211
