17
Coordinates from ORCA-job run
  C   -0.61143756389580     -0.07816802559744     -0.36425652892708
  C   0.70140882319024     -0.15720579842520      0.43837425981154
  Cl  -0.45309367435666     -0.91052582958299     -1.90850961966557
  H   0.50508604062453      0.36652813690531      1.38043203429959
  C   -1.81240867236968     -0.61090810485071      0.39230507320062
  H   -1.68220697786986     -1.67799688768932      0.57485027278599
  H   -1.91379596958756     -0.08525284582923      1.34234611666877
  H   -2.71798165032507     -0.46660062689156     -0.19959023487135
  N   -0.84386814314023      1.42080197351168     -0.60436941229366
  O   -0.94783269959112      2.07326916398751      0.43159781899382
  O   -0.89920362069342      1.85781596876257     -1.74291470481097
  C   1.89477047437541      0.50103601258625     -0.25777066749968
  H   2.10029470783884      0.02645260302439     -1.21709694180594
  H   2.78037200293774      0.40928174495829      0.37277787862917
  H   1.70221639205311      1.56344971130929     -0.41842418830227
  C   0.97984899900954     -1.55677883654053      0.75901909798466
  N   1.21883153180000     -2.67619835963829      1.02122974580234
