17
Coordinates from ORCA-job run
  C   -0.68244280171567     -0.23021852703228     -0.43276344969063
  C   0.80361438307160     -0.51247173048453     -0.17018639166853
  Cl  -1.22879129918117     -1.27211352051417     -1.76833736643591
  H   0.83007673958717     -1.58504097821869      0.05920893592453
  C   -1.55652783389704     -0.46185020753916      0.78245823263929
  H   -1.36595224757096     -1.45878058357375      1.18377885752887
  H   -1.34691630589960      0.28479974769281      1.55070722986304
  H   -2.60455387285153     -0.38286265404182      0.50108176008533
  N   -0.91065914019145      1.21083201490078     -0.89535706461694
  O   0.07699769564434      1.90179627410299     -1.12483368626364
  O   -2.07864776507761      1.56487762271364     -0.99022405652860
  C   1.40047390833113      0.24720026556047      1.02097004775365
  H   2.44684233334175     -0.04039732137650      1.13618617191443
  H   0.88065659148274     -0.00955997988063      1.94452950194300
  H   1.35963130617374      1.32362689236606      0.86376457975792
  C   1.62835791116557     -0.33800551645531     -1.36901146932207
  N   2.34884039758697     -0.24383179821998     -2.29097183288370
