17
Coordinates from ORCA-job run
  C   -0.58367195785393      0.07012467713423     -0.40810413946526
  C   0.70022183526399     -0.29937082785405      0.35961457861816
  Cl  -0.26948171311316      0.18767802177762     -2.13728818750020
  H   0.40663309414977     -0.36174413744365      1.41319782778663
  C   -1.73282348011143     -0.88531267975378     -0.15327629464769
  H   -2.62856471933684     -0.53414993930981     -0.66863600700610
  H   -1.47499622384309     -1.87297636782067     -0.53680354320908
  H   -1.93255168547592     -0.94733215293060      0.91706975665627
  N   -0.99431668616675      1.44528248634324      0.13935671464678
  O   -1.06316485348925      2.40687041870101     -0.60973130060256
  O   -1.21679452280513      1.44640496574710      1.34757787210474
  C   1.82597327131178      0.72791670982127      0.21862996817128
  H   1.50877524041745      1.69506537919736      0.61275044812928
  H   2.69388512628368      0.39775832826454      0.79126298213754
  H   2.12143939209641      0.84632772031109     -0.82357632083179
  C   1.13946359622417     -1.62928473231450     -0.06059112773249
  N   1.50097428644831     -2.69325786987053     -0.40145322725543
