17
Coordinates from ORCA-job run
  C   0.90478259564417      0.04446188780243     -0.10925528924332
  C   -0.61818651578734      0.04955789164268     -0.39149437079487
  Br  1.80692598463755      1.32835453601582     -1.30149282045565
  H   -0.72508965733174     -0.29931143968319     -1.42520045221169
  C   1.13247907506110      0.48985174465277      1.26358950979847
  N   1.25450879878435      0.81468438539775      2.38706778711229
  C   1.53195026643406     -1.32587545990982     -0.34320746723700
  H   2.60464407019328     -1.29427689188008     -0.14906884125473
  H   1.05171194085473     -2.04880893820114      0.31482724744717
  H   1.37072880179869     -1.62186653792777     -1.38208983062514
  C   -1.27313936372454      1.41948851074461     -0.24197859816405
  H   -1.12560686312332      1.80385366605531      0.77192230030481
  H   -2.34807357433676      1.31733235005791     -0.41057668183109
  H   -0.88458845034969      2.15272440555490     -0.94848099181918
  N   -1.20020257226368     -0.96866202328070      0.48394483471663
  H   -1.40934425369353     -0.56178327044081      1.38988186409119
  H   -2.07250028279733     -1.30072481660067      0.09161180016615
