17
Coordinates from ORCA-job run
  C   0.89644508808474     -0.00542536820602     -0.36712836262945
  C   -0.61880788993972      0.26994418833347     -0.51732360213138
  Br  1.57648340579139     -0.64408839476783     -2.11274026948666
  H   -0.71389952355532      1.01628965308115     -1.32083126268731
  C   1.59459367133152      1.24946913777670     -0.10159397842790
  N   2.12618538458506      2.26627134426199      0.15483020197343
  C   1.23180538178718     -1.04904351646387      0.69015131215179
  H   2.30048563702992     -1.26500532405067      0.68551138963271
  H   0.96057025520429     -0.66858856402749      1.67786474703799
  H   0.66564138289137     -1.95615223150347      0.48538261484560
  C   -1.19822802027210      0.85909925521203      0.76407706723814
  H   -0.63839365951164      1.73266139420280      1.10180526051852
  H   -2.22784321313369      1.17799500289433      0.57976494489918
  H   -1.21542502335684      0.10946027958418      1.55709315569484
  N   -1.30193728677501     -0.98228108378753     -0.81153329769178
  H   -1.13686556545152     -1.25654655890148     -1.77244547381668
  H   -2.29981002470963     -0.85605921363831     -0.69288444712104
