17
Coordinates from ORCA-job run
  C   0.89390215603088      0.00022585509975     -0.37411997413238
  C   -0.62327654408266      0.27359817239077     -0.50992644011336
  Br  1.56096931507819     -0.62293113642182     -2.13046778976535
  H   -0.72627585206045      1.02806524798694     -1.30477317898334
  C   1.59101820564612      1.25472694191428     -0.10527524379644
  N   2.12143553783112      2.27143854643771      0.15429088718345
  C   1.23947960679191     -1.05140232427786      0.67174618490063
  H   0.67229428526590     -1.95718432018402      0.46393820460781
  H   0.97626346597399     -0.67973446401454      1.66493286803124
  H   2.30814929529284     -1.26694330317405      0.65604490866329
  C   -1.19356320844157      0.84785229694651      0.78236991762199
  H   -0.63050944746029      1.71646782492378      1.12745285181833
  H   -2.22388576045703      1.17036573300397      0.60851918157532
  H   -1.20664218988547      0.08827221641403      1.56597012752736
  N   -1.30603300156769     -0.97698679337808     -0.81172309872050
  H   -1.15034438753301     -1.23989359716604     -1.77746854338811
  H   -2.30298147642279     -0.85493689650133     -0.68151086302995
