17
Coordinates from ORCA-job run
  C   0.79583405780958     -0.33959923688399     -0.19237541872582
  C   -0.57510285726581      0.37844514747283     -0.19344243580869
  Br  0.60475746749035     -2.22898228456347     -0.69208781073441
  H   -0.33191521637594      1.39184845564848      0.17475470824492
  C   1.62925700846001      0.28552419260557     -1.21905161544334
  N   2.28810510611268      0.85377043769890     -2.00985721032444
  C   1.50941590048663     -0.26575564635985      1.15554600571018
  H   1.60076369661527      0.77947088868840      1.46533986575460
  H   2.50777043460046     -0.69696652141193      1.07845809478208
  H   0.95386318901461     -0.81991996537241      1.91151782793042
  C   -1.58729248259926     -0.24373182931287      0.75505054519992
  H   -1.20399152839327     -0.33392714489357      1.77163310516133
  H   -1.88424723417154     -1.22874998113042      0.39344544591719
  H   -2.47662013468929      0.39148786700518      0.79611932522666
  N   -1.12034615843221      0.38170436739012     -1.54040074226658
  H   -0.61866614392673      1.03039096391664     -2.13581377500426
  H   -2.09158510473555      0.66599028950239     -1.51983591561975
