17
Coordinates from ORCA-job run
  C   0.89621178156740      0.06232916061700     -0.13684557484572
  C   -0.63503751088669      0.08019560035332     -0.37883998822153
  Br  1.77012334826273      1.19969704258194     -1.49194704385864
  H   -0.76700391381480     -0.19877614815694     -1.43419862026708
  C   1.20431346942925      0.62717142710694      1.17352673850468
  N   1.43469846957461      1.07056233759031      2.23740357599786
  C   1.47808687627252     -1.34081582362208     -0.26625434013822
  H   1.23651056518915     -1.74796660293382     -1.25144194413567
  H   1.04963693245666     -1.97309742738014      0.51236684983781
  H   2.56242810898746     -1.32008316614029     -0.15437814082892
  C   -1.25923565656211      1.44489881073044     -0.13343293784456
  H   -0.77690711861709      2.22672119373678     -0.71858505732088
  H   -2.31693450197889      1.41598861210716     -0.40784964675993
  H   -1.18305960417193      1.70500786092280      0.92584409012837
  N   -1.21625269400041     -0.90037886175270      0.53265624307623
  H   -2.08893682847289     -0.56699463742027      0.91868113725168
  H   -1.38664172323497     -1.78445937834045      0.07329465942449
