17
Coordinates from ORCA-job run
  C   0.82003976642469     -0.23544062264451     -0.26971937416840
  C   -0.50772200608702      0.53098424410572     -0.10099185930262
  Br  0.56180645303382     -1.76274217079355     -1.49840342602128
  H   -0.23431542731446      1.39711214525748      0.51755528279836
  C   1.79883262348715      0.64694603814083     -0.90271647279082
  N   2.63391854207005      1.35533521504447     -1.32926485562613
  C   1.38400441885672     -0.77668885633945      1.03998668171171
  H   0.72668884811322     -1.53928476166086      1.45642522157383
  H   1.48374992387846      0.04591527445056      1.75496883733270
  H   2.36741994511579     -1.21797446267002      0.87589494489899
  C   -1.58315931560223     -0.26666009073477      0.63376894378119
  H   -1.83268642849247     -1.17831114086806      0.08592342699062
  H   -1.28937911027721     -0.53791876818659      1.65007333917876
  H   -2.48653522856920      0.34427025409597      0.70308658461499
  N   -0.90985236878218      1.05772899764061     -1.39613146020563
  H   -1.35107027559345      0.32984278914779     -1.94666770225437
  H   -1.58074036026171      1.80588591601438     -1.27278811251188
