17
Coordinates from ORCA-job run
  C   0.89706376288376      0.05518961284027     -0.13535231134994
  C   -0.63378671921639      0.08805314692027     -0.37969272207411
  Br  1.78281305565496      1.19203248053130     -1.48334690812177
  H   -0.76653583884267     -0.18190358503861     -1.43733932061302
  C   1.20734188287809      0.61119666398481      1.17813505109384
  N   1.43864619249493      1.04820422793510      2.24452043213945
  C   1.46680463123445     -1.35217746339199     -0.27132325470342
  H   1.22379550912322     -1.75165147197256     -1.25933711668958
  H   2.55108745868086     -1.34149935242437     -0.15717366773975
  H   1.03105193644567     -1.98493362695407      0.50297160029376
  C   -1.24642932247743      1.45637022564648     -0.12517945532849
  H   -0.75376343492971      2.23883590377591     -0.70091297210059
  H   -2.30291074817427      1.44001772172851     -0.40533667121266
  H   -1.17286095010118      1.70646111537934      0.93673151388285
  N   -1.22502885708584     -0.89357013506769      0.52412674039124
  H   -1.39916576757293     -1.77406491004201      0.05935774251867
  H   -2.09712279099551     -0.55656055385070      0.90815131961354
