17
Coordinates from ORCA-job run
  C   0.90080184777753     -0.00270540214349     -0.35277640205211
  C   -0.61035383543592      0.28222840385429     -0.52323607913503
  Br  1.60620121293891     -0.61637134237593     -2.09784645664781
  H   -0.68874806911053      1.04205302802034     -1.31584848443754
  C   1.60143434793709      1.24336417546579     -0.05526959852879
  N   2.15121761321669      2.24240987427142      0.23110574185817
  C   1.21423438334167     -1.06537461737762      0.69239079059963
  H   0.64619868328948     -1.96550544517656      0.46350965882026
  H   0.92974724095175     -0.69952394567744      1.68187267328062
  H   2.28161808172974     -1.28742518826721      0.70054409013042
  C   -1.20721764644584      0.85291984592227      0.75865202136488
  H   -2.23109567891913      1.18326732904023      0.56289831817570
  H   -1.24344571860726      0.08861439667073      1.53693815061799
  H   -0.64660176048734      1.71549902566586      1.12250831834331
  N   -1.29506596868996     -0.96136427546408     -0.84871657710516
  H   -2.29414701760912     -0.83085071304314     -0.74573980441119
  H   -1.11477771587775     -1.22123514938548     -1.81098636087335
