17
Coordinates from ORCA-job run
  C   0.73138139785311     -0.36282935707348     -0.17678089163184
  C   -0.58700808143816      0.46928244187862     -0.23017776001043
  Br  0.34328273749737     -2.27126162562582     -0.48918611984057
  H   -0.24414796016787      1.50306104364992     -0.08173446839369
  C   1.57792674721662      0.06993092131486     -1.28689413017589
  N   2.23427864086921      0.48608443483731     -2.16930396044731
  C   1.48840321148667     -0.23160996676276      1.14059248380228
  H   2.45530037420115     -0.73255512150236      1.08082423660023
  H   0.91725627091272     -0.67740126012874      1.95407321195915
  H   1.65455234401812      0.82862366152538      1.35520803620976
  C   -1.55744264763072      0.11968743701971      0.88846766986063
  H   -1.90000743356473     -0.91382535018414      0.80065852165773
  H   -2.42430537189555      0.77478417289675      0.79687996166078
  H   -1.12159127729796      0.25815262763733      1.87857182376299
  N   -1.28444512563684      0.43638030992747     -1.49822273250355
  H   -0.68923226756547      0.74980699612613     -2.25583417054102
  H   -1.59320155885766     -0.50631136553618     -1.70514171196926
