15

C	0.0	0.0	0.0
C	-0.387652	0.150979	-1.506943
Br	1.966114	0.0	0.0
H	-0.056419	1.153967	-1.801188
H	0.221907	-0.566898	-2.063779
C	-0.591969	1.081621	0.880428
H	-0.301757	2.064566	0.501935
H	-0.257521	0.981202	1.91427
H	-1.683447	0.981657	0.849132
C	-0.374246	-1.335186	0.464437
N	-0.634426	-2.437251	0.780843
N	-1.762595	-0.034213	-1.859081
H	-2.409752	0.587182	-1.384267
H	-2.093029	-0.963122	-1.628239
Br	-4.517131	0.0	0.0
