15

C	0.0	0.0	0.0
C	-0.524874	0.242786	-1.416974
Br	1.973911	0.0	0.0
H	-0.186069	-0.576944	-2.062918
H	-1.615567	0.174989	-1.313524
C	-0.50413	1.040077	0.983149
H	-0.187702	2.024924	0.64089
H	-1.597817	0.976848	0.982162
H	-0.119234	0.847472	1.986454
C	-0.350668	-1.357067	0.425718
N	-0.574258	-2.457868	0.77133
N	-0.148173	1.565897	-1.89484
H	-0.91652	1.965526	-2.416175
H	0.660306	1.511701	-2.498746
Br	-3.953536	0.0	0.0
