15

C	0.0	0.0	0.0
C	-0.515764	0.236418	-1.42444
Br	1.97448	0.0	0.0
H	-1.607652	0.177716	-1.330274
H	-0.176362	-0.589661	-2.062257
C	-0.507782	1.047965	0.974129
H	-0.159575	2.027226	0.648593
H	-0.155196	0.833854	1.983635
H	-1.602486	1.010765	0.950093
C	-0.365372	-1.349632	0.42931
N	-0.615986	-2.44567	0.773246
N	-0.127105	1.554838	-1.908321
H	-0.888733	1.957384	-2.436313
H	0.685272	1.493757	-2.505187
Br	-3.96726	0.0	0.0
