13

C	-0.377913	-0.122342	-1.466272
C	0.0	0.0	0.0
Br	-0.319581	1.828646	-2.218291
H	1.089776	0.0	0.0
H	-0.33771	-0.91756	0.497501
H	-0.419661	0.873273	0.499209
N	0.57495	-0.840943	-2.26073
H	1.510549	-0.556274	-1.957127
H	0.471481	-1.817602	-2.001414
N	-1.665016	-0.671617	-1.695206
H	-2.3685	-0.149444	-1.18889
H	-1.871235	-0.646	-2.686427
H	3.047189	0.0	0.0
