13

C	-0.394748	-0.07081	-1.465539
C	0.0	0.0	0.0
Br	-0.31758	1.780454	-2.224572
H	1.089857	0.0	0.0
H	-0.433723	0.848096	0.528675
H	-0.322311	-0.934372	0.482614
N	0.553219	-0.838644	-2.260103
H	1.493904	-0.513512	-2.010402
H	0.505727	-1.788698	-1.895328
N	-1.749269	-0.524031	-1.659202
H	-1.858761	-0.767665	-2.638199
H	-1.881791	-1.359057	-1.098831
H	3.061501	0.0	0.0
