13

C	-0.066183	0.139144	-1.537503
C	0.0	0.0	0.0
Br	-0.278389	-1.982856	-2.220715
H	1.092578	0.0	0.0
H	-0.446411	-0.920409	0.365053
C	-1.286038	0.649997	-2.147014
N	-2.270707	1.123543	-2.584228
N	1.08529	0.713234	-1.959754
H	1.207079	0.840282	-2.951859
H	1.929882	0.472205	-1.34611
C	-0.52964	1.175053	0.664509
N	-0.934847	2.127458	1.222106
F	2.663813	0.0	0.0
