13

C	-0.127624	0.06608	-1.543686
C	0.0	0.0	0.0
Br	-0.020963	-1.793391	-2.262924
H	1.093925	0.0	0.0
H	-0.318661	0.975778	0.386689
C	-1.417855	0.585312	-2.004357
N	-2.457768	1.041959	-2.309433
N	0.968205	0.816209	-2.097229
H	0.755437	1.806198	-2.027744
H	1.792752	0.602619	-1.495144
C	-0.687817	-1.05899	0.696652
N	-1.255696	-1.891064	1.302705
F	2.612155	0.0	0.0
