13

C	-0.110304	0.207301	-1.524696
C	0.0	0.0	0.0
Br	-0.118065	-1.701975	-2.423954
H	1.092397	0.0	0.0
H	-0.329666	0.928	0.478613
C	-1.380155	0.744231	-2.015039
N	-2.389212	1.229232	-2.376168
N	0.985992	0.973694	-1.888658
H	1.842687	0.672768	-1.354368
H	1.104411	1.097177	-2.883407
C	-0.674834	-1.132592	0.584224
N	-1.227309	-2.013589	1.131863
F	2.637866	0.0	0.0
