13

C	-0.455058	-0.078222	-1.447449
C	0.0	0.0	0.0
Br	0.300643	1.589835	-2.347904
H	1.091721	0.0	0.0
H	-0.341694	0.948848	0.427331
C	0.171156	-1.19117	-2.167729
N	0.587023	-2.10228	-2.781834
N	-1.864587	-0.156913	-1.608383
H	-2.314071	0.587453	-1.089601
H	-2.136456	-0.108094	-2.582803
C	-0.535171	-1.109112	0.76785
N	-0.939364	-2.004622	1.41435
F	2.517064	0.0	0.0
