13

C	-0.064283	0.110125	-1.538739
C	0.0	0.0	0.0
Br	-0.279059	-2.023925	-2.180855
H	1.094336	0.0	0.0
H	-0.44772	-0.911702	0.382809
C	-1.277591	0.616048	-2.165118
N	-2.238437	1.089376	-2.652692
N	1.088132	0.677653	-1.97131
H	1.93466	0.446723	-1.356075
H	1.205266	0.796407	-2.965916
C	-0.531639	1.188844	0.639653
N	-0.959822	2.144743	1.173161
F	2.666601	0.0	0.0
