13

C	-0.432175	-0.018786	-1.453481
C	0.0	0.0	0.0
Br	0.15437	1.63471	-2.354583
H	1.092578	0.0	0.0
H	-0.299599	-0.959125	0.445663
C	0.269438	-1.116	-2.147424
N	0.679068	-2.048532	-2.735198
N	-1.869362	-0.095859	-1.619225
H	-2.107417	-0.240597	-2.594574
H	-2.210616	-0.882524	-1.076313
C	-0.599729	1.084179	0.7475
N	-1.059649	1.948323	1.3989
F	2.515756	0.0	0.0
