13

C	-0.110639	0.046352	-1.543804
C	0.0	0.0	0.0
Br	0.185312	-1.827412	-2.166442
H	1.093742	0.0	0.0
H	-0.452585	-0.881358	0.452318
C	-1.440972	0.402459	-2.041279
N	-2.524159	0.711567	-2.379641
N	0.925419	0.864462	-2.111674
H	1.764447	0.67905	-1.523837
H	0.66152	1.838475	-2.000784
C	-0.506651	1.230297	0.57605
N	-0.908556	2.237475	1.031831
F	2.598974	0.0	0.0
