12

C	-0.515968	-0.000415	-1.413872
C	0.0	0.0	0.0
Br	0.065228	1.593495	-2.37127
H	1.090179	0.0	0.0
H	-0.363234	-0.899103	0.506843
H	-0.365812	0.885934	0.516735
C	-0.11486	-1.176075	-2.175612
N	0.217584	-2.130626	-2.774372
N	-2.059774	0.060447	-1.438255
O	-2.635284	-0.550811	-2.331517
O	-2.591254	0.742314	-0.57253
Br	3.569428	0.0	0.0
