12

C	-0.479551	-0.036058	-1.424367
C	0.0	0.0	0.0
Br	-2.444951	-0.191788	-1.523997
H	1.092835	0.0	0.0
H	-0.367987	-0.878216	0.528631
H	-0.367492	0.908302	0.479711
C	-0.111146	1.139589	-2.200521
N	0.130512	2.131963	-2.781837
N	0.045343	-1.292706	-2.136628
O	0.000357	-2.327387	-1.490495
O	0.424959	-1.16005	-3.292495
Br	3.533169	0.0	0.0
