12

C	-0.557831	-0.00414	-1.402121
C	0.0	0.0	0.0
Br	0.177817	-1.472536	-2.447503
H	1.087988	0.0	0.0
H	-0.369579	0.886195	0.523246
H	-0.355678	-0.895179	0.514161
C	-2.010786	-0.121353	-1.436771
N	-3.179176	-0.23435	-1.388189
N	-0.213151	1.290635	-2.161738
O	-0.922647	1.55682	-3.127516
O	0.7389	1.929244	-1.749803
Br	3.640426	0.0	0.0
