16

C	0.0	0.0	0.0
C	-0.441934	-0.102512	-1.458969
Cl	1.815622	0.0	0.0
H	-0.051027	0.756528	-2.023231
H	-1.533634	-0.037559	-1.421568
C	-0.45217	1.310666	0.61176
H	-0.10763	1.363642	1.646044
H	-1.544743	1.339964	0.586362
H	-0.046141	2.158602	0.055492
N	-0.458881	-1.10187	0.800606
H	-1.46332	-0.953199	0.919459
H	-0.357479	-1.93393	0.22451
N	-0.065054	-1.396883	-2.025844
H	-0.711463	-1.643976	-2.76299
H	0.866802	-1.349468	-2.41701
Cl	-3.788203	0.0	0.0
