16

C	0.0	0.0	0.0
C	-0.45459	0.100511	-1.458525
Cl	1.868024	0.0	0.0
H	-1.545756	0.018745	-1.412393
H	-0.064025	-0.77336	-1.993254
C	-0.471062	1.158998	0.845747
H	-1.565696	1.158132	0.808202
H	-0.14158	1.033669	1.880963
H	-0.072497	2.103934	0.476425
N	-0.467825	-1.214269	0.533436
H	-0.245998	-1.339528	1.510261
H	-0.182929	-2.01847	-0.00793
N	-0.082798	1.301395	-2.188408
H	-0.644294	2.076909	-1.860349
H	0.891901	1.519809	-2.016954
Cl	-3.98801	0.0	0.0
