16

C	0.0	0.0	0.0
C	-0.425484	0.104691	-1.475947
Cl	1.81176	0.0	0.0
H	-0.003218	-0.763037	-1.997978
H	-1.514615	0.006587	-1.472023
C	-0.452303	1.190391	0.82261
H	-0.124344	1.058338	1.85516
H	-0.027246	2.116727	0.432547
H	-1.543848	1.237662	0.786002
N	-0.476402	-1.208257	0.621494
H	-0.310636	-1.989253	-0.007655
H	-1.491658	-1.093556	0.693246
N	-0.067609	1.311508	-2.207104
H	0.901339	1.545721	-2.024132
H	-0.643419	2.076587	-1.880722
Cl	-3.734527	0.0	0.0
