16

C	0.0	0.0	0.0
C	-0.448316	0.283568	-1.441672
Cl	1.808219	0.0	0.0
H	-1.536273	0.170879	-1.450936
H	-0.012713	-0.498846	-2.068737
C	-0.439886	1.081063	0.974899
H	-0.100503	0.829312	1.983801
H	-1.53283	1.113412	0.95846
H	-0.028751	2.058814	0.714989
N	-0.464846	-1.323999	0.338857
H	-1.483691	-1.288842	0.238688
H	-0.273587	-1.500269	1.320666
N	-0.117733	1.589799	-1.992783
H	-0.700183	2.291216	-1.554226
H	0.849601	1.811991	-1.789687
Cl	-3.74496	0.0	0.0
