16

C	0.0	0.0	0.0
C	-0.308695	-0.818323	-1.286865
Cl	1.79913	0.0	0.0
H	0.289408	-1.730818	-1.212212
H	0.096474	-0.240101	-2.126143
C	-0.492599	1.433917	-0.088964
H	-0.183837	2.000846	0.794452
H	-0.103522	1.937462	-0.977861
H	-1.586324	1.41211	-0.124289
N	-0.492234	-0.72298	1.149618
H	-0.319121	-0.173012	1.985862
H	-1.50741	-0.763036	1.03841
N	-1.667955	-1.198222	-1.579295
H	-2.327545	-0.431592	-1.500239
H	-1.998475	-1.881913	-0.911316
Cl	-4.176975	0.0	0.0
