13

C	-0.372309	-0.132415	-1.470361
C	0.0	0.0	0.0
Cl	-2.120361	-0.117269	-1.764538
H	1.09649	0.0	0.0
H	0.036975	-1.058353	-1.868804
N	0.242501	0.968165	-2.297578
O	0.204832	2.103393	-1.841983
O	0.689645	0.624483	-3.386716
C	-0.442312	-1.209687	0.692957
N	-0.798285	-2.19164	1.230031
C	-0.543742	1.177605	0.668699
N	-0.998096	2.080265	1.266934
Cl	3.109294	0.0	0.0
