13

C	-0.564727	0.00031	-1.422832
C	0.0	0.0	0.0
Cl	0.176423	1.26272	-2.400492
H	1.095668	0.0	0.0
H	-1.644292	0.145563	-1.438482
N	-0.344061	-1.334019	-2.095938
O	-1.222003	-1.670721	-2.887336
O	0.676732	-1.948893	-1.824892
C	-0.500704	-1.169779	0.724005
N	-0.916562	-2.118001	1.279523
C	-0.469743	1.215588	0.66756
N	-0.87764	2.184739	1.190675
Cl	3.143499	0.0	0.0
