13

C	-0.557925	-0.023737	-1.422813
C	0.0	0.0	0.0
Cl	0.208029	1.207473	-2.414129
H	1.095818	0.0	0.0
H	-1.633743	0.139955	-1.448427
N	-0.34756	-1.372411	-2.060902
O	0.644804	-2.006506	-1.72959
O	-1.202702	-1.705605	-2.879981
C	-0.503237	-1.153782	0.742864
N	-0.922414	-2.094842	1.304412
C	-0.476459	1.230753	0.638327
N	-0.893374	2.20355	1.146074
Cl	3.151718	0.0	0.0
