13

C	-0.375093	-0.104328	-1.474404
C	0.0	0.0	0.0
Cl	-2.122225	-0.108643	-1.76624
H	1.096527	0.0	0.0
H	0.049121	-1.01708	-1.890024
N	0.219327	1.024347	-2.274709
O	0.753498	0.699241	-3.328777
O	0.077681	2.159476	-1.84054
C	-0.431652	-1.232831	0.666178
N	-0.774484	-2.231396	1.182376
C	-0.548962	1.156928	0.695209
N	-1.034981	2.033449	1.308309
Cl	3.10433	0.0	0.0
