13

C	-0.335945	-0.103619	-1.482427
C	0.0	0.0	0.0
Cl	0.027982	-1.699662	-2.120231
H	1.097573	0.0	0.0
H	0.244338	0.631116	-2.039027
N	-1.786358	0.198132	-1.779081
O	-2.6225	-0.179783	-0.966701
O	-2.008167	0.787135	-2.834075
C	-0.506778	-1.098274	0.814062
N	-0.877438	-1.990383	1.481151
C	-0.449554	1.294541	0.506734
N	-0.814131	2.353691	0.859615
Cl	3.117094	0.0	0.0
