13

C	-0.560971	0.236874	-1.402736
C	0.0	0.0	0.0
Cl	0.212879	1.618121	-2.16941
H	1.102916	0.0	0.0
H	-1.636501	0.409422	-1.395785
N	-0.368253	-0.975705	-2.282865
O	-1.210692	-1.115103	-3.167925
O	0.599122	-1.692683	-2.067715
C	-0.5094	-1.26153	0.535599
N	-0.946491	-2.27124	0.947335
C	-0.439406	1.105073	0.853913
N	-0.790566	2.001213	1.526234
Cl	3.144441	0.0	0.0
