13

C	-0.406376	-0.108306	-1.460767
C	0.0	0.0	0.0
Cl	-2.162757	-0.12544	-1.703964
H	1.102453	0.0	0.0
H	0.008555	-1.018172	-1.889891
N	0.156171	1.020831	-2.287113
O	0.171554	2.136999	-1.785282
O	0.507588	0.71758	-3.422449
C	-0.430431	-1.221791	0.681195
N	-0.780866	-2.211867	1.206608
C	-0.531276	1.161444	0.70744
N	-0.966798	2.045357	1.346555
Cl	3.116984	0.0	0.0
