15

C	-0.387898	0.036091	-1.496594
C	0.0	0.0	0.0
Cl	0.039001	-1.537209	-2.267857
H	1.094134	0.0	0.0
H	-0.334343	0.957569	0.418021
C	-1.835799	0.195697	-1.651205
N	-2.996444	0.361617	-1.737827
C	0.382946	1.143685	-2.200272
H	0.105592	2.108181	-1.766214
H	1.448527	0.974423	-2.026867
H	0.167918	1.15655	-3.270192
N	-0.520359	-1.083716	0.799609
H	-1.507648	-1.230698	0.626833
H	-0.021824	-1.933906	0.575351
Cl	3.490333	0.0	0.0
