15

C	-0.404044	0.032657	-1.493065
C	0.0	0.0	0.0
Cl	-0.023125	-1.570772	-2.228047
H	1.094017	0.0	0.0
H	-0.375651	-0.926075	0.441133
C	-1.851571	0.23226	-1.618821
N	-3.009671	0.431062	-1.667881
C	0.366783	1.115942	-2.233462
H	1.433189	0.945234	-2.073119
H	0.133084	1.095676	-3.297761
H	0.098587	2.097055	-1.830577
N	-0.460266	1.139426	0.768219
H	0.109669	1.953259	0.579922
H	-1.437761	1.354331	0.603937
Cl	3.53785	0.0	0.0
