15

C	-0.416033	0.032151	-1.490046
C	0.0	0.0	0.0
Cl	-0.000536	-1.55668	-2.227659
H	1.09402	0.0	0.0
H	-0.368575	-0.928374	0.443802
C	-1.867128	0.192748	-1.609046
N	-3.027358	0.370152	-1.676474
C	0.321394	1.12968	-2.243946
H	0.029286	2.103998	-1.845033
H	0.083428	1.101462	-3.308712
H	1.393425	0.985079	-2.089245
N	-0.460163	1.136303	0.774185
H	-1.438024	1.348846	0.617205
H	0.106471	1.951784	0.587025
Cl	3.505736	0.0	0.0
