15
Coordinates from ORCA-job run
  C   -0.58112040886486     -0.31964361077660      0.15683840216274
  C   0.77488123982675      0.41001262641594      0.01638458480747
  Cl  -0.28428380292776     -2.03707049388070      0.54802125836360
  H   0.57798287566423      1.47921500235276     -0.10837872533808
  C   -1.36428657098249      0.28388979346732      1.23593815089864
  N   -2.06134707708362      0.77331527881104      2.04588257629353
  C   -1.36164528831252     -0.22684667104519     -1.15292897878301
  H   -2.32902815308200     -0.71397257125089     -1.02905323587837
  H   -1.52508561898614      0.82111705095409     -1.41753651674712
  H   -0.81319647393594     -0.72658849871517     -1.95212187874187
  C   1.54464168199312     -0.09942978617282     -1.10880310788536
  N   2.13092587554148     -0.47715763506834     -2.05377280108811
  N   1.58222891580874      0.30056929590721      1.29568958085241
  O   2.49188579835811     -0.51680732785793      1.32773492934920
  O   1.21744700698290      1.04939754685926      2.19510576173431
