15
Coordinates from ORCA-job run
  C   -0.74270432795222      0.05964722197426      0.25681317728566
  C   0.75620038233133      0.20839838678146      0.60366662513330
  Cl  -1.61387703156489      0.29902974054935      1.80617569694151
  H   1.00029004526609     -0.50263026445779      1.39507866703685
  C   -1.17167782917154      1.09898376857829     -0.67700087508761
  N   -1.54947776774235      1.90333611744560     -1.44630028196500
  C   -1.05650700383649     -1.32686121816764     -0.29292243188354
  H   -0.59593339650094     -1.46117481266182     -1.27351876589768
  H   -0.68529904522655     -2.09294069856760      0.38981346743916
  H   -2.13615405092350     -1.43415298737587     -0.39886517148097
  C   1.11607659352968      1.56492911372287      0.98940617232838
  N   1.41312720118152      2.65195658140313      1.32075819531757
  N   1.57352199798734     -0.21235764915964     -0.59855098377542
  O   2.05353665792628     -1.34023276714662     -0.54823734739808
  O   1.63887757469624      0.58406946708201     -1.52731614399414
