15
Coordinates from ORCA-job run
  C   -0.71394468933479     -0.09236603058569      0.36351854426107
  C   0.72781020863419      0.46263091452392      0.50306017156766
  Cl  -1.00702642655116     -1.18471770036436      1.75018136007021
  H   0.82315714905910      0.97784646905759      1.46103793672226
  C   -1.60658545090915      1.06154836700427      0.49088733971685
  N   -2.32023158254154      1.99256749959560      0.56799818352711
  C   -0.98935009079539     -0.83025981047468     -0.94097267634034
  H   -2.03788095981322     -1.12888284088858     -0.95890973453114
  H   -0.79060083432874     -0.17467893171023     -1.79141682282225
  H   -0.36268662268756     -1.71660371943276     -1.01681152079299
  C   1.04901603473494      1.35081603196081     -0.60629473711977
  N   1.28306576217976      2.07729284116962     -1.49939754972835
  N   1.74067500633980     -0.66152473135823      0.54561675504672
  O   1.94292754206191     -1.26120742395427     -0.50411776897597
  O   2.26165495395183     -0.87246093454301      1.63362051939894
