15
Coordinates from ORCA-job run
  C   -0.74940182782919      0.12463440098635      0.21050430594454
  C   0.73862426160435      0.26473056248526      0.60476703712732
  Cl  -1.67409837555403      0.61559837398763      1.66604413384275
  H   0.91704186998417     -0.33104460045210      1.50185560034401
  C   -1.09113586023130      1.03475764549997     -0.88105553560574
  N   -1.39814095387961      1.73423785896266     -1.77438120216744
  C   -1.10120698271404     -1.31307475040504     -0.15361372909281
  H   -0.79399498485470     -1.98831296020315      0.64668404099334
  H   -0.60594620286009     -1.60272469680505     -1.08233844749033
  H   -2.17920569299613     -1.39237452237400     -0.29519660603323
  C   1.14197980890505      1.64844116762873      0.80755444664360
  N   1.47148658554947      2.76062339826402      0.99256977717433
  N   1.58619771903389     -0.35966848007858     -0.48258091697269
  O   2.01282371601510     -1.48493841333076     -0.24501471326713
  O   1.72497691982706      0.28711501583405     -1.51379819144051
