15
Coordinates from ORCA-job run
  C   -0.55633556249526     -0.35027640365691      0.17742574602692
  C   0.75678968187817      0.44245773971776     -0.01442159033871
  Cl  -0.16445296875554     -2.06855519399032      0.47065276878849
  H   0.50954282678658      1.50632075609757     -0.08265974417707
  C   -1.29259123693805      0.16959735461976      1.33054212760118
  N   -1.95567730600594      0.58373211508265      2.20796680020226
  C   -1.42250934268132     -0.23609179908812     -1.07548353997307
  H   -0.90605907933784     -0.67542201502832     -1.92958346919857
  H   -2.35850220927601     -0.77125737410838     -0.91432083983389
  H   -1.64676258436137      0.81394975448159     -1.28057738575989
  C   1.47507534344506      0.01171773686130     -1.20489896677744
  N   2.01636904712799     -0.29822102431755     -2.20004744882498
  N   1.64687762354851      0.31806824013796      1.20756182430215
  O   2.59032685005337     -0.45845376112698      1.14935302536821
  O   1.30790891701162      1.01343387431798      2.15849069259441
