15
Coordinates from ORCA-job run
  C   -0.57893731806089     -0.28923139981008      0.21519730577582
  C   0.78484048809384      0.38471625867060     -0.06068435673759
  Cl  -0.30404056837279     -1.98053293953940      0.72010581562900
  H   0.60961386679780      1.44641502421085     -0.25988720089402
  C   -1.27879386054568      0.41733587015811      1.28894418271409
  N   -1.90861510649035      0.98549357420472      2.10248454306468
  C   -1.43479655884710     -0.27182729950191     -1.04990445518386
  H   -0.94896284562523     -0.84689638659172     -1.83889352984486
  H   -1.58712009468218      0.75762541302096     -1.38447144668080
  H   -2.40507181579724     -0.71885652911132     -0.83256524845795
  C   1.47242900996414     -0.23380991177373     -1.18470933593977
  N   1.98765823984967     -0.68665104120741     -2.13808223995421
  N   1.66419667445406      0.35045290569123      1.17420033962543
  O   1.37474615783413      1.17813767176389      2.03079246108242
  O   2.55185373142787     -0.49037121018473      1.21847316580164
