15
Coordinates from ORCA-job run
  C   -0.57622045222365     -0.34328674042176      0.12845500429156
  C   0.77155678088539      0.40993936621472      0.04733402437817
  Cl  -0.26041647525723     -2.09397569021898      0.29191366661559
  H   0.56573896800784      1.48463878015340      0.05810307078819
  C   -1.33327355724669      0.11151481943630      1.29537425150603
  N   -1.99986361725332      0.48846719477289      2.18695829120439
  C   -1.39088634995098     -0.09266497006753     -1.13915133037048
  H   -1.56719202188457      0.97882056102685     -1.26488649333016
  H   -0.86059144131874     -0.48251105269190     -2.00862096796965
  H   -2.35196125993121     -0.60021120136949     -1.05401244079581
  C   1.51785573425709      0.04895608105567     -1.14906533837953
  N   2.08548333009951     -0.19354187999048     -2.14825226487187
  N   1.60992346763457      0.15298593489650      1.28458521268568
  O   2.52034704091982     -0.65956253330592      1.19750204696257
  O   1.26749985326219      0.78943133050974      2.27476326728531
