15
Coordinates from ORCA-job run
  C   -0.59479205091905     -0.30761072987417      0.12739041511277
  C   0.80141525300349      0.35131946745890      0.04649595865680
  Cl  -0.40246649061309     -2.08310822157503      0.16988093283987
  H   0.67570464960931      1.43490270574361      0.13358730421058
  C   -1.28212071637100      0.12242942895859      1.34585914107633
  N   -1.89992949550285      0.47914040540655      2.27987847301521
  C   -1.42664822629167      0.08181160171170     -1.09308520385113
  H   -1.52772916840681      1.16900257383662     -1.14554293269836
  H   -2.41930170912350     -0.36048113680766     -1.00640413507151
  H   -0.95266347605581     -0.28765402163335     -2.00307380957025
  C   1.48129832474442      0.01821284086472     -1.19659600589818
  N   1.99597138701479     -0.20090014734092     -2.22932378181935
  N   1.65665241284456     -0.04670386021707      1.23391939520055
  O   1.38902782597643      0.54116106807541      2.27579947688977
  O   2.50558148009079     -0.91052197460791      1.06121477190688
