15
Coordinates from ORCA-job run
  C   -0.74997507823220      0.09743272062530      0.22162143308899
  C   0.73182997533400      0.07866171727616      0.66219487234573
  Cl  -1.69358691454848      0.25309241435460      1.73879207865113
  H   0.86794824892157     -0.72675954812738      1.38623097399688
  C   -1.03305198956570      1.26061139198956     -0.61705410842537
  N   -1.29530681335686      2.17085703189403     -1.31291334789614
  C   -1.14128285683370     -1.19237587310660     -0.48967617577322
  H   -0.87775200198133     -2.05432463547409      0.12550440286457
  H   -2.21737504913009     -1.19233481423633     -0.66407280845771
  H   -0.63287338587160     -1.26550246823186     -1.45302597621095
  C   1.17505198065597      1.35298763267370      1.20836578223136
  N   1.54114050283660      2.36949841236229      1.66908926798733
  N   1.58494295276676     -0.28860082204048     -0.53238603958973
  O   1.96591295157551     -1.45387110489835     -0.57625788913195
  O   1.77437747742955      0.58862794493944     -1.36641246568092
