15
Coordinates from ORCA-job run
  C   -0.54635789663873     -0.38684300066662      0.12693213973322
  C   0.73639495426621      0.47286604345683      0.05076718339661
  Cl  -0.08980856037773     -2.10469365182184      0.30325427172107
  H   0.44383153283670      1.52734899673057      0.05528886982662
  C   -1.34804966682719      0.01090580905835      1.28510780786710
  N   -2.06175797179830      0.33071875621134      2.16232417960924
  C   -1.36902151224496     -0.21032383692252     -1.14792301219304
  H   -1.63246665547736      0.84228290637438     -1.28035889561868
  H   -0.80162695790952     -0.55902320029816     -2.01149168028515
  H   -2.28542227443730     -0.79528474700223     -1.06690119860245
  C   1.51726898077774      0.16804180278100     -1.13905061236395
  N   2.11016903912247     -0.04029051254681     -2.13126434961763
  N   1.58440061051212      0.28982836315012      1.29480295709298
  O   2.56210985085320     -0.44123553388137      1.21605395387185
  O   1.18033652734261      0.89470180537699      2.28145838556219
