15
Coordinates from ORCA-job run
  C   -0.56709615622166     -0.37362242299881      0.06955840897924
  C   0.75236814575497      0.43061698386004      0.12155487674325
  Cl  -0.18941450574819     -2.11950397340781      0.07641442175103
  H   0.50430900406708      1.49092209522976      0.22986735113846
  C   -1.38900482872818     -0.06258386159141      1.23990441239707
  N   -2.11038461446477      0.20121146760770      2.12948025289074
  C   -1.33842580021485     -0.02805565769449     -1.20277339793061
  H   -2.28129675782959     -0.57527059809558     -1.21029583425639
  H   -0.75788282571013     -0.31107134843308     -2.08148866655218
  H   -1.55181758980912      1.04366340181613     -1.23145562611453
  C   1.55858596631814      0.21768734404016     -1.07137753082993
  N   2.17756862105956      0.09090680176930     -2.06142938379946
  N   1.55089140500336      0.07984618182612      1.36240053106921
  O   1.14328190921570      0.59890093690342      2.39542457084711
  O   2.49731802730765     -0.68464735083149      1.23421561366699
