15
Coordinates from ORCA-job run
  C   -0.75384439961253      0.10387670966397      0.20417315657652
  C   0.72635599304957      0.24070524316342      0.62782685998705
  Cl  -1.70549286051735      0.50734943387814      1.67022364451043
  H   0.89888652222479     -0.39928498312634      1.49508474706305
  C   -1.09266097202782      1.06674054265186     -0.84188382045580
  N   -1.39515397393963      1.81508553840389     -1.69629029665390
  C   -1.08200075202708     -1.31707115849985     -0.23824669446756
  H   -2.15589820645686     -1.40064943424785     -0.40595503863653
  H   -0.78345798469237     -2.02807652533911      0.53393796056428
  H   -0.56494034020486     -1.55524713779921     -1.16984958391452
  C   1.10943806303431      1.61657006373112      0.90848833714166
  N   1.42018004078045      2.72220932591565      1.15476027009263
  N   1.59764333642129     -0.31495204350257     -0.47753942079546
  O   2.04248484002615     -1.44266723853418     -0.28993396784224
  O   1.73746069394199      0.38441166364110     -1.47379615316962
