15
Coordinates from ORCA-job run
  C   -0.63498195282299     -0.32500774702919      0.07585850798349
  C   0.79384076732531      0.25599760094392      0.02120283179425
  Cl  -0.62354408446628     -2.10479596117267      0.17873684443312
  H   0.72105625347359      1.32257315260561     -0.20799000717102
  C   -1.30977831737295      0.22670884460269      1.25146355151640
  N   -1.86298520609232      0.71649756245114      2.16555491173997
  C   -1.37776632835272      0.07860505942562     -1.19800637107762
  H   -1.42653225335450      1.16706471113061     -1.28098916710001
  H   -2.39194822467123     -0.31957443857710     -1.16592200467995
  H   -0.86731152115085     -0.33600859315885     -2.06912469437186
  C   1.61931511209211     -0.40525645387282     -0.98027553669865
  N   2.27992548617264     -0.91271916362162     -1.80843965943567
  N   1.51400026377075      0.21504628319143      1.35970639127079
  O   1.43128115909331     -0.81377151829756      2.01385315491936
  O   2.13342884635609      1.23364066137880      1.64437124687741
