15
Coordinates from ORCA-job run
  C   -0.61549492668685     -0.22959726873147      0.18767725126980
  C   0.81884072376216      0.30704994145784     -0.02639395871386
  Cl  -0.53132534872968     -1.92761874401518      0.73541473063688
  H   0.75434840677128      1.37488041248938     -0.25663790559635
  C   -1.29819148414629      0.56350635075392      1.21087876037797
  N   -1.90717067857218      1.20362748730271      1.98593699150296
  C   -1.39850598711754     -0.15902694366674     -1.12191531620508
  H   -0.93038481371934     -0.79648184813224     -1.87278873207377
  H   -1.43183748032533      0.87215692824071     -1.48312870517096
  H   -2.41777275215140     -0.50524275363547     -0.94952924407592
  C   1.50280298433559     -0.40227323138792     -1.09763738998522
  N   2.02458187308442     -0.93506149507421     -2.00499532138378
  N   1.62466442218631      0.22333259359524      1.25509679558017
  O   2.41984079450804     -0.69950659964679      1.36894556290716
  O   1.38560426680086      1.10925517045021      2.06807648092998
