15
Coordinates from ORCA-job run
  C   -0.75336512506233      0.07179800576018      0.21903751498088
  C   0.72787837055423      0.18241170808286      0.64682690534131
  Cl  -1.70034231645011      0.30670175196995      1.72382228105814
  H   0.91403314828175     -0.54412871825313      1.43990595581933
  C   -1.11039640065762      1.13424491718559     -0.71901989317634
  N   -1.42993582277568      1.96211612536702     -1.48976773302925
  C   -1.06620508374777     -1.29917092550382     -0.36890422164509
  H   -0.55651856201365     -1.42860969634104     -1.32566616232905
  H   -0.74853824811871     -2.08356631393383      0.32008137090270
  H   -2.14062325820962     -1.38115351586890     -0.53405944531257
  C   1.09517862090070      1.52587880224278      1.06937379746506
  N   1.38723844465397      2.60864835935689      1.41863075246025
  N   1.59873334012397     -0.24124024771025     -0.51615910427482
  O   2.05517689947266     -1.37816005370763     -0.45373774370766
  O   1.72668599304820      0.56322980135329     -1.43136427455290
