15
Coordinates from ORCA-job run
  C   -0.53633324319394     -0.39966550485013      0.12678589488024
  C   0.72791402341615      0.48731229363412      0.04868166232180
  Cl  -0.04274662539579     -2.11185721366682      0.25285432642767
  H   0.41504664956459      1.53538644816420      0.08233913333358
  C   -1.32364892072248     -0.04722966154080      1.30914526045268
  N   -2.02466546400637      0.23321200809510      2.20996309533198
  C   -1.38544467038801     -0.20901097327842     -1.12842413541005
  H   -2.28939940608279     -0.81267852790613     -1.04502930624302
  H   -0.82758176834532     -0.52694755313831     -2.00990309319450
  H   -1.67034595043318      0.84128302391797     -1.23155132120880
  C   1.49270521477382      0.22369698606020     -1.16132262773065
  N   2.06916784751620      0.04290059236480     -2.16837716082205
  N   1.60100708161873      0.29297874936037      1.27334076816254
  O   2.59152085877922     -0.41612535502991      1.16126656066681
  O   1.20280437289922      0.86774468781376      2.28023094303178
