15
Coordinates from ORCA-job run
  C   -0.59479987722353     -0.32853836477294      0.05948001823231
  C   0.79006527764893      0.35614711782378      0.12103537768392
  Cl  -0.36997157817280     -2.08989160976328     -0.13375764755139
  H   0.63937505803160      1.41655721041829      0.34518890557811
  C   -1.33171156594416     -0.08206975188031      1.29983349501587
  N   -1.97249916977092      0.08937389689545      2.27005888992609
  C   -1.38995002794749      0.21265325635003     -1.12720240809324
  H   -0.87670351776254     -0.02133128978663     -2.06052672339855
  H   -1.51049453477277      1.29519939686338     -1.03462416044302
  H   -2.37617925353682     -0.25182410447021     -1.13994628549631
  C   1.52162195811208      0.20115366590049     -1.12767489975676
  N   2.08701198746006      0.12737812791805     -2.15446807598495
  N   1.60961421385143     -0.18214166968604      1.27811055434830
  O   1.30118942729029      0.26889482542869      2.37554317752760
  O   2.47343160273659     -1.01156070723881      1.02794978241199
