15
Coordinates from ORCA-job run
  C   -0.71539300380718     -0.10668582983650      0.36066486521412
  C   0.72052876989709      0.46036881363791      0.51242615277330
  Cl  -1.00141213648680     -1.22240724409020      1.73000657636568
  H   0.80918384531392      0.95992402932373      1.47929833295988
  C   -1.61821483166550      1.03749695216437      0.50331654990063
  N   -2.33266857732958      1.96656942508253      0.59425222756658
  C   -0.98006824622689     -0.82740449983793     -0.95546745504207
  H   -0.34547278773581     -1.70714390327362     -1.04227517524501
  H   -0.78415004008228     -0.15760906359265     -1.79542788048373
  H   -2.02581386089816     -1.13513298633502     -0.98154958576247
  C   1.03491737942017      1.37126681842486     -0.58037600549525
  N   1.26355417361809      2.11652465097837     -1.45929078666231
  N   1.74465839559243     -0.65373984592382      0.53695111708530
  O   2.26873910027925     -0.87654834831706      1.62119425538647
  O   1.96061182011125     -1.22747896840498     -0.52472318856114
