15
Coordinates from ORCA-job run
  C   -0.71129422701879     -0.07519355412104      0.37426063061304
  C   0.73989103819997      0.46052619972269      0.48581957744946
  Cl  -1.00288024407931     -1.13402297899318      1.78760234181894
  H   0.85459628176905      0.98897870778639      1.43441187222521
  C   -1.58414141799118      1.09498735160615      0.48842500249814
  N   -2.27665105372591      2.04266190746478      0.55386590815015
  C   -1.01424828804823     -0.83622176536556     -0.91053335283917
  H   -2.06792037987320     -1.11690834346073     -0.90972020710968
  H   -0.40411940605351     -1.73505039296231     -0.97405582453738
  H   -0.81386733831558     -0.20297656022520     -1.77744321324705
  C   1.06020583689760      1.32724947802394     -0.64072595341764
  N   1.29476933410910      2.03715244660135     -1.54702869731477
  N   1.73733254608973     -0.67685964385183      0.53217220090512
  O   2.27218512472319     -0.87813251035397      1.61520642191430
  O   1.91614219331713     -1.29519034187148     -0.51125670710872
