15
Coordinates from ORCA-job run
  C   -0.71822221026622      0.07758909606912      0.31396153635619
  C   0.80292827108329      0.26404735920605      0.51625572648150
  Cl  -1.45724390725825      0.44774825319613      1.90549339375708
  H   1.12307995951613     -0.37365594058122      1.34230460639843
  C   -1.23750519489306      1.02873936224590     -0.66690171487269
  N   -1.68899895690820      1.75947303607812     -1.46938560953736
  C   -1.06111475920320     -1.35303226777377     -0.08449396270752
  H   -2.14455705930177     -1.47348193678910     -0.08793616413873
  H   -0.62448473105923     -2.05505809026673      0.62780423514678
  H   -0.68381333958566     -1.57077718482174     -1.08552467286360
  C   1.17565160994151      1.65132363700342      0.75114506703328
  N   1.48181171622711      2.76582826946771      0.95992424222530
  N   1.51985174388119     -0.25529347110840     -0.71110772021108
  O   1.50112879000581      0.45994352341158     -1.70566205541869
  O   2.01148806782055     -1.37439364533710     -0.60687690764902
