15
Coordinates from ORCA-job run
  C   -0.70263974299494     -0.06466162327956      0.39270828896751
  C   0.75540211874399      0.45986867297543      0.46234959571095
  Cl  -0.96876470956459     -1.10695821641801      1.82285145380337
  H   0.89880379773470      0.99785437669621      1.40163725909727
  C   -1.56265327933427      1.11409714825064      0.51665921152740
  N   -2.24656433791472      2.06713616875118      0.59275848632494
  C   -1.04271338198726     -0.83534561420170     -0.87698264055129
  H   -0.43995763615083     -1.73862178576990     -0.94727211998454
  H   -0.86002517771087     -0.21125128907834     -1.75431111404520
  H   -2.09780342787162     -1.10898539565779     -0.84780575474989
  C   1.05451779880322      1.30980494759689     -0.68253327413612
  N   1.27300468812876      2.00440142927125     -1.60458106521582
  N   1.74394213876010     -0.68617603812207      0.49735652325300
  O   1.89482644637401     -1.31584600364114     -0.54364607509540
  O   2.29962470498433     -0.88231677737306      1.57081122509382
