14

C	-0.536732	-0.034456	-1.421908
C	0.0	0.0	0.0
F	-0.249194	1.217455	-1.970952
H	1.089799	0.0	0.0
H	0.01205	-0.77576	-2.004109
H	-0.387535	0.864593	0.536724
C	-2.031918	-0.247871	-1.519403
H	-2.304782	-1.246	-1.175844
H	-2.350109	-0.139365	-2.558351
H	-2.557936	0.495961	-0.916215
N	-0.447813	-1.20274	0.736417
O	-0.320956	-2.289171	0.170107
O	-0.914666	-1.054938	1.864419
Br	3.521062	0.0	0.0
