14

C	-0.543239	0.220118	-1.407891
C	0.0	0.0	0.0
F	-0.719555	-1.056859	-1.966702
H	1.088332	0.0	0.0
H	-1.538382	0.673539	-1.367322
H	-0.36929	-0.936041	0.414093
C	0.38694	1.008498	-2.295443
H	-0.015867	1.058015	-3.310453
H	1.372392	0.540766	-2.303784
H	0.496167	2.018149	-1.898887
N	-0.437134	1.071007	0.927053
O	-0.619689	2.198442	0.461419
O	-0.570878	0.778419	2.113542
Br	3.539621	0.0	0.0
