16

C	-0.552054	-0.002187	-1.425935
C	0.0	0.0	0.0
Cl	0.156797	1.394681	-2.318102
H	1.093571	0.0	0.0
H	-0.319197	0.945206	0.454639
C	-0.176603	-1.223299	-2.143535
N	0.068376	-2.233767	-2.689652
C	-2.070681	0.150943	-1.474923
H	-2.353076	1.059616	-0.939933
H	-2.416398	0.226665	-2.506697
H	-2.551706	-0.707935	-1.004152
C	-0.485487	-1.184918	0.832079
H	-0.211051	-2.131697	0.360054
H	0.017033	-1.154522	1.800493
H	-1.564814	-1.179886	1.009106
Cl	3.507127	0.0	0.0
