19

C	0.0	0.0	0.0
C	-0.370039	0.042079	-1.527407
Br	1.967708	0.0	0.0
H	0.50811	-0.319518	-2.064755
C	-0.482073	1.20842	0.782562
H	-1.578501	1.187491	0.74266
H	-0.098854	2.139375	0.369345
H	-0.164265	1.112195	1.82586
N	-0.451494	-1.25378	0.568101
H	-0.199569	-1.257716	1.555293
H	-1.478405	-1.201907	0.5334
N	-0.564557	1.439925	-1.938158
H	-1.496956	1.715136	-1.634313
H	-0.591051	1.449799	-2.950549
C	-1.537194	-0.864588	-1.926117
H	-1.719023	-0.730735	-2.997012
H	-1.292944	-1.913062	-1.749969
H	-2.448766	-0.603677	-1.36726
H	-3.615169	0.0	0.0
