19

C	0.0	0.0	0.0
C	-0.329983	0.009103	-1.543999
Br	1.983055	0.0	0.0
H	0.526649	-0.438084	-2.057737
C	-0.515039	1.220417	0.730829
H	-0.236265	1.143643	1.783468
H	-0.114446	2.134869	0.299395
H	-1.611892	1.201171	0.650635
N	-0.450907	-1.165135	0.715638
H	-1.469613	-1.069271	0.791968
H	-0.259616	-2.000912	0.174602
N	-0.405736	1.401564	-2.012746
H	-1.322276	1.753807	-1.745826
H	-0.398981	1.381769	-3.027172
C	-1.570908	-0.804114	-1.908309
H	-2.451126	-0.485906	-1.325707
H	-1.423518	-1.87675	-1.739401
H	-1.766281	-0.667689	-2.979606
H	-3.659508	0.0	0.0
