19

C	0.0	0.0	0.0
C	-0.489516	0.052711	-1.463165
Br	1.97431	0.0	0.0
H	-1.585347	0.017585	-1.322489
C	-0.433081	1.225477	0.790725
H	-0.151489	1.108412	1.842436
H	0.007494	2.151632	0.416124
H	-1.530294	1.244683	0.711598
N	-0.519989	-1.226134	0.552564
H	-0.312095	-1.249534	1.547444
H	-1.551464	-1.084804	0.469138
N	-0.098674	-1.108808	-2.259159
H	0.917566	-1.118517	-2.310274
H	-0.354304	-1.927413	-1.714697
C	-0.140357	1.325412	-2.214341
H	0.942075	1.484402	-2.265327
H	-0.522121	1.228489	-3.233222
H	-0.603453	2.201972	-1.757585
H	-3.163995	0.0	0.0
