18

C	-0.362573	0.10641	-1.475487
C	0.0	0.0	0.0
F	0.105205	-1.127064	-2.072369
H	1.097821	0.0	0.0
N	-1.773618	0.167059	-1.672684
H	-1.977544	-0.068156	-2.638118
H	-2.136661	-0.58516	-1.094414
N	0.334527	1.189866	-2.070082
H	0.196549	1.184633	-3.073209
H	1.326028	1.062665	-1.87977
N	-0.576455	-1.247817	0.517276
H	-0.810177	-1.119009	1.49428
H	0.136578	-1.967913	0.469778
C	-0.512592	1.192944	0.788055
H	-0.108689	1.159949	1.805528
H	-1.606005	1.183993	0.831456
H	-0.193218	2.121207	0.316699
Br	3.671504	0.0	0.0
