18

C	-0.393579	0.02866	-1.468358
C	0.0	0.0	0.0
F	0.02098	-1.261847	-1.998864
H	1.10224	0.0	0.0
N	-1.803684	0.127101	-1.640674
H	-2.041347	-0.123283	-2.594217
H	-2.203564	-0.570939	-1.021172
N	0.319752	1.047839	-2.145285
H	1.314141	0.904497	-1.97891
H	0.141817	0.996147	-3.142105
N	-0.576828	-1.213751	0.597159
H	-0.066512	-2.001564	0.212622
H	-0.363534	-1.193348	1.588896
C	-0.496716	1.229465	0.738015
H	-0.084049	1.240352	1.751931
H	-1.587891	1.233302	0.793465
H	-0.164272	2.131377	0.224974
Br	3.697838	0.0	0.0
