18

C	-0.331763	-0.012676	-1.495659
C	0.0	0.0	0.0
F	-0.085236	-1.322089	-1.980287
H	1.09831	0.0	0.0
N	-1.749698	0.169907	-1.752597
H	-1.945898	-0.171139	-2.688099
H	-1.935886	1.165462	-1.737668
N	0.497974	0.925858	-2.172443
H	1.462576	0.812198	-1.86076
H	0.455842	0.765219	-3.172648
N	-0.512973	-1.164449	0.707748
H	0.044552	-1.964029	0.430841
H	-1.456655	-1.331549	0.368805
C	-0.503983	1.273013	0.660821
H	-1.59885	1.27631	0.704553
H	-0.123061	1.306882	1.682647
H	-0.159583	2.15997	0.125107
Br	3.67677	0.0	0.0
