18

C	-0.513419	0.023214	-1.437313
C	0.0	0.0	0.0
F	-0.351044	1.322371	-1.94499
H	1.094987	0.0	0.0
N	0.221752	-0.882556	-2.23564
H	0.675981	-1.582149	-1.66931
H	-0.33126	-1.294647	-2.96683
N	-1.972446	-0.164065	-1.458117
H	-2.36605	0.49975	-2.112212
H	-2.182281	-1.103686	-1.760149
N	-0.422885	-1.293616	0.555421
H	-1.375804	-1.210605	0.889199
H	0.176409	-1.504039	1.342811
C	-0.490607	1.20727	0.786935
H	-0.097319	2.130978	0.360817
H	-0.140995	1.13241	1.818784
H	-1.584419	1.251932	0.780666
Br	3.752427	0.0	0.0
