18

C	-0.352059	0.046591	-1.489565
C	0.0	0.0	0.0
F	-1.735023	0.396137	-1.629253
H	1.096142	0.0	0.0
N	0.393949	1.092995	-2.115886
H	1.374562	0.971936	-1.868673
H	0.303722	1.036804	-3.124321
N	-0.166907	-1.233546	-2.108227
H	-0.397343	-1.162284	-3.09312
H	-0.795352	-1.905491	-1.686187
N	-0.457612	-1.197218	0.697758
H	0.1123	-1.988368	0.426565
H	-1.429961	-1.387075	0.479732
C	-0.50626	1.237685	0.722255
H	-0.080175	1.249916	1.72654
H	-1.597572	1.219817	0.801288
H	-0.211678	2.143075	0.191604
Br	3.663529	0.0	0.0
