18

C	-0.401462	-0.059754	-1.474859
C	0.0	0.0	0.0
F	-0.125288	1.207517	-2.039757
H	1.104135	0.0	0.0
N	0.35667	-1.086031	-2.090062
H	1.349322	-0.919629	-1.93902
H	0.139309	-1.117378	-3.077809
N	-1.806461	-0.281722	-1.74806
H	-2.110398	-0.980278	-1.075542
H	-2.292118	0.580198	-1.526226
N	-0.53108	-1.225811	0.628226
H	-0.212344	-1.230932	1.592133
H	-0.060385	-2.004453	0.175295
C	-0.536255	1.219945	0.717694
H	-0.184073	1.224693	1.753494
H	-1.631315	1.213253	0.730941
H	-0.180058	2.131433	0.238716
Br	3.695325	0.0	0.0
