18

C	-0.319938	-0.045074	-1.499494
C	0.0	0.0	0.0
F	-1.675588	-0.493612	-1.668695
H	1.096234	0.0	0.0
N	-0.212475	1.242704	-2.116815
H	-0.923693	1.860516	-1.743124
H	-0.371195	1.148081	-3.114624
N	0.505379	-1.041758	-2.10657
H	0.455521	-0.982075	-3.116734
H	1.46825	-0.878667	-1.817079
N	-0.441117	-1.215134	0.687753
H	-1.348291	-1.472957	0.313625
H	0.196175	-1.959392	0.430747
C	-0.549616	1.22759	0.702385
H	-0.321827	1.139593	1.764802
H	-1.639607	1.289362	0.59351
H	-0.090835	2.143312	0.324964
Br	3.65865	0.0	0.0
