14

C	-0.399114	0.048216	-1.458144
C	0.0	0.0	0.0
F	-1.746942	0.163192	-1.651088
H	1.096299	0.0	0.0
C	0.271546	1.140168	-2.17237
N	0.711297	2.047865	-2.774002
N	0.022393	-1.27456	-2.120111
O	-0.83966	-2.140698	-2.174962
O	1.180633	-1.342648	-2.501371
C	-0.506919	-1.184379	0.665854
N	-0.903915	-2.152968	1.201797
C	-0.445739	1.212548	0.661827
N	-0.775129	2.205264	1.199138
F	2.400258	0.0	0.0
