14

C	-0.323471	-0.005322	-1.47882
C	0.0	0.0	0.0
F	0.230397	1.071029	-2.074217
H	1.098215	0.0	0.0
C	0.107968	-1.238421	-2.145242
N	0.450421	-2.226756	-2.679434
N	-1.848555	0.11437	-1.703441
O	-2.281163	1.212602	-2.021304
O	-2.492814	-0.903434	-1.478487
C	-0.464788	-1.188232	0.684236
N	-0.787555	-2.154257	1.272366
C	-0.480646	1.217355	0.624619
N	-0.840312	2.210745	1.141502
F	2.396915	0.0	0.0
