14

C	0.0	0.0	0.0
C	-0.544465	0.130393	-1.413233
F	1.37683	0.0	0.0
H	0.253797	-0.224871	-2.070173
H	-1.412657	-0.522933	-1.497385
C	-0.429253	1.034724	0.945278
N	-0.578156	1.910867	1.712931
N	-0.317423	-1.380802	0.578496
O	-0.251118	-2.308187	-0.221104
O	-0.472209	-1.472654	1.788746
N	-0.845205	1.531904	-1.681531
H	-0.916694	1.654316	-2.684546
H	-1.779575	1.681459	-1.301175
Br	-3.527283	0.0	0.0
