14

C	0.0	0.0	0.0
C	-0.454629	0.385053	-1.424531
F	1.364044	0.0	0.0
H	0.281549	-0.110101	-2.064712
H	-0.284582	1.464677	-1.499433
C	-0.47333	0.878988	1.069176
N	-0.745171	1.67984	1.884032
N	-0.387574	-1.441484	0.307082
O	-0.864019	-1.696468	1.406119
O	-0.119437	-2.242047	-0.583401
N	-1.772813	0.05588	-1.863893
H	-2.529457	0.404253	-1.27271
H	-1.898592	-0.945739	-1.914519
Br	-4.524285	0.0	0.0
