14

C	0.0	0.0	0.0
C	-0.495015	-0.085271	-1.441968
F	1.35748	0.0	0.0
H	-1.573263	-0.256555	-1.39615
H	-0.336244	0.912232	-1.865109
C	-0.449702	1.198349	0.716378
N	-0.601407	2.229568	1.257584
N	-0.35891	-1.229808	0.844442
O	-0.689323	-2.256799	0.263632
O	-0.17346	-1.106847	2.050879
N	0.176531	-1.073395	-2.267808
H	1.179431	-1.003072	-2.14843
H	-0.110498	-1.993123	-1.961763
Br	-3.617603	0.0	0.0
