14

C	0.0	0.0	0.0
C	-0.451848	0.13601	-1.46332
F	1.364077	0.0	0.0
H	0.174061	-0.578481	-2.004812
H	-0.129142	1.140854	-1.756262
C	-0.47926	1.063234	0.883997
N	-0.75751	1.997803	1.538895
N	-0.379878	-1.355759	0.588477
O	-0.410902	-2.291759	-0.204615
O	-0.514031	-1.420341	1.805521
N	-1.823533	-0.062113	-1.80611
H	-2.126541	-1.005154	-1.608211
H	-2.486874	0.529346	-1.312
Br	-4.609448	0.0	0.0
