14

C	0.0	0.0	0.0
C	-0.431741	0.076281	-1.473473
F	1.361112	0.0	0.0
H	-0.085062	1.063718	-1.802003
H	0.19844	-0.666356	-1.970652
C	-0.4735	1.102354	0.837764
N	-0.737562	2.080018	1.432724
N	-0.383114	-1.32725	0.648434
O	-0.454202	-2.293855	-0.101857
O	-0.485766	-1.337676	1.87011
N	-1.797297	-0.120705	-1.838355
H	-2.096498	-1.06545	-1.636943
H	-2.461574	0.466087	-1.338339
Br	-4.516897	0.0	0.0
