14

C	0.0	0.0	0.0
C	-0.264152	-0.072506	-1.521378
Br	1.914505	0.0	0.0
H	0.281139	0.773909	-1.939849
H	0.252877	-0.974636	-1.852284
N	-0.437112	1.322685	0.621715
O	-0.484249	1.411068	1.835167
O	-0.568886	2.231699	-0.186041
N	-0.434643	-1.258884	0.747931
O	-0.569921	-2.243379	0.035023
O	-0.475352	-1.225784	1.964459
C	-1.570151	-0.078527	-2.184996
N	-2.25022	-0.086748	-3.149281
Cl	-3.001456	0.0	0.0
