15

C	0.0	0.0	0.0
C	-0.526249	0.27543	-1.411504
Br	1.912441	0.0	0.0
H	-1.601845	0.445921	-1.263228
H	-0.340097	0.798311	0.67342
N	-0.618281	-1.22863	0.534669
O	-1.777191	-1.424816	-0.050117
O	-0.398538	-1.447503	1.747555
N	-0.311889	-0.720742	-2.412027
H	0.662939	-0.998328	-2.426202
H	-0.876619	-1.505867	-2.109079
N	0.040745	1.592472	-1.862099
O	0.810555	1.60985	-2.818715
O	-0.294293	2.582421	-1.208725
H	-2.848259	0.0	0.0
