15

C	0.0	0.0	0.0
C	-0.292759	0.219559	-1.533319
Br	1.916815	0.0	0.0
H	0.238354	1.137468	-1.791124
H	-0.372998	0.888005	0.533278
N	-0.637801	-1.13218	0.64935
O	-1.795587	-1.379325	0.093991
O	-0.389674	-1.274152	1.871146
N	-1.612498	0.285979	-2.075064
H	-2.162653	-0.42174	-1.593532
H	-2.02754	1.166419	-1.795562
N	0.419092	-0.832039	-2.355882
O	1.09385	-0.434681	-3.305635
O	0.226448	-2.006316	-2.063519
H	-2.95777	0.0	0.0
