10
Coordinates from ORCA-job run
  C   -1.07606233448522     -0.33907571374145      0.13048797986683
  C   0.11985217357687      0.58377869073106     -0.00857750154082
  F   -2.18572965592008      0.46420728382151      0.34131532207760
  H   0.24636925855448      1.21185379955787      0.87031602768503
  H   -0.96068588319611     -1.00358730082458      0.98883654572035
  H   -1.23359228008596     -0.92479775926884     -0.77258850696259
  H   0.02355109340853      1.20880766542857     -0.89774885163383
  N   1.37448279175716     -0.20488931661395     -0.16804572588133
  O   1.30644394380081     -1.21543293166182     -0.86661765077236
  O   2.38537089258952      0.21913558257163      0.38262236144111
