11
Coordinates from ORCA-job run
  C   -0.48032016216480      0.37541812613786     -0.07874497628410
  C   0.77587233407635     -0.47246296692990      0.10359990984660
  Br  -0.10000645749012      1.85924321744580     -1.28445384280614
  H   0.51719946744409     -1.36140008063109      0.69094445344136
  H   -0.75078805480124      0.86020669336148      0.86598794031641
  H   1.11627659209282     -0.81079782640673     -0.87745895817301
  N   -1.50801125270807     -0.44756888716145     -0.67442228852561
  H   -2.32516311169771      0.10988225110535     -0.89114773707625
  H   -1.78405347886448     -1.16862908590253     -0.01560766982069
  C   1.84554136986581      0.24223341444973      0.79404374135492
  N   2.69445275424735      0.81387514453147      1.36725942772651
