11
Coordinates from ORCA-job run
  C   -0.58058947607391      0.46862535672452      0.08746402411547
  C   0.94540757822734      0.40206033648040      0.12949887752272
  Br  -1.09359539553418      2.26151980764880     -0.50087743111450
  H   1.34269602769792      1.17650828040982      0.78878316474482
  H   -0.98530538899624      0.39873889353167      1.10348132835673
  H   1.33055365341076      0.56961539402180     -0.87920246701446
  N   -1.08911460207514     -0.49121143969626     -0.85628048137303
  H   -2.10061343092082     -0.46082399624690     -0.88598909083750
  H   -0.80457617227899     -1.42610737801243     -0.58164232695485
  C   1.37337445402956     -0.91336522040494      0.60656486890753
  N   1.66076275251369     -1.98556003445649      0.98819953364705
