11
Coordinates from ORCA-job run
  C   -0.60292157090751      0.48411256893267      0.02353519233108
  C   0.63431273910533      0.02680708070022      0.78963538651088
  Br  -0.17705895988781      2.07143565111291     -1.03369534233295
  H   0.34775757463566     -0.79955690155018      1.45193628882377
  H   -1.34405995381568      0.84365890234729      0.74738922316435
  H   0.99924511479495      0.83881657160468      1.42269779275772
  N   -1.04839682196251     -0.55480952041563     -0.86463586399183
  H   -1.88888559690897     -0.27925290181591     -1.35632763700107
  H   -1.23500472640753     -1.40469299390543     -0.34385228192529
  C   1.71231727456381     -0.42745527286694     -0.08600749550804
  N   2.60269492679026     -0.80106318414367     -0.75167526282862
