11
Coordinates from ORCA-job run
  C   -0.64235702541899      0.47389906636065      0.18132843867883
  C   0.89244946869724      0.41995700428592      0.07576845263822
  Br  -1.18150536185030      2.26902747635908     -0.39721703609382
  H   1.19484045717473      0.58778641281920     -0.96183480733403
  H   -0.93956010005641      0.40559464845632      1.22881414427846
  H   1.35301424661877      1.19947892205316      0.68753394860857
  N   -1.36522212423931     -0.50820705709086     -0.56315102968733
  H   -1.30011181418481     -1.41672745914637     -0.12113372867185
  H   -1.04381913063687     -0.56915993783848     -1.52102272088357
  C   1.35879521747438     -0.89518071939042      0.51424446356481
  N   1.67247616642156     -1.96646835686820      0.87666987490172
