11
Coordinates from ORCA-job run
  C   -0.63768007357273      0.31280528784367      0.24471177649244
  C   0.88273142726315      0.38825453957847      0.37806970332361
  Br  -1.35878457341690      2.11201259093623      0.50344201381317
  H   1.27000548031759      1.04508499390790     -0.40456812995568
  H   -1.05755311263412     -0.26160377035800      1.07812720983896
  H   1.15970489033276      0.80125902615572      1.35018841185777
  N   -0.99423093550207     -0.14340188545029     -1.07242026802083
  H   -0.60017147734318     -1.06461797687378     -1.23498101044319
  H   -2.00017327640218     -0.20431831279594     -1.16876604459163
  C   1.46209089768100     -0.94716720718725      0.23017662320862
  N   1.87406075327666     -2.03830728575673      0.09801971447677
