11
Coordinates from ORCA-job run
  C   -0.46217019645448      0.35803628706096     -0.19121484865332
  C   0.75068466393395     -0.45102436566649      0.26088804616734
  Br  0.05702679351624      1.57204028450570     -1.62515868267907
  H   1.15998420537979     -0.98113134176628     -0.60189364511883
  H   -0.79679605869716      1.02150619547857      0.61410523762333
  H   0.42014494519882     -1.20274368732143      0.98738164188121
  N   -1.45896924113744     -0.55514511849430     -0.70205637194969
  H   -2.24001835818321     -0.04251255793436     -1.09279037342123
  H   -1.80791526304529     -1.13001516118402      0.05814813169915
  C   1.78101611755330      0.37354726568622      0.88567387197003
  N   2.59701239193548      1.03644219963543      1.40591699248108
