15

C	0.0	0.0	0.0
C	-0.410712	0.346265	-1.457039
Cl	1.76256	0.0	0.0
H	0.494986	0.730401	-1.936666
H	-0.39028	-0.950622	0.348528
N	-0.376142	1.017752	1.044375
O	-0.343065	2.196442	0.713296
O	-0.565937	0.580245	2.172259
C	-1.372876	1.426735	-1.691739
N	-1.92185	2.376054	-2.116765
C	-0.804054	-0.946192	-2.178182
H	0.002847	-1.680927	-2.084104
H	-1.725632	-1.324379	-1.737614
H	-0.962249	-0.743737	-3.239363
Cl	-3.146648	0.0	0.0
