15

C	0.0	0.0	0.0
C	-0.415306	0.267268	-1.471804
Cl	1.762571	0.0	0.0
H	0.489307	0.620394	-1.975462
H	-0.394532	-0.928924	0.396758
N	-0.375227	1.070369	0.99311
O	-0.554561	0.6875	2.141626
O	-0.34993	2.230416	0.603416
C	-1.376232	1.336967	-1.760266
N	-1.9117	2.262366	-2.249404
C	-0.813785	-1.061127	-2.1209
H	-0.999372	-0.914166	-3.187539
H	-0.00139	-1.78638	-2.005836
H	-1.72245	-1.426917	-1.643171
Cl	-3.148539	0.0	0.0
