15

C	0.0	0.0	0.0
C	-0.404802	0.286067	-1.47158
Cl	1.762532	0.0	0.0
H	0.498799	0.665345	-1.958653
H	-0.391814	-0.932512	0.390474
N	-0.373003	1.066482	0.996915
O	-0.53499	0.684947	2.148501
O	-0.361745	2.226445	0.605608
C	-1.380079	1.343499	-1.761616
N	-1.910109	2.251501	-2.289476
C	-0.780311	-1.032932	-2.149216
H	0.030072	-1.758676	-2.027047
H	-0.938841	-0.867839	-3.217037
H	-1.699949	-1.404349	-1.700485
Cl	-3.097802	0.0	0.0
