15

C	0.0	0.0	0.0
C	-0.404153	0.468843	-1.424705
Cl	1.762453	0.0	0.0
H	0.503209	0.894308	-1.863998
H	-0.394996	-0.973867	0.267727
N	-0.37648	0.932402	1.123275
O	-0.362402	2.132802	0.878615
O	-0.544074	0.411303	2.218095
C	-1.370561	1.560557	-1.582014
N	-1.914139	2.521003	-1.988143
C	-0.79137	-0.752313	-2.262227
H	0.003448	-1.502746	-2.222804
H	-1.721776	-1.16062	-1.870699
H	-0.93496	-0.455782	-3.303783
Cl	-3.104395	0.0	0.0
