15

C	0.0	0.0	0.0
C	-0.399928	0.198459	-1.487156
Cl	1.762543	0.0	0.0
H	0.505941	0.542658	-1.996279
H	-0.401356	-0.906006	0.438957
N	-0.371567	1.123678	0.934464
O	-0.359427	2.258928	0.476518
O	-0.531733	0.80837	2.105882
C	-1.369168	1.240774	-1.84724
N	-1.889108	2.129728	-2.415466
C	-0.785181	-1.157282	-2.083168
H	-0.896526	-1.067405	-3.165491
H	-0.002164	-1.893377	-1.876667
H	-1.7303	-1.469846	-1.644458
Cl	-3.083995	0.0	0.0
