15

C	0.0	0.0	0.0
C	-0.593363	-0.285259	-1.372622
Cl	1.754288	0.0	0.0
H	-0.348747	-1.336937	-1.571428
H	-0.356083	-0.723479	0.730436
N	-0.436077	1.345415	0.529908
O	-0.737879	1.384278	1.717164
O	-0.416335	2.283896	-0.255019
C	0.047544	0.487817	-2.439686
N	0.568841	1.026344	-3.34326
C	-2.115393	-0.110128	-1.364084
H	-2.596402	-0.614408	-0.526602
H	-2.546684	-0.519492	-2.276792
H	-2.403441	0.936152	-1.300634
Cl	-5.130296	0.0	0.0
