16
Coordinates from ORCA-job run
  C   -0.64667364977243      0.43842785009643      0.03659225069045
  C   0.62020983862755     -0.44770759622082     -0.05755551245194
  Cl  -0.28038686600800      1.91946749807486      0.98151254355119
  H   0.32202614156697     -1.32528965018080     -0.64660041003300
  C   -1.80890983334051     -0.29007601930757      0.70271819111372
  H   -1.53864774553086     -0.55714932635004      1.72523516611187
  H   -2.04670817076582     -1.19735557712618      0.14103490081936
  H   -2.68944044941977      0.35259455575370      0.72582428835103
  C   -1.02001463681992      0.84484750291682     -1.31985545703916
  N   -1.32584625490710      1.12419349375516     -2.41957596078602
  C   0.98543008349723     -0.92595405046616      1.27726478726176
  N   1.29594646155590     -1.31381508315887      2.34124490648953
  C   1.81128078336707      0.22528951023006     -0.74288328784396
  H   1.53324483659755      0.55299652921009     -1.74624967842223
  H   2.15405264190234      1.08552048187912     -0.16861181272658
  H   2.63443681944980     -0.48599011910580     -0.82709491508602
