16
Coordinates from ORCA-job run
  C   -0.64135252976690      0.56308677711353      0.29833283171620
  C   0.76907594217642     -0.04344947441332      0.48399415627437
  Cl  -0.95084348584254      1.66972506591708      1.67894529914452
  H   0.76270373752045     -0.53250748059606      1.46536474360618
  C   -1.73078815108050     -0.50431157393904      0.28557335643896
  H   -1.65261116524188     -1.11744139597702      1.18611063396267
  H   -1.63970546170860     -1.13663100316416     -0.59877375031132
  H   -2.71132212742044     -0.02789595036404      0.26995703433587
  C   -0.68666060242851      1.34603291719032     -0.93721835245289
  N   -0.72654515219791      1.92416325724671     -1.95964326169077
  C   1.77759383387652      1.01862321015440      0.52372589947918
  N   2.61337732824598      1.84331345449456      0.52291236114531
  C   1.12861882786992     -1.06054415760219     -0.60486709633843
  H   1.05367595669894     -0.61014925723973     -1.59698232950268
  H   2.15655904841141     -1.39764954980749     -0.46311562107528
  H   0.47722400088765     -1.93336483901354     -0.55531590473191
