16
Coordinates from ORCA-job run
  C   -0.65313279264556      0.42762242673431     -0.04280254320162
  C   0.62534886190712     -0.44402851119664      0.02892732971606
  Cl  -0.23874120021829      2.13899487795143      0.30459339373726
  H   0.29615224159331     -1.46774627295554     -0.19381304146737
  C   -1.71552948658162     -0.02827316079049      0.95147321025759
  H   -1.98075874879269     -1.07086320108257      0.75663604923369
  H   -2.60940928797268      0.58834819207806      0.85307780784592
  H   -1.33198963299579      0.06418609422391      1.96849332762506
  C   -1.17835438365138      0.35523767060362     -1.40779674159311
  N   -1.60584348316670      0.24955407626049     -2.49731142928148
  C   1.14302299434285     -0.44360450363179      1.39859197060177
  N   1.57438459817323     -0.44918182584214      2.49073077120982
  C   1.71563265810133     -0.04781284544268     -0.96876702932391
  H   1.32394137008747     -0.07835067470629     -1.98711800984097
  H   2.08750330806723      0.95472170283812     -0.75929553507573
  H   2.54877298375217     -0.74880404504182     -0.89761953044298
