16
Coordinates from ORCA-job run
  C   -0.60550466054778      0.49368450825498     -0.01971186708079
  C   0.57998802047736     -0.50280620018583     -0.00195782975421
  Cl  -0.16119192822378      1.97804444847565      0.88627182706479
  H   0.23753668262157     -1.37824960962183     -0.56969649496958
  C   -1.86413880525882     -0.09958617991274      0.60397432313452
  H   -2.68324801972188      0.61792494190035      0.54845721393978
  H   -2.15057977110084     -1.00705993731536      0.06579036304404
  H   -1.67695528813004     -0.34276005611162      1.65073782150730
  C   -0.86386418226735      0.87135863514004     -1.41082721647763
  N   -1.08105669258465      1.13101557846220     -2.53609191778354
  C   0.82661730913617     -0.94705879037272      1.37136632980387
  N   1.03881580123455     -1.31176217312809      2.46720996288361
  C   1.86239865876155      0.03086285682138     -0.64366911746181
  H   1.67072672846522      0.33262263158220     -1.67499309338844
  H   2.62231106623920     -0.75215302162874     -0.64810268570317
  H   2.24814508089950      0.88492236764014     -0.08775761875871
