13

C	-0.225062	0.139165	-1.491583
C	0.0	0.0	0.0
F	-1.459269	0.77325	-1.806042
H	1.099	0.0	0.0
H	-0.338035	-0.860336	-1.932808
H	-0.357484	0.914894	0.486069
N	0.857206	0.913509	-2.02385
H	1.032801	0.674385	-2.989647
H	1.701862	0.714738	-1.465355
N	-0.578799	-1.226576	0.568033
H	-1.24794	-0.98874	1.287801
H	0.177374	-1.722819	1.024902
F	2.775062	0.0	0.0
