13

C	-0.215891	-0.055923	-1.508716
C	0.0	0.0	0.0
F	-0.259678	1.273781	-1.986406
H	1.103376	0.0	0.0
H	-1.165847	-0.502878	-1.83155
H	-0.347961	-0.956104	0.414039
N	0.89597	-0.709835	-2.14638
H	0.734597	-1.705927	-2.165053
H	1.731841	-0.530422	-1.563337
N	-0.708651	1.106237	0.662677
H	-0.428677	1.941522	0.161949
H	-0.293568	1.197885	1.584276
F	2.804999	0.0	0.0
