13

C	-0.603144	-0.091673	-1.365514
C	0.0	0.0	0.0
F	-2.044791	-0.149634	-1.221417
H	1.091758	0.0	0.0
H	-0.352544	-1.040534	-1.841489
H	-0.350207	0.95018	0.444174
N	-0.25941	0.999259	-2.209725
H	-0.8889	1.029086	-3.000036
H	-0.337536	1.865988	-1.69354
N	-0.404734	-1.174782	0.78628
H	-1.250498	-0.991134	1.312219
H	0.354357	-1.357743	1.433615
F	2.724964	0.0	0.0
