13

C	-0.253476	-0.100068	-1.499472
C	0.0	0.0	0.0
F	-0.376156	1.205391	-2.016188
H	1.094181	0.0	0.0
H	-1.193087	-0.614636	-1.741238
H	-0.44975	0.899356	0.434817
N	0.845316	-0.749339	-2.167913
H	1.692205	-0.5338	-1.61757
H	0.698206	-1.748507	-2.095898
N	-0.420905	-1.262868	0.639059
H	0.339688	-1.557514	1.239242
H	-1.231511	-1.113727	1.227035
F	2.763385	0.0	0.0
