13

C	-0.144986	-0.059979	-1.502483
C	0.0	0.0	0.0
F	-1.46278	0.226136	-1.951998
H	1.094086	0.0	0.0
H	0.020905	-1.098745	-1.839739
H	-0.388826	0.960126	0.354493
N	0.776455	0.886168	-2.064206
H	0.952763	0.667578	-3.036799
H	1.652952	0.755722	-1.53466
N	-0.573254	-1.117994	0.747601
H	0.11945	-1.855707	0.777418
H	-1.385388	-1.476486	0.254427
F	2.755425	0.0	0.0
