13

C	-0.465864	-0.003707	-1.429074
C	0.0	0.0	0.0
F	-1.870367	-0.390007	-1.480976
H	1.092136	0.0	0.0
H	0.033539	-0.790762	-2.000818
H	-0.402848	0.894973	0.497908
N	-0.297157	1.247505	-2.072064
H	-0.664972	1.987262	-1.487072
H	-0.772863	1.255508	-2.964821
N	-0.409185	-1.204927	0.734659
H	-1.228378	-1.616581	0.307347
H	0.359166	-1.861802	0.666206
F	2.719591	0.0	0.0
