13

C	-0.440261	0.008238	-1.441445
C	0.0	0.0	0.0
F	-0.131673	-1.244736	-2.021259
H	1.092009	0.0	0.0
H	0.12873	0.749185	-2.011737
H	-0.41698	-0.897091	0.480584
N	-1.845024	0.274624	-1.598346
H	-2.101033	0.191478	-2.575544
H	-2.356423	-0.431364	-1.079087
N	-0.413672	1.223376	0.708254
H	0.398623	1.827387	0.721569
H	-1.154181	1.690638	0.200911
F	2.731411	0.0	0.0
