13
Coordinates from ORCA-job run
  C   1.22851586284027     -0.44541921983938     -0.38521523443648
  C   0.03808565504267      0.05367454619522      0.40183276782092
  Br  2.82072406443353      0.60088265477159     -0.01810126225144
  H   0.27592398341995      0.13724380778423      1.46251666267663
  H   1.45091773684432     -1.47505081091238     -0.10618486936784
  H   1.03529367428578     -0.37848529110740     -1.45440714719324
  C   -1.19291258553975     -0.80969279220300      0.16816470776544
  H   -2.04959361179517     -0.40148097477961      0.70822743783939
  H   -1.43343566786015     -0.84985118920054     -0.89535291108996
  H   -1.01092738677502     -1.82310703236542      0.53115091658913
  N   -0.29279125835035      1.45418550870560     -0.02953054222987
  O   -0.44794674818608      2.29295134135549      0.85325159130960
  O   -0.42285371836001      1.64314945159560     -1.23635211743230
