13
Coordinates from ORCA-job run
  C   1.34691055873779     -0.18010720703566     -0.21671087621200
  C   -0.02847598483408      0.07229434350516      0.38139375188295
  Br  2.01565205423089     -1.92130013069409      0.32509979925546
  H   0.03596246123357      0.01747118149268      1.47317141731203
  H   1.30662264101560     -0.17044799126592     -1.30632697827959
  H   2.06775583360878      0.55263609212977      0.13076988698976
  C   -1.12093492601009     -0.83733639170797     -0.14201985160783
  H   -0.86890495876084     -1.87382892763053      0.08021509895257
  H   -1.22302383131002     -0.72539692354186     -1.22397091775405
  H   -2.07675461467050     -0.59973106307851      0.31956632726970
  N   -0.39513262940074      1.52499440458211      0.11006487408670
  O   0.52660814563003      2.33298192142753      0.01754875427345
  O   -1.58728474947040      1.80577069181729      0.05019871383087
