13
Coordinates from ORCA-job run
  C   1.30055448712100     -0.38151810108408     -0.13530691277982
  C   -0.05555778047386      0.01505679107584      0.40280374133937
  Br  2.72600053143394      0.65353369433329      0.67814414948713
  H   -0.06496396149226     -0.00232104719214      1.49285884758766
  H   1.49600761950480     -1.42902393386363      0.09272757154533
  H   1.35034730011940     -0.21410554621049     -1.20974597419247
  C   -1.16624666767187     -0.84518388770894     -0.18184576818132
  H   -1.16091954273538     -0.78484450249929     -1.27128866704905
  H   -2.13798263036237     -0.50881157183984      0.18528288840905
  H   -1.02845035783030     -1.88568207931280      0.11845485361293
  N   -0.33799223234474      1.44423662894441      0.03781829518609
  O   -0.20233563835612      1.74901021164959     -1.14455537006076
  O   -0.71946112691223      2.18965334370808      0.93565234509585
