13
Coordinates from ORCA-job run
  C   1.37594837640541     -0.30378473501873     -0.10304308433295
  C   0.00363277313962      0.08185032770091      0.42852955958609
  Br  1.45050227763003     -0.86303256833777     -1.95976007850606
  H   0.08101036781988      0.11126506592548      1.51837071399145
  H   1.73658314333062     -1.15387668640075      0.47655967821637
  H   2.07904451445762      0.52186409774201      0.00757886664610
  C   -1.14575591779056     -0.81416535371898      0.00595189719969
  H   -1.30554532808412     -0.74754300058569     -1.06948477029538
  H   -0.91957406855618     -1.85163640179199      0.26050674734873
  H   -2.05833167908196     -0.51716592532584      0.52635342437362
  N   -0.33689055619967      1.49678251145046      0.05973020191741
  O   -0.71443979073770      2.23088463544375      0.97177558760239
  O   -0.24618411233299      1.80855803291714     -1.12406874374747
