16

C	0.0	0.0	0.0
C	-0.538972	0.233874	-1.411466
Br	1.974959	0.0	0.0
H	-0.097644	-0.508337	-2.084154
H	-1.620403	0.045092	-1.247914
C	-0.522584	1.009722	1.008207
H	-1.619973	0.91797	0.885513
H	-0.203374	0.744108	2.018392
H	-0.153821	2.009421	0.770793
C	-0.357022	-1.358679	0.426104
N	-0.554189	-2.462094	0.780004
C	-0.317669	1.648568	-1.929832
H	0.72142	1.976624	-1.828849
H	-0.963804	2.349789	-1.398906
H	-0.585201	1.699706	-2.989524
F	-2.886781	0.0	0.0
