17

C	0.0	0.0	0.0
C	-0.683957	-0.003557	-1.335883
Cl	1.790955	0.0	0.0
H	-1.816661	0.086392	-0.937773
H	-0.278475	0.929947	0.492152
C	-0.452731	-1.176042	0.850422
H	-0.09231	-1.056183	1.875132
H	-0.062713	-2.118666	0.460187
H	-1.547588	-1.17454	0.843988
C	-0.51618	-1.234543	-2.192572
H	-1.070052	-1.119553	-3.122687
H	0.534178	-1.427158	-2.435428
H	-0.926316	-2.096363	-1.661192
N	-0.393694	1.22692	-2.075992
O	-0.380086	1.193295	-3.317378
O	-0.259053	2.274857	-1.427405
H	-2.991547	0.0	0.0
