17

C	0.0	0.0	0.0
C	-0.368505	0.003578	-1.493996
Cl	1.792965	0.0	0.0
H	0.209044	0.801819	-1.962487
H	-0.291121	0.987602	0.366202
C	-0.614582	-1.05905	0.883078
H	-0.295436	-0.898226	1.915915
H	-1.706477	-0.950383	0.830546
H	-0.328889	-2.060962	0.56946
C	-1.838773	0.154129	-1.821761
H	-1.969481	0.088409	-2.907466
H	-2.501127	-0.544288	-1.307547
H	-2.195494	1.127276	-1.482919
N	0.157775	-1.222749	-2.181075
O	-0.246486	-2.319607	-1.800507
O	0.934889	-1.052362	-3.122658
H	-4.116281	0.0	0.0
