17

C	0.0	0.0	0.0
C	-0.627976	0.026205	-1.370549
Cl	1.791121	0.0	0.0
H	-1.729722	0.146595	-1.081368
H	-0.286347	0.928638	0.493014
C	-0.497959	-1.176762	0.814261
H	-1.597296	-1.131352	0.77957
H	-0.155015	-1.0882	1.848317
H	-0.127788	-2.123317	0.409926
C	-0.417467	-1.197866	-2.230079
H	-0.888839	-1.060825	-3.202476
H	0.643672	-1.408843	-2.391329
H	-0.892755	-2.053038	-1.744418
N	-0.224573	1.266976	-2.079669
O	-0.319109	2.3287	-1.460081
O	0.146586	1.194196	-3.256774
H	-3.129478	0.0	0.0
