18

C	0.0	0.0	0.0
C	-0.416164	-0.017991	-1.514234
Br	1.966032	0.0	0.0
H	0.145785	-0.831923	-1.988196
C	-0.363194	1.318836	0.758946
H	-0.037797	1.24104	1.795615
H	0.080403	2.180833	0.266445
H	-1.440684	1.446224	0.771792
C	-0.35157	-1.329872	0.742475
H	0.089365	-1.333774	1.737102
H	-0.012336	-2.187336	0.159032
H	-1.426768	-1.415339	0.850929
N	-0.020877	1.227652	-2.175473
H	-0.018995	1.065049	-3.176237
H	-0.73966	1.922841	-1.998507
C	-1.922102	-0.315423	-1.801585
N	-3.080934	-0.466581	-2.057965
F	-2.079952	0.0	0.0
