18

C	0.0	0.0	0.0
C	-0.306472	-0.03356	-1.539861
Br	1.969407	0.0	0.0
H	0.447108	0.611048	-2.012308
C	-0.516513	1.300252	0.589791
H	-1.60995	1.220421	0.565302
H	-0.187894	2.163202	0.006617
H	-0.169094	1.407874	1.621466
C	-0.576062	-1.184991	0.741927
H	-1.666261	-1.089285	0.615249
H	-0.326626	-1.123479	1.805074
H	-0.213783	-2.135934	0.346817
N	-1.620703	0.470034	-1.880405
H	-2.358649	0.213819	-1.157598
H	-1.889037	0.104267	-2.786349
C	-0.037437	-1.394739	-2.063852
N	0.132355	-2.449849	-2.55512
F	-3.268634	0.0	0.0
