18

C	0.0	0.0	0.0
C	-0.571998	0.008869	-1.416097
Br	1.974387	0.0	0.0
H	-1.671226	-0.008867	-1.170778
C	-0.481047	1.23638	0.740709
H	-1.57785	1.154434	0.696648
H	-0.12936	2.158263	0.270128
H	-0.130674	1.214944	1.77618
C	-0.476981	-1.254394	0.71446
H	-1.5728	-1.167923	0.684301
H	-0.141122	-2.153553	0.198525
H	-0.112363	-1.260943	1.745603
N	-0.194199	-1.177923	-2.181522
H	-0.779081	-1.233281	-3.007123
H	0.7698	-1.086133	-2.486692
C	-0.250647	1.253917	-2.134438
N	-0.011483	2.206534	-2.782346
F	-2.982864	0.0	0.0
