18

C	0.0	0.0	0.0
C	-0.289355	0.074941	-1.546046
Br	1.969433	0.0	0.0
H	0.452185	0.778311	-1.950874
C	-0.531839	1.247242	0.67754
H	-0.193756	1.283248	1.717522
H	-0.207467	2.15413	0.162243
H	-1.624912	1.154629	0.639684
C	-0.567016	-1.244605	0.645935
H	-0.193475	-2.15714	0.177295
H	-1.657853	-1.149203	0.526851
H	-0.317554	-1.265893	1.710813
N	-1.618255	0.548681	-1.885764
H	-2.339838	0.296703	-1.148851
H	-1.898202	0.144799	-2.770861
C	0.02993	-1.232846	-2.166916
N	0.223216	-2.244098	-2.736111
F	-3.242219	0.0	0.0
