18

C	0.0	0.0	0.0
C	-0.366408	-0.080687	-1.500241
Br	1.979453	0.0	0.0
H	0.172123	-0.967211	-1.876238
C	-0.477196	1.271655	0.666812
H	-1.57166	1.18599	0.623806
H	-0.125925	1.307571	1.702834
H	-0.127326	2.151663	0.127743
C	-0.470789	-1.242978	0.726578
H	-0.136468	-2.152867	0.217493
H	-1.566556	-1.151827	0.709463
H	-0.08942	-1.254901	1.751713
N	0.038883	1.140861	-2.213126
H	1.051758	1.159584	-2.255065
H	-0.31589	1.075202	-3.16032
C	-1.782304	-0.336201	-1.88116
N	-2.532719	-0.617435	-2.751351
F	-2.857678	0.0	0.0
