14

C	-0.466004	-0.021929	-1.430138
C	0.0	0.0	0.0
Cl	-0.168337	1.566773	-2.200073
H	1.090775	0.0	0.0
H	-0.347319	-0.912462	0.494992
H	-0.387839	0.863587	0.535974
C	0.201437	-1.104082	-2.240274
H	-0.0658	-2.078423	-1.826645
H	1.278508	-0.968038	-2.138628
H	-0.095095	-1.066958	-3.286182
N	-1.991308	-0.185615	-1.483556
O	-2.645539	0.335364	-0.585562
O	-2.471052	-0.810191	-2.42669
Cl	3.480215	0.0	0.0
