14

C	-0.468446	-0.014554	-1.430174
C	0.0	0.0	0.0
Cl	-0.153296	1.569035	-2.209402
H	1.09076	0.0	0.0
H	-0.349497	-0.911285	0.49559
H	-0.384225	0.865262	0.53624
C	0.176797	-1.113928	-2.242131
H	1.259956	-0.993283	-2.152187
H	-0.130851	-1.074348	-3.285215
H	-0.10621	-2.084299	-1.823539
N	-1.997539	-0.14647	-1.490472
O	-2.64582	0.391789	-0.596923
O	-2.484634	-0.756323	-2.441332
Cl	3.515197	0.0	0.0
