16

C	-0.566458	0.065463	-1.483546
C	-0.024688	-0.130192	-0.073933
F	-1.898181	0.388461	-1.427962
H	1.008368	-0.471774	-0.142709
H	-0.62782	-0.922584	0.389142
C	0.167825	1.098563	-2.291943
H	-0.289363	1.196895	-3.279603
H	1.218135	0.828489	-2.386594
H	0.090525	2.037341	-1.745229
N	-0.497745	-1.27901	-2.192711
O	0.626724	-1.669145	-2.497895
O	-1.541137	-1.898958	-2.378144
N	-0.087641	1.135352	0.634377
H	0.856522	1.332581	0.973414
H	-0.707931	1.064567	1.42761
Cl	3.101318	0.969212	1.173681
