16

C	-0.376733	0.019086	-1.419647
C	-0.010406	0.05007	0.042671
F	-0.137779	1.255006	-1.96603
H	1.085905	0.133833	0.088767
H	-0.29935	-0.90626	0.481171
C	0.334764	-1.034787	-2.224619
H	0.046468	-2.027199	-1.879089
H	0.076361	-0.921951	-3.280513
H	1.409738	-0.902331	-2.074523
N	-1.885228	-0.192463	-1.530475
O	-2.307831	-1.239463	-1.046625
O	-2.563431	0.65535	-2.096001
N	-0.762347	1.125405	0.698089
H	-0.576577	1.07805	1.692514
H	-0.381283	2.007493	0.376251
Cl	3.50729	-0.435931	-0.480964
