18

C	-0.622476	-0.028619	-1.39423
C	0.0	0.0	0.0
F	-0.090879	-1.015681	-2.172247
H	1.089449	0.0	0.0
C	-2.127991	-0.142479	-1.405729
H	-2.502479	-0.060399	-2.42814
H	-2.402992	-1.118924	-1.003734
H	-2.573411	0.64826	-0.805412
N	-0.20764	1.277128	-2.071054
O	0.938134	1.321442	-2.501199
O	-1.047811	2.172775	-2.15175
N	-0.396111	-1.241381	0.707123
O	0.051614	-2.306131	0.267518
O	-1.1056	-1.152027	1.727653
N	-0.390849	1.19389	0.687675
H	0.394946	1.454351	1.280323
H	-1.19493	1.011463	1.276572
H	2.575942	0.0	0.0
