18

C	-0.52015	0.021395	-1.444171
C	0.0	0.0	0.0
F	0.258095	-0.716571	-2.276884
H	1.090479	0.0	0.0
C	-1.966953	-0.378706	-1.645464
H	-2.047611	-1.442172	-1.431942
H	-2.623244	0.185028	-0.984816
H	-2.259797	-0.195735	-2.681969
N	-0.373174	1.465254	-1.951998
O	-1.277645	2.249194	-1.655719
O	0.610163	1.741927	-2.62245
N	-0.391075	-1.292678	0.625197
O	-0.304482	-2.298127	-0.099501
O	-0.630223	-1.331754	1.834006
N	-0.351014	1.103501	0.820331
H	0.488263	1.642541	1.001774
H	-1.091618	1.689081	0.46968
H	2.542672	0.0	0.0
