18

C	-0.570335	0.133756	-1.396754
C	0.0	0.0	0.0
F	-1.941363	0.276203	-1.329251
H	1.090245	0.0	0.0
C	0.040928	1.31465	-2.104927
H	1.127405	1.211479	-2.080889
H	-0.319703	1.357333	-3.135664
H	-0.24976	2.213534	-1.565597
N	-0.326903	-1.089183	-2.276749
O	0.83831	-1.29294	-2.589806
O	-1.301811	-1.730375	-2.652181
N	-0.424051	-1.260168	0.650812
O	-0.797694	-1.21732	1.831409
O	-0.286776	-2.304345	0.007368
N	-0.341785	1.165149	0.758906
H	0.432101	1.337761	1.393312
H	-1.1765	0.999826	1.305444
H	2.555072	0.0	0.0
