18

C	-0.47305	0.153867	-1.438999
C	0.0	0.0	0.0
F	-1.817364	0.499062	-1.460096
H	1.089834	0.0	0.0
C	0.333601	1.212418	-2.144753
H	1.395586	1.001545	-1.991854
H	0.086491	1.233783	-3.207933
H	0.094967	2.179887	-1.701914
N	-0.381801	-1.134453	-2.245111
O	-1.407201	-1.793434	-2.375511
O	0.715846	-1.398221	-2.720278
N	-0.49103	-1.280773	0.598028
O	-1.22177	-1.257453	1.587215
O	-0.068497	-2.308145	0.060289
N	-0.355841	1.115584	0.802454
H	0.44744	1.722008	0.911499
H	-1.185964	1.606155	0.508898
H	2.63136	0.0	0.0
