16

C	-0.587958	-0.001853	-1.42008
C	0.0	0.0	0.0
Cl	-0.106366	-1.568806	-2.200343
H	1.092215	0.0	0.0
N	-1.966536	0.255974	-1.397927
H	-2.319838	0.438987	-2.327558
H	-2.477151	-0.490026	-0.944513
N	0.078985	1.064075	-2.313804
O	-0.677603	1.726733	-3.017967
O	1.291918	1.114387	-2.284953
C	-0.534685	-1.127307	0.746882
N	-0.974452	-2.055835	1.316731
N	-0.44591	1.288716	0.645509
O	-0.072728	2.308555	0.080622
O	-1.130397	1.232473	1.661964
Br	3.338896	0.0	0.0
