16

C	-0.307644	0.005426	-1.495035
C	0.0	0.0	0.0
Cl	0.229647	1.544529	-2.273809
H	1.095502	0.0	0.0
N	0.311428	-1.13807	-2.033019
H	1.300028	-1.139703	-1.776096
H	0.207742	-1.154688	-3.040311
N	-1.801482	-0.109728	-1.798316
O	-2.093997	-0.325933	-2.968334
O	-2.582465	0.000603	-0.86089
C	-0.470997	-1.224938	0.629007
N	-0.842453	-2.213336	1.143387
N	-0.46112	1.164127	0.830129
O	-1.006929	2.116156	0.287958
O	-0.216123	1.057943	2.026643
Br	3.286222	0.0	0.0
