15
Coordinates from ORCA-job run
  C   0.85373626753465     -0.50213739919273     -0.51457783398114
  C   -0.47842181552530      0.25881894701648     -0.51552822426164
  H   0.67297915863271     -1.56612650276280     -0.72946628464780
  H   -0.85072025445546      0.25850809954326     -1.54739481870886
  H   1.49111518469010     -0.10391415137904     -1.30957561923500
  N   1.55224412791654     -0.29178891701000      0.75924242079924
  H   2.49627899863633     -0.65113821466455      0.71057781740575
  H   1.07387722279155     -0.79874925065122      1.49278823774566
  N   -0.30847443998518      1.65612336353269     -0.10165822559837
  H   0.51196517208959      1.69340656227931      0.49334899909859
  H   -0.16760028114306      2.25069250191812     -0.90543663602864
  C   -1.51522984031677     -0.42598637876822      0.37038315660743
  H   -2.43465265886142      0.15917340585974      0.37884564889339
  H   -1.16631254372486     -0.49762759212957      1.40495607070800
  H   -1.73078429827943     -1.43825447359147      0.01349529120338
