16

C	0.0	0.0	0.0
C	-0.664526	0.067085	-1.344999
Cl	1.746056	0.0	0.0
H	-1.745653	0.124923	-1.133872
H	-0.362925	1.020249	-1.786207
N	-0.388964	1.218622	0.86877
O	-1.056706	2.089746	0.332632
O	0.054913	1.228587	2.009026
N	-0.455958	-1.245864	0.775235
O	0.028367	-2.300564	0.379194
O	-1.269621	-1.09554	1.670951
C	-0.344456	-1.090259	-2.282719
H	-0.74233	-0.850745	-3.271347
H	-0.814865	-2.0135	-1.948215
H	0.73018	-1.262431	-2.376619
Cl	-3.898719	0.0	0.0
