16

C	0.0	0.0	0.0
C	-0.684882	-0.071617	-1.331068
Cl	1.759156	0.0	0.0
H	-1.75784	-0.179903	-1.095814
H	-0.349043	-0.99497	-1.807629
N	-0.450968	1.255164	0.765973
O	0.109003	2.295345	0.434291
O	-1.35365	1.123781	1.574731
N	-0.367134	-1.210616	0.882887
O	-0.024322	-1.145808	2.054687
O	-0.896404	-2.159281	0.323513
C	-0.449391	1.135086	-2.229941
H	-0.877477	0.922592	-3.211871
H	0.612428	1.360429	-2.354335
H	-0.94839	2.020282	-1.837722
Cl	-3.919006	0.0	0.0
