16

C	0.0	0.0	0.0
C	-0.683797	0.04585	-1.332894
Cl	1.756184	0.0	0.0
H	-1.758348	0.139583	-1.098288
H	-0.363238	0.969339	-1.819975
N	-0.37411	1.219593	0.866779
O	-0.945402	2.140492	0.303055
O	-0.004747	1.184878	2.031564
N	-0.451626	-1.242238	0.78701
O	0.111847	-2.286975	0.480557
O	-1.355559	-1.095801	1.590826
C	-0.42867	-1.167424	-2.216935
H	-0.856249	-0.971766	-3.202699
H	0.636464	-1.380726	-2.335363
H	-0.917125	-2.055519	-1.816486
Cl	-3.925176	0.0	0.0
