16

C	0.0	0.0	0.0
C	-0.586885	-0.212895	-1.373534
Cl	1.749082	0.0	0.0
H	-0.007284	-1.025747	-1.821082
H	-0.382764	0.694438	-1.946546
N	-0.432042	1.313787	0.656808
O	-1.070717	2.095047	-0.034344
O	-0.058346	1.480538	1.80929
N	-0.493873	-1.127355	0.913219
O	-1.431372	-0.870924	1.651613
O	0.046339	-2.21058	0.738633
C	-2.074964	-0.553083	-1.365031
H	-2.253919	-1.545249	-0.947715
H	-2.707724	0.138458	-0.808778
H	-2.441063	-0.562337	-2.3937
Cl	-5.229128	0.0	0.0
