16

C	0.0	0.0	0.0
C	-0.594443	-0.29824	-1.355066
Cl	1.741167	0.0	0.0
H	-0.015853	0.295951	-2.068164
H	-0.391757	-1.353855	-1.560278
N	-0.474177	1.389326	0.450772
O	-0.102545	2.302761	-0.274321
O	-1.200251	1.463623	1.429208
N	-0.441597	-0.986436	1.094443
O	-1.316054	-1.787839	0.798658
O	0.119257	-0.875509	2.175573
C	-2.081506	0.030003	-1.461598
H	-2.470513	-0.331032	-2.415405
H	-2.706867	-0.406778	-0.686173
H	-2.252785	1.107862	-1.432898
Cl	-5.204543	0.0	0.0
