17

C	-0.571446	-0.147727	-1.404464
C	0.0	0.0	0.0
F	0.001483	-1.285086	-1.970948
H	1.099258	0.0	0.0
N	-2.0044	-0.338715	-1.464067
H	-2.471013	0.559227	-1.438385
H	-2.225199	-0.849552	-0.610387
C	-0.210777	1.001239	-2.264987
N	0.057673	1.93264	-2.926671
N	-0.506186	-1.183408	0.741918
H	-0.394885	-0.975937	1.729389
H	0.166242	-1.920687	0.54941
C	-0.499382	1.266711	0.667733
H	-0.239815	2.149927	0.078936
H	0.007685	1.371722	1.631349
H	-1.583719	1.254904	0.842689
F	2.661143	0.0	0.0
