17

C	-0.075971	-0.054492	-1.548842
C	0.0	0.0	0.0
F	-0.007561	1.27849	-2.061259
H	1.099266	0.0	0.0
N	1.003971	-0.849151	-1.979183
H	1.151712	-0.778795	-2.977225
H	1.850546	-0.587408	-1.417261
C	-1.37627	-0.557165	-2.059623
N	-2.434961	-0.941628	-2.396102
N	-0.44733	-1.239958	0.622899
H	0.214645	-1.964845	0.375917
H	-1.358306	-1.517693	0.267696
C	-0.685388	1.201023	0.602628
H	-0.285317	2.12866	0.194637
H	-1.769104	1.179592	0.424982
H	-0.5201	1.18346	1.681467
F	2.742546	0.0	0.0
