17

C	-0.149648	0.137029	-1.518341
C	0.0	0.0	0.0
F	-1.378803	0.726836	-1.906552
H	1.097441	0.0	0.0
N	0.930319	0.960173	-1.96305
H	1.102627	0.842621	-2.952173
H	1.777073	0.712074	-1.40651
C	-0.176196	-1.193171	-2.18854
N	-0.172253	-2.165638	-2.849214
N	-0.547709	-1.250387	0.507283
H	-1.364331	-1.077169	1.081372
H	0.155265	-1.696438	1.084168
C	-0.51897	1.244266	0.696945
H	-0.17692	1.244369	1.736818
H	-0.137666	2.141678	0.206382
H	-1.615873	1.281922	0.683067
F	2.725771	0.0	0.0
