17

C	-0.107632	0.075189	-1.545362
C	0.0	0.0	0.0
F	-1.295859	0.721171	-1.981971
H	1.095968	0.0	0.0
N	1.029532	0.786625	-2.008826
H	1.849031	0.560394	-1.39179
H	1.232524	0.59107	-2.980972
C	-0.237748	-1.290362	-2.128385
N	-0.319226	-2.375815	-2.572765
N	-0.5445	-1.184727	0.639738
H	-1.460246	-1.415482	0.264431
H	0.069836	-1.968453	0.458108
C	-0.551213	1.267931	0.619221
H	-0.255803	1.294403	1.669646
H	-0.146425	2.144707	0.111337
H	-1.645223	1.30405	0.560462
F	2.7462	0.0	0.0
