17

C	-0.572801	-0.092358	-1.408461
C	0.0	0.0	0.0
F	-0.00435	-1.209445	-2.018003
H	1.099325	0.0	0.0
N	-2.006385	-0.275603	-1.474351
H	-2.47065	0.621583	-1.412182
H	-2.229757	-0.819143	-0.642111
C	-0.209059	1.087329	-2.22563
N	0.061641	2.039334	-2.856266
N	-0.508049	-1.210914	0.695481
H	-0.375466	-1.049815	1.689118
H	0.152563	-1.946787	0.458853
C	-0.499071	1.23929	0.717668
H	0.015341	1.311061	1.680441
H	-0.247765	2.144342	0.159793
H	-1.581572	1.216054	0.900608
F	2.661379	0.0	0.0
