15

C	0.0	0.0	0.0
C	-0.454371	-0.02568	-1.446818
Br	2.073785	0.0	0.0
H	-1.549056	0.107084	-1.402265
H	-0.209077	-0.976359	0.427801
N	-0.494142	1.025967	0.760087
H	-0.293326	0.983642	1.743703
H	-0.44639	1.943312	0.349872
N	-0.091418	-1.237748	-2.078525
H	0.915937	-1.302554	-2.162893
H	-0.503847	-1.296039	-2.998862
N	0.093303	1.210237	-2.190363
O	-0.123954	2.317678	-1.701229
O	0.690942	1.022844	-3.246483
Br	-3.769686	0.0	0.0
