15

C	0.0	0.0	0.0
C	-0.532166	-0.274178	-1.403828
Br	1.941368	0.0	0.0
H	-1.624502	-0.180764	-1.327727
H	-0.25743	-0.901018	0.563697
N	-0.489025	1.231104	0.538458
H	-1.47928	1.293788	0.296638
H	-0.442359	1.179355	1.548855
N	-0.16103	-1.565506	-1.863757
H	0.80829	-1.566193	-2.156879
H	-0.738782	-1.82871	-2.650244
N	-0.096454	0.839853	-2.357736
O	0.745295	0.56243	-3.215991
O	-0.618893	1.940473	-2.214999
Br	-3.739849	0.0	0.0
