15

C	0.0	0.0	0.0
C	-0.592872	-0.142971	-1.406635
Br	1.947544	0.0	0.0
H	-1.56998	0.352332	-1.383988
H	-0.244408	-0.939467	0.504993
N	-0.465038	1.19262	0.652332
H	-0.211115	1.149937	1.632712
H	-1.486639	1.175337	0.597745
N	-0.668869	-1.542145	-1.759414
H	-0.652899	-1.629083	-2.767698
H	-1.575774	-1.858536	-1.423627
N	0.20278	0.616323	-2.428239
O	0.702684	-0.004747	-3.367764
O	0.280092	1.827904	-2.26582
Br	-3.704037	0.0	0.0
