15

C	0.0	0.0	0.0
C	-0.447309	0.137343	-1.471235
Br	2.049375	0.0	0.0
H	-1.518593	0.366634	-1.406233
H	-0.274906	-1.007939	0.313849
N	-0.468984	0.939391	0.943766
H	-1.457905	0.722672	1.091618
H	-0.418572	1.869887	0.547264
N	-0.250754	-0.999979	-2.307411
H	-0.991923	-1.660941	-2.1228
H	0.653287	-1.422405	-2.147496
N	0.202107	1.34783	-2.092653
O	-0.089488	2.433506	-1.58613
O	0.993854	1.195976	-3.01416
Br	-3.618726	0.0	0.0
