15

C	0.0	0.0	0.0
C	-0.549436	-0.008458	-1.429491
Br	2.037177	0.0	0.0
H	-1.605063	0.281463	-1.311679
H	-0.225529	-0.966508	0.445649
N	-0.50683	1.029685	0.771301
H	-0.423206	1.946638	0.361644
H	-0.279296	0.992251	1.750943
N	-0.470037	-1.240023	-2.13229
H	0.397812	-1.728233	-1.953556
H	-1.268234	-1.80581	-1.873887
N	0.119964	1.095664	-2.219983
O	-0.049084	2.238455	-1.788943
O	0.791265	0.810932	-3.201292
Br	-3.805718	0.0	0.0
