12

C	-0.425055	0.040144	-1.433957
C	0.0	0.0	0.0
F	-1.825445	0.132795	-1.589735
H	1.093264	0.0	0.0
H	0.004245	0.927827	-1.900798
H	-0.382099	-0.916623	0.472072
C	-0.007741	-1.160637	-2.182493
N	0.267186	-2.111577	-2.810968
N	-0.431875	1.240751	0.651701
H	-1.296418	1.111898	1.158472
H	0.293071	1.489455	1.311411
F	2.646178	0.0	0.0
