12

C	-0.587137	0.04336	-1.393316
C	0.0	0.0	0.0
F	-0.338353	-1.138842	-2.08844
H	1.098011	0.0	0.0
H	-1.675558	0.163528	-1.349478
H	-0.39524	-0.902112	0.482194
C	-0.060216	1.166271	-2.190371
N	0.325893	2.04502	-2.864839
N	-0.452781	1.235831	0.680029
H	0.401559	1.740868	0.891096
H	-0.872528	1.00421	1.573076
F	2.677221	0.0	0.0
