12

C	-0.44002	0.014194	-1.431135
C	0.0	0.0	0.0
F	-1.816765	0.304522	-1.578181
H	1.09357	0.0	0.0
H	0.104393	0.794051	-1.970922
H	-0.330748	0.953776	0.43917
C	-0.214812	-1.272644	-2.111371
N	-0.063749	-2.26503	-2.717822
N	-0.499748	-1.180448	0.703651
H	-1.302272	-0.962986	1.27842
H	0.2462	-1.50597	1.304246
F	2.662343	0.0	0.0
