12

C	-0.463304	-0.059106	-1.439102
C	0.0	0.0	0.0
F	-0.214465	1.139657	-2.103063
H	1.092293	0.0	0.0
H	0.089801	-0.851337	-1.948468
H	-0.410034	0.904617	0.468056
C	-1.913401	-0.329697	-1.556101
N	-3.066866	-0.540191	-1.622051
N	-0.417822	-1.256323	0.637429
H	0.374163	-1.586497	1.174213
H	-1.199062	-1.120541	1.264423
F	2.676593	0.0	0.0
