14
Coordinates from ORCA-job run
  C   -0.21612369080980     -0.04228125991089      0.55474720062501
  C   0.51544830270195      0.66312186194837     -0.55558673445732
  H   0.38432635889169     -0.20089549279308      1.44702457159767
  H   0.82413482799922      1.65931049241344     -0.23747738621969
  H   -0.08678394956110      0.72319953997880     -1.46020580462038
  N   -0.73984420728782     -1.37802942984490      0.13045641722047
  O   -0.91076434165580     -1.56043242293531     -1.06991770845164
  O   -0.97730473608690     -2.16032756537568      1.04265162966117
  N   -1.39695071704626      0.81129798584642      0.95683489291258
  O   -2.52147936153956      0.40023377396973      0.70848192199114
  O   -1.08851036270677      1.86821616951040      1.49393456280787
  N   1.76148684240323     -0.08498186183163     -0.91604976485101
  O   2.10251011847871     -1.01040348110917     -0.18364121498355
  O   2.34985491621922      0.31397169013351     -1.91125258323233
