14
Coordinates from ORCA-job run
  C   -0.35703259231227     -0.16684375035737      0.45228169521136
  C   0.80615370650257      0.57488287358609     -0.14806493763136
  H   -0.08204364916491     -0.86401087552009      1.23869188871299
  H   0.50348679264210      1.18204508632901     -0.99874454078297
  H   1.29416964424831      1.19196410581273      0.60924835443399
  N   -1.12745181773323     -0.94091367021542     -0.57449950541647
  O   -1.97146571502475     -1.70325927536910     -0.11951654675202
  O   -0.87037102357961     -0.73594553881314     -1.75540228621388
  N   -1.29128193000417      0.84910264276015      1.05038945166588
  O   -2.18120933547352      1.28900317461064      0.33352352525550
  O   -1.02294910287349      1.18043618952581      2.19932429460502
  N   1.83895888347320     -0.38873515026035     -0.64770197679881
  O   2.69008930439070      0.08166456014694     -1.38903739445913
  O   1.76994683490907     -1.54839037223590     -0.25049202183011
