17

C	-0.463858	0.081688	-1.44607
C	0.0	0.0	0.0
Cl	-0.241144	-1.522616	-2.274137
H	1.093905	0.0	0.0
H	-0.296879	0.959104	0.454166
N	-1.897249	0.352466	-1.518182
H	-2.059067	1.223707	-1.021547
H	-2.154328	0.500692	-2.489614
C	0.40984	1.074401	-2.20088
H	0.143101	1.101652	-3.262321
H	1.46427	0.812975	-2.071439
H	0.254079	2.070726	-1.770811
C	-0.569732	-1.152016	0.8121
H	-0.298107	-1.026215	1.864325
H	-0.142745	-2.098332	0.476004
H	-1.658503	-1.211901	0.729358
H	3.110437	0.0	0.0
