17

C	-0.493717	0.08177	-1.441733
C	0.0	0.0	0.0
Cl	-0.208517	-1.512099	-2.261978
H	1.094247	0.0	0.0
H	-0.298563	0.95763	0.455098
N	-1.924421	0.345907	-1.612997
H	-2.112067	1.230424	-1.147646
H	-2.443738	-0.367209	-1.109632
C	0.30825	1.128701	-2.189711
H	0.107278	2.111928	-1.748122
H	1.373953	0.918517	-2.069875
H	0.018868	1.146442	-3.242265
C	-0.536365	-1.147739	0.841082
H	-0.173789	-1.039728	1.866691
H	-1.632223	-1.185754	0.875365
H	-0.169672	-2.103502	0.464498
H	3.089638	0.0	0.0
