17

C	-0.381101	-0.029926	-1.457095
C	0.0	0.0	0.0
Cl	-2.271516	-0.622142	-1.550151
H	1.09579	0.0	0.0
H	-0.321163	-0.941787	0.453171
N	-0.27769	1.21821	-2.083129
H	-0.537883	1.174956	-3.058824
H	-0.813922	1.932043	-1.611311
C	0.388662	-1.089218	-2.206331
H	0.126171	-1.09839	-3.268697
H	0.183553	-2.07412	-1.78714
H	1.45225	-0.860118	-2.064166
C	-0.527464	1.1857	0.789894
H	-0.049935	2.111533	0.457781
H	-1.615636	1.287163	0.713983
H	-0.268996	1.064977	1.844675
H	3.025206	0.0	0.0
