17

C	-0.394638	-0.057884	-1.475898
C	0.0	0.0	0.0
Cl	-0.207732	1.599911	-2.211681
H	1.095497	0.0	0.0
H	-0.295406	-0.978228	0.410267
N	0.502734	-0.929589	-2.218266
H	1.454051	-0.680063	-1.927401
H	0.354576	-1.868571	-1.854879
C	-1.835831	-0.468555	-1.726055
H	-2.527345	0.232548	-1.254035
H	-2.030675	-0.498385	-2.79939
H	-2.006422	-1.465005	-1.303458
C	-0.573855	1.113985	0.858965
H	-0.216202	2.086089	0.516346
H	-1.670084	1.130742	0.86318
H	-0.2332	0.984386	1.890516
H	3.0591	0.0	0.0
