16

C	0.0	0.0	0.0
C	-0.194789	-0.424615	-1.49201
Cl	1.803514	0.0	0.0
H	0.510821	0.125669	-2.111654
H	-0.002256	-1.494363	-1.581201
C	-0.471982	1.413231	0.277213
H	-1.563111	1.431257	0.223785
H	-0.144533	1.692472	1.280555
H	-0.060511	2.112444	-0.45122
N	-0.532912	-0.888719	0.976926
H	-0.371217	-1.853134	0.708607
H	-1.54725	-0.732952	0.987969
N	-1.495774	-0.177368	-2.185995
O	-1.765229	0.995494	-2.426978
O	-2.113853	-1.158186	-2.587673
Cl	-3.716564	0.0	0.0
