16

C	0.0	0.0	0.0
C	-0.488513	0.072553	-1.447006
Cl	1.793189	0.0	0.0
H	-1.583609	0.061197	-1.419898
H	-0.072281	-0.762104	-2.005357
C	-0.440744	1.183091	0.851136
H	-0.116441	1.007869	1.880832
H	-0.012219	2.123092	0.504584
H	-1.530441	1.236982	0.814515
N	-0.472465	-1.282599	0.475497
H	-1.495684	-1.214652	0.489991
H	-0.162526	-1.399799	1.435299
N	-0.068954	1.310084	-2.150707
O	0.831697	1.214812	-2.98832
O	-0.649665	2.357402	-1.865559
Cl	-3.664707	0.0	0.0
