16

C	0.0	0.0	0.0
C	-0.499063	-0.082213	-1.431838
Cl	1.856971	0.0	0.0
H	-0.237448	0.812922	-1.99068
H	-1.590498	-0.214618	-1.364835
C	-0.44299	1.329169	0.581933
H	-0.014445	2.163738	0.023982
H	-1.536724	1.347441	0.547486
H	-0.10972	1.402803	1.620205
N	-0.494086	-1.05596	0.777755
H	-0.317089	-1.968242	0.388014
H	-0.235509	-0.988219	1.749641
N	0.06798	-1.214325	-2.211257
O	0.493873	-0.966047	-3.338256
O	0.059522	-2.335507	-1.703248
Cl	-3.832525	0.0	0.0
