16

C	0.0	0.0	0.0
C	-0.493861	-0.064584	-1.442812
Cl	1.842301	0.0	0.0
H	-1.5783	0.096185	-1.401336
H	-0.256515	-1.031677	-1.881524
C	-0.466068	1.230455	0.750091
H	-1.56014	1.235972	0.732299
H	-0.111196	1.171633	1.782756
H	-0.07771	2.137469	0.293739
N	-0.50128	-1.165524	0.618234
H	-0.599384	-1.095512	1.617588
H	-0.039585	-2.015509	0.334517
N	0.118336	0.94635	-2.33953
O	0.83049	0.536995	-3.259076
O	-0.125856	2.132028	-2.120308
Cl	-3.862578	0.0	0.0
