16

C	0.0	0.0	0.0
C	-0.357007	-0.272193	-1.487161
Cl	1.814052	0.0	0.0
H	-0.634412	-1.318872	-1.594015
H	0.514158	-0.075292	-2.110444
C	-0.405939	1.359095	0.54776
H	-0.048107	1.427069	1.579423
H	-1.494383	1.4167	0.537266
H	0.012411	2.18259	-0.030875
N	-0.490563	-1.116555	0.76161
H	-1.508682	-1.095156	0.634437
H	-0.32948	-0.931428	1.747379
N	-1.417049	0.518767	-2.18931
O	-1.411479	1.737772	-2.055918
O	-2.092216	-0.104306	-3.000782
Cl	-3.575469	0.0	0.0
