16

C	0.0	0.0	0.0
C	-0.230592	-0.432469	-1.47706
Cl	1.812266	0.0	0.0
H	0.522611	0.054523	-2.095362
H	-0.116004	-1.514631	-1.529878
C	-0.456001	1.408702	0.328418
H	-0.126327	1.648127	1.344492
H	-0.046353	2.146366	-0.362548
H	-1.547228	1.422859	0.285085
N	-0.511046	-1.023109	0.869282
H	-0.352847	-0.73397	1.830793
H	-1.532119	-0.994342	0.728919
N	-1.497411	-0.083174	-2.194409
O	-2.122928	-1.008015	-2.704405
O	-1.717119	1.113218	-2.357145
Cl	-3.641505	0.0	0.0
