16

C	0.0	0.0	0.0
C	-0.213445	-0.446566	-1.482897
Cl	1.8034	0.0	0.0
H	-0.086346	-1.526663	-1.543667
H	0.524824	0.04414	-2.114599
C	-0.459136	1.418837	0.271967
H	-1.550979	1.442738	0.231378
H	-0.05527	2.107748	-0.4685
H	-0.1201	1.702224	1.269468
N	-0.528959	-0.877227	0.991358
H	-1.544646	-0.727446	0.995109
H	-0.359548	-1.844367	0.736507
N	-1.491589	-0.137003	-2.195573
O	-1.723567	1.049756	-2.401181
O	-2.120108	-1.083898	-2.656278
Cl	-3.698376	0.0	0.0
