16

C	0.0	0.0	0.0
C	-0.208441	-0.43018	-1.487276
Cl	1.803546	0.0	0.0
H	-0.059247	-1.506745	-1.562614
H	0.520731	0.081915	-2.111569
C	-0.465899	1.4129	0.291384
H	-1.556557	1.435623	0.23869
H	-0.050288	2.120091	-0.426787
H	-0.137106	1.674572	1.299374
N	-0.530023	-0.890131	0.980121
H	-0.364315	-1.853248	0.708448
H	-1.545579	-0.736571	0.984456
N	-1.492801	-0.138533	-2.19379
O	-2.111058	-1.09448	-2.650713
O	-1.742108	1.045607	-2.398413
Cl	-3.706271	0.0	0.0
