18

C	0.072855	-0.032423	-0.0315
C	-0.477354	-0.156404	-1.490736
Cl	1.811107	0.557333	-0.107137
H	0.327522	-0.638198	-2.06436
C	-0.740291	0.888332	0.861288
H	-0.4766	0.740199	1.911323
H	-0.521272	1.922236	0.58864
H	-1.818387	0.728515	0.658231
C	0.161972	-1.37558	0.547207
N	0.226247	-2.460189	0.996336
C	-0.793387	1.221862	-2.059861
H	-0.971482	1.119104	-3.133036
H	-1.720591	1.554488	-1.584312
H	0.017304	1.937632	-1.902092
N	-1.682475	-0.948475	-1.575212
H	-1.557895	-1.854512	-1.13908
H	-2.452582	-0.413724	-1.108061
F	-3.308619	0.747336	-0.341896
