18

C	0.069589	-0.029312	-0.027276
C	-0.478606	-0.092226	-1.491032
Cl	1.809156	0.560798	-0.076248
H	0.326679	-0.54978	-2.083447
C	-0.742703	0.855822	0.901906
H	-0.482973	0.660977	1.945274
H	-1.821171	0.71084	0.689638
H	-0.517947	1.89955	0.675229
C	0.156774	-1.395409	0.495172
N	0.218356	-2.500851	0.890692
C	-0.794607	1.30866	-2.002005
H	-0.970455	1.251028	-3.078905
H	0.015199	2.017724	-1.81241
H	-1.723438	1.619366	-1.514829
N	-1.68324	-0.880923	-1.610156
H	-2.450605	-0.373312	-1.109633
H	-1.55339	-1.808404	-1.223176
F	-3.310081	0.765562	-0.313607
