17

C	0.0	0.0	0.0
C	-0.560746	-0.086854	-1.419004
F	1.390056	0.0	0.0
H	-1.659665	-0.194482	-1.262282
C	-0.517265	1.24185	0.686879
H	-0.15929	1.263508	1.718525
H	-0.161146	2.131142	0.162707
H	-1.618053	1.166473	0.655285
C	-0.403149	-1.191176	0.784796
N	-0.618699	-2.137423	1.446326
N	-0.031089	-1.337476	-2.063207
O	1.072284	-1.263932	-2.607221
O	-0.718662	-2.355887	-1.988254
N	-0.2462	1.018934	-2.274066
H	-0.92616	1.752063	-2.1249
H	0.690487	1.363031	-2.105671
H	-3.127279	0.0	0.0
