17

C	0.0	0.0	0.0
C	-0.647573	-0.034169	-1.363984
F	1.392229	0.0	0.0
H	-1.768983	-0.132049	-1.045533
C	-0.459668	1.250748	0.724771
H	-0.105096	2.123358	0.177459
H	-1.556513	1.226867	0.744243
H	-0.057528	1.244138	1.741236
C	-0.364157	-1.169435	0.836835
N	-0.494657	-2.022459	1.633002
N	-0.244979	-1.266407	-2.118924
O	0.201607	-1.13173	-3.267074
O	-0.42624	-2.356075	-1.574461
N	-0.426601	1.160464	-2.109433
H	-1.174368	1.270934	-2.780982
H	0.44583	1.090846	-2.623663
H	-3.01915	0.0	0.0
