17

C	0.0	0.0	0.0
C	-0.396902	-0.04431	-1.499073
F	1.386988	0.0	0.0
H	0.232252	-0.819286	-1.947034
C	-0.555986	1.133084	0.824565
H	-1.649297	1.058851	0.804557
H	-0.23964	2.08884	0.410208
H	-0.192513	1.034626	1.850949
C	-0.394114	-1.306118	0.571419
N	-0.59863	-2.354488	1.058045
N	0.218882	1.23631	-2.12696
O	-0.375634	2.296585	-1.959782
O	1.255929	1.104545	-2.781388
N	-1.752097	-0.153237	-1.804863
H	-1.951421	-1.019361	-2.281531
H	-2.484926	-0.024132	-1.000889
H	-3.464122	0.0	0.0
