16

C	-0.26135	-0.064157	0.007504
C	-0.514592	-0.302597	-1.485818
Br	1.687736	0.247166	0.275189
H	-0.146603	0.591174	-2.012393
H	-0.731204	0.880187	0.28625
C	-0.721803	-1.177291	0.922167
H	-0.305104	-2.136972	0.614727
H	-1.813014	-1.213922	0.884254
H	-0.439831	-0.965504	1.954647
N	-1.922981	-0.430168	-1.803984
H	-2.268101	-1.272924	-1.35678
H	-2.432964	0.356113	-1.394561
N	0.129354	-1.535121	-1.932683
H	-0.1249	-1.654807	-2.906804
H	1.135344	-1.429012	-1.876235
Cl	-3.173856	1.925914	0.229971
