18

C	0.0	0.0	0.0
C	-0.332447	0.111649	-1.488629
Cl	1.801337	0.0	0.0
H	0.170259	-0.680282	-2.032951
C	-0.319976	1.248896	0.826264
H	0.235295	2.089463	0.388919
H	-1.36586	1.536986	0.941217
H	0.140765	1.11829	1.814141
C	-0.315898	-1.35483	0.636181
H	0.193219	-2.127956	0.039278
H	-1.359501	-1.636823	0.770752
H	0.200371	-1.392141	1.603301
C	0.034244	1.382138	-2.119394
N	0.272879	2.408402	-2.64635
N	-1.882211	-0.230611	-2.329634
O	-2.367913	0.672174	-3.006616
O	-1.980185	-1.406458	-2.605057
Br	-3.39747	0.0	0.0
