18

C	0.0	0.0	0.0
C	-0.557405	0.119834	-1.429319
Cl	1.791677	0.0	0.0
H	-1.656156	0.186955	-1.311248
C	-0.471344	1.157291	0.868719
H	-0.13727	0.979127	1.89321
H	-0.064767	2.110182	0.531322
H	-1.563584	1.189968	0.841913
C	-0.477416	-1.327415	0.574067
H	-0.091263	-2.170942	-0.001343
H	-0.121393	-1.41789	1.6024
H	-1.571288	-1.334481	0.566634
C	-0.20132	-1.013062	-2.2754
N	0.033535	-1.933095	-2.966607
N	-0.102565	1.385674	-2.104881
O	0.848485	1.318356	-2.881128
O	-0.713209	2.408304	-1.806441
Br	-3.874685	0.0	0.0
