18

C	0.0	0.0	0.0
C	-0.559625	0.142303	-1.425286
Cl	1.791728	0.0	0.0
H	-1.657118	0.199038	-1.300641
C	-0.469586	1.144872	0.885321
H	-0.027718	2.094821	0.586489
H	-0.167351	0.931771	1.913059
H	-1.558204	1.211837	0.835309
C	-0.465758	-1.340731	0.556504
H	-0.11056	-1.435791	1.58552
H	-0.066319	-2.173005	-0.026344
H	-1.558526	-1.363853	0.551223
C	-0.197611	-0.967808	-2.296077
N	0.038358	-1.870387	-3.009762
N	-0.11927	1.428089	-2.072452
O	-0.737567	2.436877	-1.748536
O	0.838226	1.388394	-2.843494
Br	-3.91281	0.0	0.0
