17

C	-0.40452	0.027159	-1.473547
C	0.0	0.0	0.0
F	-0.3066	-1.287286	-1.960137
H	1.096628	0.0	0.0
H	-0.303105	0.960518	0.437458
C	-1.835557	0.464194	-1.724108
H	-2.041249	0.399421	-2.793976
H	-1.989908	1.494245	-1.391403
H	-2.529159	-0.183684	-1.184745
N	0.497947	0.811946	-2.288516
H	0.385165	1.78836	-2.039288
H	1.450022	0.562415	-2.02052
C	-0.558259	-1.159292	0.812196
H	-1.653456	-1.171712	0.825688
H	-0.20815	-1.094214	1.845428
H	-0.210033	-2.106653	0.400977
Cl	3.583313	0.0	0.0
