17

C	-0.361582	-0.009581	-1.471644
C	0.0	0.0	0.0
F	-1.766639	-0.132531	-1.61535
H	1.096387	0.0	0.0
H	-0.338959	-0.955661	0.412172
C	0.011491	1.277539	-2.187951
H	1.083926	1.451508	-2.07232
H	-0.230387	1.183369	-3.251639
H	-0.540194	2.131895	-1.789799
N	0.226599	-1.186815	-2.058289
H	0.318465	-1.067228	-3.060195
H	1.160967	-1.30473	-1.675583
C	-0.566123	1.164885	0.795154
H	-0.094064	2.108587	0.514213
H	-1.646003	1.255147	0.648442
H	-0.376191	1.017831	1.860749
Cl	3.554063	0.0	0.0
