17

C	-0.602596	0.066821	-1.409838
C	0.0	0.0	0.0
Br	0.016273	1.714491	-2.33287
H	1.105844	0.0	0.0
C	-0.107665	-1.048026	-2.214827
N	0.203418	-1.943379	-2.909523
C	-2.126936	0.072975	-1.419936
H	-2.514294	0.127629	-2.439148
H	-2.489262	0.919506	-0.837409
H	-2.463761	-0.854665	-0.951926
N	-0.430906	-1.277424	0.563748
H	-1.139766	-1.110445	1.268277
H	0.382462	-1.701338	0.992378
N	-0.534037	1.108424	0.820757
H	-0.328828	1.972898	0.324635
H	0.091745	1.133655	1.623645
F	2.64688	0.0	0.0
