17

C	-0.207058	0.115909	-1.510032
C	0.0	0.0	0.0
Br	-2.15334	-0.108607	-2.008972
H	1.110393	0.0	0.0
C	0.120604	1.467659	-1.96124
N	0.38361	2.553039	-2.328543
C	0.641683	-0.916663	-2.232103
H	0.61264	-0.787642	-3.316897
H	0.287568	-1.908054	-1.952304
H	1.653421	-0.76877	-1.823962
N	-0.467124	-1.297984	0.446018
H	0.093074	-1.542546	1.254061
H	-1.431709	-1.212564	0.752404
N	-0.500745	1.121764	0.779133
H	0.202277	1.851028	0.772025
H	-1.354795	1.499617	0.37853
F	2.656986	0.0	0.0
