17

C	-0.624476	0.001499	-1.403591
C	0.0	0.0	0.0
Br	0.074279	1.533388	-2.434345
H	1.094923	0.0	0.0
C	-0.245113	-1.201488	-2.143865
N	-0.040133	-2.169251	-2.778527
C	-2.14412	0.12296	-1.366551
H	-2.402178	1.046813	-0.846921
H	-2.569957	0.141275	-2.372406
H	-2.54644	-0.739757	-0.825024
N	-0.3968	-1.266595	0.624996
H	0.42136	-1.616474	1.110569
H	-1.143516	-1.140647	1.299735
N	-0.403605	1.217286	0.704295
H	-1.103816	1.020101	1.409328
H	0.427341	1.564245	1.169489
F	2.624056	0.0	0.0
