16

C	-0.00803	-0.019052	0.007338
C	-0.49604	-0.076426	-1.459595
F	1.382906	-0.013151	0.002903
H	-1.611579	-0.071487	-1.343333
N	-0.450915	1.174808	0.655343
H	-0.122184	1.994984	0.154314
H	-1.483832	1.127447	0.594462
N	-0.482673	-1.197782	0.648145
H	-1.506587	-1.159464	0.527395
H	-0.306259	-1.063195	1.639702
N	-0.069009	-1.338857	-2.137985
O	1.051283	-1.361508	-2.64853
O	-0.864745	-2.272947	-2.124299
C	-0.018973	1.06433	-2.221698
N	0.321717	2.021788	-2.811385
H	-2.928258	0.129703	-0.086539
