16

C	-0.015585	0.004969	-0.015967
C	-0.52103	-0.075911	-1.46406
F	1.370781	0.043198	0.017425
H	-1.625006	-0.064918	-1.363708
N	-0.505206	1.258811	0.477515
H	-1.536751	1.114256	0.510222
H	-0.181358	1.361029	1.43551
N	-0.432285	-1.207274	0.631346
H	-0.109898	-1.163858	1.593891
H	-1.463721	-1.128346	0.650081
N	-0.122273	-1.380649	-2.088941
O	-0.998855	-2.228297	-2.220242
O	1.054959	-1.507966	-2.416997
C	-0.019693	1.013025	-2.288525
N	0.355262	1.867615	-3.000969
H	-2.940574	0.049929	0.207523
