17

C	-0.488435	-0.010988	-1.420069
C	0.0	0.0	0.0
F	0.233192	0.714089	-2.269007
H	1.093935	0.0	0.0
N	-0.465232	-1.452165	-1.936875
O	-1.520342	-2.073241	-1.933278
O	0.625771	-1.8473	-2.313657
N	-1.95023	0.416743	-1.581044
O	-2.672551	0.258935	-0.603987
O	-2.285281	0.844329	-2.67781
N	-0.399826	-1.150787	0.726652
H	0.308951	-1.34904	1.419312
H	-1.303893	-1.039498	1.166085
N	-0.394095	1.296088	0.621094
O	-0.510618	1.326348	1.844787
O	-0.519426	2.272764	-0.121109
F	2.465884	0.0	0.0
