17

C	-0.445511	-0.017819	-1.439087
C	0.0	0.0	0.0
F	0.149108	-1.041272	-2.070782
H	1.093833	0.0	0.0
N	-1.955318	-0.248393	-1.592844
O	-2.664913	0.197204	-0.697596
O	-2.328989	-0.860033	-2.586127
N	-0.161464	1.219193	-2.28898
O	-1.119968	1.905887	-2.622241
O	1.008311	1.375199	-2.592238
N	-0.353704	-1.181847	0.693157
H	0.412624	-1.835787	0.671561
H	-1.245153	-1.600417	0.478612
N	-0.464845	1.233115	0.695687
O	-0.325944	2.284299	0.066566
O	-0.881805	1.157825	1.844191
F	2.473994	0.0	0.0
