17

C	-0.310397	-0.048685	-1.475131
C	0.0	0.0	0.0
F	0.085756	-1.234991	-1.960719
H	1.091354	0.0	0.0
N	-1.779583	0.059385	-1.890492
O	-2.484521	-0.850562	-1.466431
O	-2.132824	0.979989	-2.613768
N	0.416116	1.037688	-2.244116
O	0.844209	0.733366	-3.346838
O	0.471473	2.130793	-1.703383
N	-0.426412	-1.142345	0.745143
H	-1.209085	-1.631594	0.341291
H	0.369046	-1.748309	0.8664
N	-0.587615	1.215936	0.635186
O	0.034775	1.728045	1.556851
O	-1.702667	1.58344	0.244788
F	2.502615	0.0	0.0
