17

C	-0.320011	-0.121566	-1.468519
C	0.0	0.0	0.0
F	-0.040357	-1.374999	-1.872137
H	1.099089	0.0	0.0
N	-1.779162	0.085389	-1.880164
O	-2.567126	-0.637056	-1.276237
O	-2.049293	0.872917	-2.775019
N	0.50139	0.818588	-2.340255
O	0.768192	0.402188	-3.460091
O	0.796868	1.900715	-1.860852
N	-0.393319	-1.111849	0.801714
H	-1.188124	-1.61741	0.441033
H	0.407179	-1.712919	0.938602
N	-0.552655	1.253534	0.57724
O	-0.187076	1.549592	1.706595
O	-1.362372	1.907586	-0.092837
F	2.487444	0.0	0.0
