17

C	-0.494109	-0.039564	-1.416221
C	0.0	0.0	0.0
F	0.117856	0.801688	-2.245503
H	1.094854	0.0	0.0
N	-0.28363	-1.447857	-1.981868
O	-1.232379	-2.21979	-1.936446
O	0.82754	-1.663715	-2.438088
N	-2.000496	0.190543	-1.568587
O	-2.691387	-0.002084	-0.575719
O	-2.395536	0.517137	-2.680418
N	-0.341501	-1.172856	0.72654
H	0.380847	-1.338838	1.413139
H	-1.25112	-1.117261	1.163654
N	-0.45399	1.269758	0.631971
O	-0.44524	1.315401	1.860755
O	-0.775357	2.207903	-0.10084
F	2.465221	0.0	0.0
