17

C	-0.504604	0.06862	-1.40851
C	0.0	0.0	0.0
F	-1.817276	-0.183056	-1.573955
H	1.106615	0.0	0.0
N	-0.181641	1.351664	-2.150535
O	-0.720433	1.458483	-3.250976
O	0.616134	2.120602	-1.638895
N	0.238018	-1.002033	-2.214651
O	1.330338	-0.69307	-2.664291
O	-0.327887	-2.084483	-2.309739
N	-0.355559	-1.233563	0.640718
H	0.474911	-1.806543	0.708911
H	-1.110659	-1.733821	0.193853
N	-0.558753	1.137361	0.789328
O	-1.438901	1.844492	0.278062
O	-0.118417	1.281947	1.922798
F	2.489978	0.0	0.0
