17

C	-0.500439	0.178948	-1.40248
C	0.0	0.0	0.0
F	-1.821872	0.383574	-1.585707
H	1.113623	0.0	0.0
N	0.173511	1.338081	-2.10809
O	0.359912	1.232513	-3.315241
O	0.38389	2.326036	-1.415089
N	-0.138908	-1.080251	-2.186683
O	1.050904	-1.322699	-2.283087
O	-1.074451	-1.728505	-2.634963
N	-0.445138	-1.267024	0.502439
H	-1.356875	-1.224967	0.936675
H	0.252318	-1.610582	1.148291
N	-0.47549	1.113386	0.900181
O	0.333061	1.592799	1.688762
O	-1.679847	1.398007	0.87857
F	2.502426	0.0	0.0
