17

C	-0.516154	0.042595	-1.40778
C	0.0	0.0	0.0
F	-1.805791	-0.361726	-1.544712
H	1.105249	0.0	0.0
N	-0.369763	1.377082	-2.115019
O	-1.325827	1.781381	-2.756202
O	0.733663	1.888933	-2.009372
N	0.270303	-0.924802	-2.314771
O	0.296149	-0.630382	-3.507697
O	0.712945	-1.946436	-1.814303
N	-0.374262	-1.19011	0.705383
H	-1.154133	-1.677088	0.287744
H	0.436005	-1.791504	0.745114
N	-0.504295	1.182641	0.767533
O	-1.207167	2.021711	0.188784
O	-0.174629	1.247856	1.943436
F	2.477633	0.0	0.0
