17

C	-0.681634	0.029515	-1.331986
C	0.0	0.0	0.0
F	-2.024317	0.0577	-1.244607
H	1.101143	0.0	0.0
N	-0.261264	1.14512	-2.278536
O	-1.076258	1.406775	-3.160094
O	0.841936	1.637105	-2.118992
N	-0.312578	-1.24623	-2.092929
O	0.84967	-1.318181	-2.464642
O	-1.203802	-2.064048	-2.261819
N	-0.307337	-1.239072	0.644643
H	-1.178521	-1.221624	1.157303
H	0.455444	-1.453361	1.271552
N	-0.444172	1.189609	0.779738
O	-0.815138	2.194923	0.167506
O	-0.380485	1.107285	2.007293
F	2.459208	0.0	0.0
