17

C	-0.389265	0.025613	-1.456122
C	0.0	0.0	0.0
F	0.11688	1.079163	-2.094041
H	1.092106	0.0	0.0
N	0.121628	-1.208682	-2.220953
O	0.65897	-2.121366	-1.616694
O	-0.065542	-1.144151	-3.432928
N	-1.886133	-0.01871	-1.766129
O	-2.365689	0.828806	-2.497006
O	-2.479444	-0.963331	-1.246054
N	-0.402712	-1.098987	0.810774
H	0.378367	-1.734845	0.876906
H	-1.231189	-1.56906	0.480834
N	-0.496461	1.268098	0.626084
O	-0.01468	1.571412	1.708587
O	-1.370372	1.918029	0.037454
F	2.491353	0.0	0.0
