17

C	-0.505897	-0.008767	-1.413601
C	0.0	0.0	0.0
F	0.206268	0.714626	-2.271844
H	1.093929	0.0	0.0
N	-0.494487	-1.449551	-1.932429
O	-1.551919	-2.066456	-1.917949
O	0.590764	-1.848354	-2.322028
N	-1.96858	0.423636	-1.553733
O	-2.678636	0.263231	-0.568265
O	-2.316809	0.856567	-2.644132
N	-0.393731	-1.151181	0.730185
H	0.32288	-1.349859	1.414273
H	-1.292375	-1.03884	1.17995
N	-0.387742	1.295677	0.627041
O	-0.518776	2.273524	-0.112752
O	-0.492862	1.324505	1.851681
F	2.465806	0.0	0.0
