17

C	-0.432352	-0.005385	-1.44012
C	0.0	0.0	0.0
F	0.348951	0.686301	-2.261715
H	1.093725	0.0	0.0
N	-0.438419	-1.451353	-1.946944
O	-1.51335	-2.037351	-1.97296
O	0.649556	-1.884915	-2.286832
N	-1.870634	0.471831	-1.6641
O	-2.145007	0.907204	-2.774101
O	-2.639027	0.338192	-0.718795
N	-0.453101	-1.13658	0.713808
H	-1.395402	-1.017987	1.064632
H	0.186431	-1.31717	1.475204
N	-0.389354	1.310186	0.596299
O	-0.440309	2.287581	-0.153411
O	-0.575933	1.349004	1.811337
F	2.466209	0.0	0.0
