14

C	-0.273695	0.058734	-1.507018
C	0.000197	0.177946	-0.00584
F	-1.652264	-0.296862	-1.636936
H	1.045302	0.498434	0.093521
H	-0.223939	1.043141	-1.991694
N	0.548963	-0.922348	-2.082982
H	0.897834	-0.644922	-2.988094
H	1.338561	-1.198826	-1.455883
N	-0.107072	-1.073324	0.723837
H	-0.81143	-1.643253	0.268519
H	0.814005	-1.519179	0.58104
C	-0.872467	1.210956	0.577964
N	-1.554968	2.054434	1.027616
H	2.465257	-1.416829	-0.232452
