14

C	-0.716671	0.07871	-1.475237
C	0.024207	0.119313	-0.138648
F	-2.114683	0.052085	-1.201179
H	1.090727	0.266485	-0.328855
H	-0.573055	0.995158	-2.056583
N	-0.296237	-1.060827	-2.191127
H	-0.264779	-1.824742	-1.518902
H	-0.937412	-1.266447	-2.945239
N	-0.074994	-1.153893	0.545288
H	-0.776088	-1.114172	1.275634
H	0.903487	-1.283476	0.975429
C	-0.451605	1.276335	0.637385
N	-0.841511	2.190446	1.26432
H	2.35874	-1.077524	1.243399
