14

C	-0.3405	0.013861	-1.391338
C	-0.006767	0.229418	0.081713
F	-0.101437	1.230666	-2.082023
H	1.033074	0.580585	0.099955
H	0.376247	-0.721281	-1.762597
N	-1.682506	-0.419404	-1.575331
H	-2.323267	0.322325	-1.315305
H	-1.842322	-0.665695	-2.543093
N	-0.054524	-0.9921	0.86129
H	0.809849	-1.485255	0.532965
H	-0.853989	-1.525751	0.533198
C	-0.893182	1.268068	0.63478
N	-1.647974	2.076682	1.031532
H	2.193488	-1.639133	-0.469111
