14

C	-0.717416	0.081799	-1.474305
C	0.021677	0.119279	-0.136605
F	-2.115619	0.046597	-1.202064
H	1.08757	0.273279	-0.324852
H	-0.577829	1.002033	-2.050627
N	-0.290273	-1.05183	-2.195508
H	-0.255523	-1.819003	-1.527173
H	-0.929335	-1.256936	-2.951539
N	-0.071529	-1.15788	0.540637
H	0.907125	-1.284784	0.971218
H	-0.774002	-1.12585	1.27001
C	-0.461128	1.269773	0.644863
N	-0.856708	2.178488	1.276075
H	2.361352	-1.072858	1.241271
