14

C	-0.727235	0.050745	-1.470688
C	0.01214	0.117246	-0.134349
F	-2.125021	0.009492	-1.197599
H	1.076978	0.275907	-0.32552
H	-0.594806	0.961691	-2.06321
N	-0.291624	-1.092092	-2.172233
H	-0.929665	-1.315031	-2.924099
H	-0.25117	-1.84735	-1.490811
N	-0.071109	-1.148281	0.565693
H	-0.76996	-1.106915	1.29802
H	0.910822	-1.263076	0.991825
C	-0.479476	1.277869	0.626321
N	-0.89096	2.194174	1.236056
H	2.365619	-1.039192	1.246018
