13

C	-0.471409	-0.043572	-1.447338
C	0.0	0.0	0.0
Cl	-0.119361	1.545338	-2.234263
H	1.091399	0.0	0.0
H	-0.388069	0.879166	0.515106
H	-0.350909	-0.901064	0.512704
C	0.26376	-1.131045	-2.219286
H	1.335912	-0.956035	-2.114565
H	0.024265	-2.104321	-1.782523
H	-0.021945	-1.129103	-3.272412
C	-1.923669	-0.230201	-1.534614
N	-3.083095	-0.412426	-1.585858
Cl	3.534275	0.0	0.0
