15

C	-0.503409	0.029953	-1.445071
C	0.0	0.0	0.0
Cl	-2.176837	0.507882	-1.598896
H	1.096118	0.0	0.0
N	0.328306	1.010626	-2.278469
O	0.526727	0.696449	-3.442989
O	0.649149	2.039582	-1.708901
N	-0.269913	-1.34941	-2.084436
O	0.870677	-1.760487	-1.936109
O	-1.194703	-1.886565	-2.67174
C	-0.49599	-1.212204	0.648082
N	-0.912203	-2.185856	1.156899
C	-0.448978	1.169536	0.752108
N	-0.827203	2.075475	1.396916
Cl	3.094299	0.0	0.0
