16
Coordinates from ORCA-job run
  C   0.82620058862831      0.42740250010566     -0.51424371051934
  C   -0.67626796516447      0.23158188219884     -0.20458993302790
  Br  1.09495400343695      1.54852077912667     -2.06387082908877
  H   -1.09664514150565      1.24034593197409     -0.16889058672258
  N   1.45964982678813      1.12910989247533      0.68851125017084
  O   0.98629331177969      2.22111135459487      0.96754129351484
  O   2.32898791395349      0.52213231678728      1.30184066185312
  C   1.47651294214395     -0.85528496898358     -0.72912388655588
  N   1.91246895611209     -1.93186025574992     -0.91250960937220
  C   -0.85639586073253     -0.45551222101383      1.14921444481303
  H   -0.46761901765582      0.13632622300391      1.98003962709014
  H   -1.92414381059075     -0.60813391603506      1.31993422699577
  H   -0.36719970931158     -1.43398402926872      1.15801130059706
  N   -1.25451187684924     -0.48335992338747     -1.32497609156529
  H   -2.21330845400592     -0.20433505622380     -1.47804450669006
  H   -1.22797570702666     -1.48406050960427     -1.16984365149278
