16
Coordinates from ORCA-job run
  C   0.77446378486570      0.38505457116727     -0.55514727631780
  C   -0.69503149870071      0.11940797565284     -0.16645223170607
  Br  0.88293043644647      1.27253790118378     -2.27934280271309
  H   -1.18180239278387      1.10391902597417     -0.17451362347522
  N   1.36002057582555      1.33482890939858      0.49387280759819
  O   2.26603889235511      0.90241321381976      1.19535954008596
  O   0.81233961831346      2.42415031191394      0.58506558267480
  C   1.55546299962817     -0.83876970388049     -0.60199099284929
  N   2.16510703526787     -1.84324954369445     -0.63515792092306
  C   -0.76351407244204     -0.47729893799860      1.23345912752688
  H   -0.32473526781199      0.17966720819105      1.98542403816866
  H   -0.25764661535290     -1.44498217229004      1.26313432382920
  H   -1.81200503415475     -0.62611003194269      1.50409453861208
  N   -1.23154097327347     -0.82344365560495     -1.12872085743393
  H   -2.02750818427993     -1.31062820453256     -0.73924591279896
  H   -1.52357930390267     -0.35749686735760     -1.97783834027835
