16
Coordinates from ORCA-job run
  C   0.81238595829533      0.52062415627182     -0.11391403104815
  C   -0.43796712639637     -0.38125213909150     -0.02868284935685
  Br  1.05771460454263      1.57840385669436      1.48259032350572
  H   -0.43893312251296     -0.91141101187778     -0.98662618122203
  N   2.01400247535978     -0.43595889422469     -0.31293886326028
  O   2.86624108159813     -0.51698136047905      0.54803858882624
  O   1.95196541945694     -1.05675314209754     -1.36650071127085
  C   0.76434009498236      1.40445305258025     -1.26841916445604
  N   0.67913042915160      2.11046716627009     -2.20504259754007
  C   -1.72534243525891      0.42456858411106      0.09832601716223
  H   -1.83280055666574      1.15959383546282     -0.70323213209322
  H   -1.76586739343228      0.94618486107333      1.05659998225918
  H   -2.57435238019674     -0.26100260670909      0.04646854589851
  N   -0.19114461955807     -1.36296879199316      1.01025310590635
  H   -0.46825288736379     -1.00870386448724      1.91775969549228
  H   -0.71111954200191     -2.21026370150369      0.82532027119698
