16
Coordinates from ORCA-job run
  C   0.80860764010892      0.53824046043629     -0.03226452582409
  C   -0.42828739012823     -0.38494108063080     -0.07676094143541
  Br  0.92221358009255      1.52487850841249      1.62295999398183
  H   -0.35275653285241     -0.86951444499498     -1.05565693682342
  N   2.03819014408798     -0.39087432155281     -0.18793903178226
  O   2.05999344867872     -0.96578842233264     -1.26881297562246
  O   2.82993103836068     -0.49742772764040      0.72629737808273
  C   0.82706644862444      1.47261356661202     -1.14716201918815
  N   0.79837157498865      2.21754081693195     -2.05679295458124
  C   -1.73531380841709      0.39537315461002     -0.00350907717010
  H   -1.85275043347191      0.86710638086561      0.97407399164590
  H   -1.79839627502106      1.16874565233688     -0.77300849011559
  H   -2.56661531914319     -0.29815146028608     -0.14991670278689
  N   -0.23768559659916     -1.41039240148375      0.93111349727353
  H   -0.59128574188777     -1.10719221554237      1.83035014097415
  H   -0.71928277742115     -2.25921646574137      0.66702865337152
