16
Coordinates from ORCA-job run
  C   0.82203591126386      0.48783556205765     -0.17112532731424
  C   -0.44556849993641     -0.37381098698498      0.01355091100256
  Br  1.09056101445675      1.71326906540176      1.29695952752997
  H   -0.45755043630788     -1.00830847378295     -0.87875057401524
  N   2.00431782212884     -0.50841366300345     -0.26071101306920
  O   1.93011638744910     -1.23997126498796     -1.23975139420396
  O   2.85406838130636     -0.51154632712469      0.60650963084324
  C   0.79000140435066      1.23779976045466     -1.41722267303830
  N   0.71931861952239      1.83686091969460     -2.42674165847784
  C   -1.71679306448260      0.46621644427817      0.04765735151478
  H   -1.74617372056218      1.09289172609225      0.94115156835749
  H   -2.57906567653167     -0.20414393297321      0.07250065137615
  H   -1.81103101279314      1.10831637383406     -0.83157464385560
  N   -0.21642324800564     -1.23800477840746      1.15577878106371
  H   -0.76417148970586     -2.08399365224965      1.07283772512753
  H   -0.47264239215257     -0.77399677229876      2.01893113715894
