16
Coordinates from ORCA-job run
  C   0.77533092697434      0.40432969690648     -0.04046055953726
  C   -0.54364105129701     -0.42132784241015     -0.08658943211888
  Br  1.15387664545417      1.06016240632514      1.75055282637905
  H   -0.54876778152284     -0.85155342993794     -1.09506412152318
  N   2.00019021504175     -0.44653473209290     -0.45605620530747
  O   1.81074673782532     -1.64298470045228     -0.64184571348621
  O   3.05715148973652      0.15282157203919     -0.57359196384124
  C   0.75360118645329      1.53089938567318     -0.96051378719223
  N   0.66820828945323      2.41780126829453     -1.72876829515075
  C   -1.74951732750517      0.49643866785910      0.06951082455802
  H   -1.75697344771461      0.96476464800581      1.05678052487842
  H   -2.64639279191262     -0.11657315490191     -0.02294711877322
  H   -1.77816258946839      1.28097061348744     -0.68720513792216
  N   -0.64176732797247     -1.50660015725686      0.85428253326166
  H   -0.67853472756660     -1.16502249419683      1.80612228857651
  H   0.12465155402108     -2.15659174734198      0.75379333719895
