16
Coordinates from ORCA-job run
  C   0.67671630256400      0.59645358044604     -0.50042277145495
  C   -0.74876471344576     -0.04860311881270     -0.29804642644126
  Br  0.55385380604065      2.49613417046967     -0.81980156259413
  H   -1.34537889567301      0.38317337277164     -1.10808333384380
  N   1.48118764093966      0.31572109766444      0.77187928509976
  O   1.58948236138308      1.19203546409256      1.61217926239265
  O   1.86216291972780     -0.84887417817967      0.86566813081397
  C   1.36621764867054     -0.02242683997034     -1.61979389927493
  N   1.85565906585463     -0.53884590950566     -2.55611508541833
  C   -1.33760673467553      0.35564903347111      1.04562382969932
  H   -1.28494054808034      1.43094283797326      1.21537641933560
  H   -0.81733391012417     -0.15050443225694      1.86372082895033
  H   -2.38014334302462      0.03864976753596      1.06828551492055
  N   -0.78148345319363     -1.47998588679395     -0.43787144237126
  H   -0.20126456803309     -1.93672769786607      0.25473666003075
  H   -0.48836357893021     -1.78279126103931     -1.35833540984428
