16
Coordinates from ORCA-job run
  C   0.92080351519211      0.27125432030968     -0.45439701087001
  C   -0.61980826154502      0.25201917547542     -0.32397155598685
  Br  1.48591542406588      1.10919836839058     -2.10095071667095
  H   -0.93602236141984      1.28550492242825     -0.48975685751296
  N   1.47530461226619      1.09828220126652      0.70663061261745
  O   2.19967084165680      0.52564676028218      1.51151035686790
  O   1.08459609007719      2.25556470149112      0.75942491109244
  C   1.45812718477032     -1.07857236887896     -0.39332601658789
  N   1.80479801660619     -2.20162442841378     -0.36000537149361
  C   -1.03031465697364     -0.19898293425624      1.07790712727049
  H   -0.68234826554009      0.47825769849729      1.86029805938398
  H   -2.12082607730991     -0.23080895066074      1.12570870428655
  H   -0.65075057183350     -1.20272147102113      1.29094402804429
  N   -1.13011742558283     -0.57828949001060     -1.39682235781492
  H   -1.22899337099502     -1.54029633724061     -1.09588111955291
  H   -2.02803469343474     -0.24543216765899     -1.71831279307306
