16
Coordinates from ORCA-job run
  C   0.88814344177927      0.29761738500509     -0.42212045431587
  C   -0.64389585012071      0.18765482172761     -0.27462195072490
  Br  1.36080213833803      1.14737220154524     -2.10364346860658
  H   -1.01964063640930      1.21652659175507     -0.35486090990157
  N   1.39347896283636      1.19635130417498      0.70994020049533
  O   2.12855148585267      0.68379451631112      1.54481457308391
  O   0.95277617621514      2.33684088118795      0.71654583723310
  C   1.53714146009412     -0.99976219868647     -0.34818098236991
  N   2.03719059525210     -2.06184974864049     -0.28734282365513
  C   -0.99508655553383     -0.38369373672071      1.09313086385279
  H   -0.60369003253144     -1.39820753987834      1.19640620710589
  H   -0.61483621045914      0.23178800325867      1.90934753493472
  H   -2.08289120148220     -0.42001032129924      1.19319196081183
  N   -1.11389341268478     -0.70654607930798     -1.31493552991910
  H   -1.21727249134244     -0.22296045453282     -2.19752398196688
  H   -2.00787786980374     -1.10491562589971     -1.06014707605759
