16
Coordinates from ORCA-job run
  C   0.84362981864199      0.32423839632054     -0.40771530422752
  C   -0.70619182593811      0.26608251708260     -0.23816847177013
  Br  1.33126160006925      1.29100628073723     -2.01723357704242
  H   -1.03349590021491      1.30978098337067     -0.27318979378814
  N   1.41722699831148      1.07980884408254      0.78844241999440
  O   2.11835311674094      0.44254174210634      1.56546924256960
  O   1.05310534249796      2.24117490393514      0.90296283501222
  C   1.41207251105508     -1.01132002300985     -0.46798126766353
  N   1.77060983309456     -2.12810291951376     -0.55429658584723
  C   -1.05406425078764     -0.34052245271003      1.11578419258898
  H   -2.14091036307607     -0.38462357208724      1.19130630605768
  H   -0.67443784067622      0.25311781802359      1.94827641190687
  H   -0.66230624924009     -1.35772367580070      1.20645136948233
  N   -1.37393055215150     -0.46452420116575     -1.28401196413921
  H   -1.11522546363606     -1.44435579982449     -1.27628386696696
  H   -1.18669677469063     -0.07757884154681     -2.19981194616694
