19

C	0.0	0.0	0.0
C	-0.67215	-0.113423	-1.364372
Cl	1.770904	0.0	0.0
H	-1.740096	-0.259468	-1.140062
C	-0.508301	1.217078	0.738903
H	-0.124277	2.118612	0.260232
H	-0.147588	1.184557	1.765286
H	-1.602896	1.205114	0.719626
N	-0.376428	-1.247996	0.823293
O	-0.822819	-2.211528	0.212939
O	-0.158785	-1.197603	2.027494
N	-0.277868	-1.298153	-2.200631
O	-1.168387	-1.750639	-2.915711
O	0.887428	-1.688272	-2.196328
C	-0.488448	1.120192	-2.235068
H	-1.052127	1.950283	-1.81235
H	0.565454	1.391111	-2.336811
H	-0.904073	0.913302	-3.222094
Cl	-3.759059	0.0	0.0
