19

C	0.0	0.0	0.0
C	-0.27351	0.015525	-1.545111
Cl	1.782387	0.0	0.0
H	0.426722	0.783015	-1.875826
C	-0.538527	1.192156	0.743743
H	-0.234537	2.104927	0.234572
H	-1.631624	1.117076	0.744915
H	-0.156054	1.184042	1.762608
N	-0.409795	-1.275128	0.740264
O	-0.393284	-1.201701	1.962441
O	-0.653101	-2.282706	0.090375
N	-1.569269	0.646815	-2.040274
O	-2.303988	-0.023981	-2.749878
O	-1.683184	1.850305	-1.821852
C	-0.010206	-1.255404	-2.336319
H	0.895481	-1.748468	-1.985515
H	-0.848449	-1.938477	-2.255779
H	0.122262	-0.984074	-3.386383
Cl	-3.748422	0.0	0.0
