18

C	0.0	0.0	0.0
C	-0.250691	0.114363	-1.547414
F	1.395584	0.0	0.0
H	0.475907	0.907174	-1.794541
C	-0.560167	1.152512	0.788631
H	-1.653335	1.02541	0.748662
H	-0.189771	1.120335	1.817747
H	-0.252031	2.089688	0.317121
C	-0.429414	-1.294155	0.552676
N	-0.665309	-2.339935	1.031385
N	-1.570739	0.513487	-1.986036
H	-1.86162	-0.123691	-2.718002
H	-2.269531	0.370604	-1.200283
C	0.232031	-1.164878	-2.234899
H	-0.457153	-1.985874	-2.019262
H	0.242756	-1.002061	-3.317199
H	1.238537	-1.451723	-1.923102
F	-3.062881	0.0	0.0
