18

C	0.0	0.0	0.0
C	-0.239074	0.201772	-1.532867
F	1.401584	0.0	0.0
H	0.495648	-0.497321	-1.968404
C	-0.641496	1.013456	0.897433
H	-0.342897	0.842447	1.93598
H	-0.362506	2.016067	0.576896
H	-1.731739	0.833164	0.757954
C	-0.387537	-1.371783	0.388027
N	-0.572534	-2.480506	0.726682
N	0.131597	1.593178	-1.829929
H	-0.097519	1.777857	-2.799413
H	1.135247	1.692592	-1.724091
C	-1.600203	-0.122487	-2.112778
H	-1.608124	0.193906	-3.165532
H	-2.418779	0.293113	-1.503476
H	-1.76047	-1.203518	-2.085349
F	-3.173302	0.0	0.0
