18

C	0.0	0.0	0.0
C	-0.316383	-0.174339	-1.519241
F	1.395756	0.0	0.0
H	0.519334	0.383191	-1.966458
C	-0.557882	1.27818	0.571156
H	-1.647085	1.140064	0.570721
H	-0.278397	2.112518	-0.07202
H	-0.177652	1.434572	1.584656
C	-0.410841	-1.157175	0.816559
N	-0.605781	-2.104586	1.480331
N	-1.553657	0.444528	-1.938259
H	-1.791987	0.061768	-2.844037
H	-2.322175	0.21727	-1.242874
C	-0.153828	-1.639675	-1.92987
H	-0.974739	-2.233672	-1.526397
H	0.800756	-2.054405	-1.587264
H	-0.187652	-1.711117	-3.022679
F	-3.119599	0.0	0.0
