18

C	0.0	0.0	0.0
C	-0.532676	0.280525	-1.437745
F	1.388145	0.0	0.0
H	-1.16703	1.173246	-1.339808
C	-0.492183	1.037382	0.986327
H	-0.081629	0.839358	1.9804
H	-0.163691	2.025957	0.650918
H	-1.586156	0.945615	0.957071
C	-0.375024	-1.348619	0.480106
N	-0.515776	-2.391627	1.000353
N	-1.327211	-0.856753	-1.889698
H	-1.670656	-0.62301	-2.81832
H	-2.145577	-0.779989	-1.243118
C	0.605886	0.572363	-2.406314
H	1.264915	-0.292454	-2.500077
H	1.198822	1.436228	-2.091661
H	0.18034	0.793596	-3.392129
F	-2.903894	0.0	0.0
