17

C	-0.374146	-0.035758	-1.459155
C	0.0	0.0	0.0
Br	-2.309157	-0.488953	-1.747421
H	1.09458	0.0	0.0
H	-0.291021	-0.97403	0.408904
N	-0.19855	1.356456	-2.058823
O	-1.031197	2.216339	-1.785188
O	0.814066	1.542777	-2.728866
C	0.478289	-1.029339	-2.207199
H	0.244883	-2.029457	-1.837904
H	0.301695	-0.989648	-3.282713
H	1.526017	-0.805483	-1.967514
C	-0.552255	1.12604	0.85507
H	-0.126527	2.087499	0.564743
H	-1.641454	1.200852	0.800004
H	-0.262003	0.945436	1.893561
H	2.896458	0.0	0.0
