17

C	-0.409349	0.244238	-1.433446
C	0.0	0.0	0.0
Br	-0.097889	-1.375128	-2.502048
H	1.093344	0.0	0.0
H	-0.373761	-0.971229	0.328108
N	-1.922776	0.461104	-1.499373
O	-2.334258	1.500395	-2.014186
O	-2.638379	-0.383764	-0.97272
C	0.339715	1.387676	-2.070841
H	1.405064	1.18541	-1.91665
H	0.102671	1.483841	-3.1314
H	0.082847	2.323168	-1.569901
C	-0.475593	1.099215	0.946312
H	-1.566422	1.158042	1.022309
H	-0.075333	0.885398	1.940576
H	-0.086869	2.077483	0.656292
H	2.948777	0.0	0.0
