15

C	0.0	0.0	0.0
C	-0.527945	-0.10357	-1.421879
Br	1.948384	0.0	0.0
H	-0.086986	-0.950384	-1.936022
H	-1.621855	-0.167105	-1.358213
N	-0.527057	1.077878	0.693513
H	-1.5481	1.076424	0.559003
H	-0.311576	1.008363	1.680489
N	-0.309881	-1.389837	0.685919
O	-0.341047	-2.389102	-0.019897
O	-0.449829	-1.354228	1.900236
N	-0.179954	1.11457	-2.201564
O	-0.885213	2.108815	-2.051219
O	0.785587	1.033991	-2.965713
Br	-3.696547	0.0	0.0
