16

C	-0.350391	0.011701	-1.508019
C	0.0	0.0	0.0
Cl	0.007554	-1.68318	-2.166892
H	1.09613	0.0	0.0
N	-1.773885	0.174845	-1.710323
H	-2.015802	-0.039269	-2.67242
H	-1.987769	1.151286	-1.531938
N	0.455595	0.999241	-2.121525
H	1.432499	0.891463	-1.845293
H	0.374103	0.977856	-3.131072
N	-0.529586	-1.094613	0.781954
H	-1.441205	-1.343815	0.410388
H	0.093717	-1.885174	0.670074
C	-0.487518	1.272725	0.551158
N	-0.944403	2.264723	0.983631
Cl	3.328176	0.0	0.0
