16

C	-0.456142	-0.036146	-1.470409
C	0.0	0.0	0.0
Cl	0.158741	1.505722	-2.252456
H	1.093037	0.0	0.0
N	0.131469	-1.133111	-2.191075
H	1.138515	-0.982928	-2.201494
H	-0.031131	-1.94391	-1.597035
N	-1.875391	-0.149064	-1.544759
H	-2.317513	0.697772	-1.206385
H	-2.129966	-0.297534	-2.513863
N	-0.401547	-1.26253	0.616226
H	-1.37065	-1.232266	0.908916
H	0.196068	-1.438659	1.415895
C	-0.541109	1.171926	0.700709
N	-1.053389	2.045138	1.299257
Cl	3.320519	0.0	0.0
