16

C	-0.227885	-0.042822	-1.517373
C	0.0	0.0	0.0
Cl	-2.000066	-0.105887	-1.893271
H	1.106936	0.0	0.0
N	0.302293	1.11497	-2.202856
H	-0.156227	1.957465	-1.870631
H	1.290499	1.176246	-1.956143
N	0.37412	-1.265206	-1.981938
H	0.317477	-1.267602	-2.997269
H	1.361548	-1.239676	-1.712659
N	-0.571537	-1.148146	0.700173
H	0.050306	-1.364808	1.472939
H	-0.509755	-1.92534	0.049551
C	-0.495862	1.256067	0.560141
N	-0.879097	2.271074	1.00948
Cl	3.337753	0.0	0.0
