16

C	-0.171451	-0.015539	-1.532669
C	0.0	0.0	0.0
Cl	-1.918961	-0.072989	-2.012809
H	1.101131	0.0	0.0
N	0.371295	1.221123	-2.036527
H	0.391695	1.201564	-3.050201
H	1.33079	1.290093	-1.696451
N	0.423802	-1.258652	-1.988775
H	1.405411	-1.224026	-1.709348
H	0.385864	-1.292459	-3.000993
N	-0.49693	-1.154025	0.718283
H	0.061778	-1.94955	0.436084
H	-1.451956	-1.334546	0.423765
C	-0.527949	1.231512	0.583783
N	-0.971388	2.187068	1.101834
Cl	3.30914	0.0	0.0
