16

C	-0.411873	-0.060931	-1.487376
C	0.0	0.0	0.0
Cl	-0.06521	1.598109	-2.218386
H	1.101293	0.0	0.0
N	0.371521	-1.090664	-2.05807
H	1.362813	-0.915359	-1.903448
H	0.16325	-1.181	-3.043718
N	-1.805876	-0.324023	-1.74725
H	-2.345379	0.490051	-1.475236
H	-2.054879	-1.081234	-1.115066
N	-0.518417	-1.235488	0.630015
H	-0.282088	-1.194088	1.616514
H	0.040124	-1.986755	0.234828
C	-0.574726	1.148337	0.688632
N	-1.072497	2.028698	1.285619
Cl	3.334639	0.0	0.0
