16

C	-0.396941	0.024433	-1.492887
C	0.0	0.0	0.0
Cl	-0.032836	-1.578357	-2.197394
H	1.094811	0.0	0.0
N	-1.820454	0.243164	-1.625997
H	-2.036448	0.242681	-2.61766
H	-2.035254	1.169103	-1.266552
N	0.393419	0.983847	-2.240738
H	1.37993	0.776555	-2.080688
H	0.222875	1.905443	-1.847468
N	-0.520401	-1.125886	0.737924
H	-0.013566	-1.219883	1.608243
H	-1.508231	-1.007576	0.922803
C	-0.425222	1.304983	0.555636
N	-0.848039	2.315505	0.985216
Cl	3.330013	0.0	0.0
