16

C	-0.429534	-0.018775	-1.479948
C	0.0	0.0	0.0
Cl	0.16728	-1.661105	-2.13187
H	1.093768	0.0	0.0
N	-1.828919	0.118856	-1.591978
H	-2.120044	-0.022056	-2.548958
H	-2.276711	-0.550506	-0.980292
N	0.235871	0.964679	-2.282611
H	-0.063784	1.880962	-1.957708
H	1.240739	0.877942	-2.133853
N	-0.606053	-1.114746	0.746572
H	-0.519256	-0.906116	1.73553
H	-0.008772	-1.920701	0.579455
C	-0.453766	1.266277	0.577683
N	-0.800402	2.276203	1.067292
Cl	3.334905	0.0	0.0
