16

C	-0.343703	-0.087994	-1.50168
C	0.0	0.0	0.0
Cl	0.10227	1.603164	-2.258484
H	1.096631	0.0	0.0
N	0.461255	-1.101947	-2.069286
H	0.407347	-1.089503	-3.080681
H	1.431911	-0.948854	-1.792847
N	-1.734137	-0.33069	-1.715115
H	-1.913624	-0.499659	-2.697183
H	-2.262163	0.488068	-1.436786
N	-0.433753	-1.190146	0.725361
H	0.292304	-1.888265	0.616862
H	-1.276645	-1.54267	0.282665
C	-0.594648	1.187566	0.613157
N	-1.14461	2.099212	1.108704
Cl	3.311503	0.0	0.0
