12
Coordinates from ORCA-job run
  C   -0.81396341210272     -0.03783782845064     -0.00924897658267
  C   0.64137663988709      0.49615712084048     -0.03072144602091
  H   -1.47674844791561      0.82537490698285      0.08985596446779
  H   0.85563595573759      0.87717973028447      0.97322826788980
  H   -1.01870691463653     -0.50480118116065     -0.97938157246679
  N   -0.96102043110273     -0.93255292277483      1.12138182041973
  H   -1.82777236576061     -0.77489555604047      1.61328940765506
  H   -0.90369811580026     -1.90325179475408      0.84947437357173
  C   0.80456047314858      1.58005538378691     -1.00306393407524
  N   0.88275204350806      2.49989421648110     -1.72767438338762
  C   1.56585280594179     -0.60793661774849     -0.30771682841805
  N   2.25273176909535     -1.51738545744666     -0.58842269305280
