12
Coordinates from ORCA-job run
  C   -0.57315702418434     -0.57433938876554     -0.04630876328291
  C   0.80644952678465      0.13216750099635     -0.05811502565942
  H   -1.09904481708574     -0.30221354759999     -0.96703151137377
  H   1.31537969783276     -0.12179967127308      0.87758011214781
  H   -0.39255536619989     -1.65201505104202     -0.07717548668220
  N   -1.28288101529444     -0.18410404908824      1.15810746082754
  H   -1.60477908598599     -0.98612810088171      1.67861179499653
  H   -2.07379358869634      0.40823335523446      0.95373176040500
  C   0.61702412611797      1.58537600729411     -0.09555900366123
  N   0.41744979225995      2.74110545162547     -0.13655668642226
  C   1.62460216420704     -0.31713930160722     -1.18918206247586
  N   2.24330559024436     -0.72814320489260     -2.09810258881922
