16

C	0.0	0.0	0.0
C	-0.250184	-0.187428	-1.548812
Cl	1.821558	0.0	0.0
H	0.382089	0.572224	-2.006967
N	-0.595564	1.242711	0.367527
H	-0.396464	1.414596	1.348919
H	-1.62085	1.00065	0.292363
C	-0.386035	-1.121929	0.872445
N	-0.624793	-1.927219	1.695252
N	-1.559226	-0.175726	-2.06924
H	-1.718794	0.71093	-2.524695
H	-2.267098	-0.266737	-1.287754
N	0.402488	-1.491859	-2.003059
O	0.059896	-2.529658	-1.445667
O	1.162784	-1.424684	-2.969051
F	-2.925084	0.0	0.0
