16

C	0.0	0.0	0.0
C	-0.531317	-0.089014	-1.440232
Cl	1.793395	0.0	0.0
H	-1.628948	-0.088237	-1.272071
N	-0.53521	1.158564	0.633425
H	-0.295452	1.122345	1.619113
H	-1.571249	0.967524	0.525296
C	-0.365184	-1.273401	0.669721
N	-0.563385	-2.234941	1.316065
N	-0.040355	-1.239288	-2.113404
H	-0.61893	-1.443408	-2.916281
H	0.913478	-1.088335	-2.417405
N	-0.181587	1.201784	-2.168132
O	-0.965563	2.141332	-2.085683
O	0.860044	1.212947	-2.833607
F	-2.769437	0.0	0.0
