16

C	0.0	0.0	0.0
C	-0.527885	0.028951	-1.445267
Cl	1.79338	0.0	0.0
H	-1.624365	-0.011619	-1.281989
N	-0.540622	1.100576	0.721886
H	-0.310902	0.986369	1.703491
H	-1.57883	0.91797	0.591755
C	-0.361392	-1.3288	0.553288
N	-0.575395	-2.351884	1.090917
N	-3e-06	-1.036361	-2.221682
H	-0.558722	-1.1714	-3.05262
H	0.956045	-0.836263	-2.488739
N	-0.213593	1.392962	-2.046359
O	0.848297	1.504954	-2.667934
O	-1.04231	2.287447	-1.916463
F	-2.771885	0.0	0.0
