16

C	0.0	0.0	0.0
C	-0.532213	0.417094	-1.415808
Cl	1.793703	0.0	0.0
H	-1.583948	0.652532	-1.173738
N	-0.502963	0.74835	1.107859
H	-0.297879	1.725415	0.924109
H	-1.53323	0.599359	0.96833
C	-0.379952	-1.415804	0.181336
N	-0.562501	-2.566302	0.325545
N	-0.480869	-0.562835	-2.446317
H	0.398915	-1.06516	-2.449389
H	-1.238455	-1.21212	-2.278534
N	0.187116	1.659303	-1.84462
O	0.858253	1.642922	-2.872688
O	0.080656	2.638607	-1.100049
F	-2.720624	0.0	0.0
