16

C	0.0	0.0	0.0
C	-0.389075	-0.222367	-1.530175
Cl	1.789979	0.0	0.0
H	0.522764	-0.15143	-2.127989
N	-0.50815	1.208713	0.567472
H	-1.531232	0.999744	0.58383
H	-0.374644	1.938784	-0.126168
C	-0.416485	-1.108051	0.875456
N	-0.648297	-1.964682	1.644323
N	-1.354467	0.697299	-1.964404
H	-1.570055	0.527331	-2.937614
H	-2.185234	0.524859	-1.342635
N	-0.759651	-1.706239	-1.770585
O	0.071762	-2.537745	-1.407838
O	-1.785262	-1.953586	-2.394256
F	-2.77011	0.0	0.0
