16

C	0.0	0.0	0.0
C	-0.220807	0.126572	-1.564657
Cl	1.834351	0.0	0.0
H	0.505488	-0.589993	-1.959863
C	-0.371589	1.227701	0.730157
N	-0.586754	2.211677	1.336191
N	-0.599662	-1.191175	0.46407
H	-1.64656	-0.899542	0.340669
H	-0.415528	-1.276512	1.460328
C	0.222845	1.450497	-2.014245
N	0.542462	2.500826	-2.432216
C	-1.556883	-0.218526	-2.224
H	-1.811422	-1.250794	-1.990346
H	-1.41058	-0.117944	-3.306371
H	-2.364487	0.396101	-1.845883
F	-2.786984	0.0	0.0
