16

C	0.0	0.0	0.0
C	-0.212803	0.240686	-1.572644
Cl	1.797124	0.0	0.0
H	0.454714	-0.507681	-2.017705
C	-0.426174	1.179956	0.767755
N	-0.63039	2.162622	1.377383
N	-0.60451	-1.161526	0.524387
H	-0.404195	-1.937362	-0.101714
H	-1.64954	-0.874284	0.430986
C	0.331968	1.546207	-1.959044
N	0.725203	2.592114	-2.32272
C	-1.581623	0.060728	-2.226908
H	-1.435611	0.173369	-3.308346
H	-1.973436	-0.9296	-2.009187
H	-2.311099	0.757797	-1.833458
F	-2.796001	0.0	0.0
