16

C	0.0	0.0	0.0
C	-0.52616	-0.138784	-1.439583
Cl	1.793473	0.0	0.0
H	-1.625616	-0.164668	-1.235831
C	-0.357274	1.345273	0.519098
N	-0.536603	2.405033	0.995014
N	-0.536527	-1.070994	0.77704
H	-1.569627	-0.881282	0.661223
H	-0.280426	-0.932951	1.750029
C	-0.091125	-1.410122	-2.005129
N	0.228503	-2.405792	-2.542413
C	-0.168885	1.025965	-2.357588
H	-0.601823	0.858639	-3.346553
H	0.912118	1.142235	-2.46818
H	-0.588668	1.950511	-1.95616
F	-2.769259	0.0	0.0
