16

C	0.0	0.0	0.0
C	-0.535087	-0.087493	-1.440148
Cl	1.787521	0.0	0.0
H	-1.632277	-0.140962	-1.225548
C	-0.36775	1.319945	0.568352
N	-0.576354	2.372467	1.048615
N	-0.530799	-1.105505	0.737201
H	-0.264735	-1.009407	1.712714
H	-1.563566	-0.91794	0.63918
C	-0.07107	-1.318824	-2.066823
N	0.284549	-2.268432	-2.661229
C	-0.209325	1.123616	-2.307833
H	-0.63322	0.984807	-3.305861
H	-0.657392	2.018854	-1.871456
H	0.868858	1.274687	-2.408669
F	-2.770131	0.0	0.0
