17
Coordinates from ORCA-job run
  C   -0.58053614030449      0.13932746582755     -0.35333791216669
  C   0.81846489273155     -0.05051976608948      0.22992327936765
  Cl  -0.51860637791521      0.66874006109276     -2.02483164052481
  H   0.70238446788283     -0.36170496582785      1.27353680884050
  N   -1.32947239807161      1.16975665703672      0.50815447537284
  O   -2.06162577428363      1.97405797776409     -0.03707771403561
  O   -1.18126886488061      1.00983804708664      1.71614627533383
  C   -1.41442400868740     -1.13009739426960     -0.23945717466166
  H   -1.02680729162571     -1.91291404024521     -0.89096130561760
  H   -1.42405265543861     -1.47989099293951      0.79445817787345
  H   -2.43574412875931     -0.91071835294599     -0.55555905529704
  N   1.57357355107169      1.26479421014472      0.35496226457512
  O   0.99312999839403      2.31847830205553      0.12337676294921
  O   2.73607937078112      1.13864888936894      0.72148245248753
  N   1.63485712749529     -0.90433573589985     -0.58164392055526
  H   2.40461007067585     -1.27499403711291     -0.04298572173973
  H   1.10943816093422     -1.65846632504655     -0.99718605220174
