17
Coordinates from ORCA-job run
  C   -0.69129955157713     -0.28545336839131     -0.29103214084152
  C   0.82084767849486     -0.06623363176132     -0.44589991127305
  Cl  -1.15463634834720     -1.86452589174814     -0.94963668669844
  H   1.08491157600636     -0.19814881611881     -1.49301527060378
  N   -1.30946650535088      0.77091768865810     -1.22410175469740
  O   -2.19910764661076      1.47420884236425     -0.76468908721354
  O   -0.86423635621292      0.81529228952625     -2.36297977097191
  C   -1.23062281124169     -0.12022788170603      1.10632621653191
  H   -0.78395384190669     -0.86698968438783      1.76107926979830
  H   -1.01197222514929      0.87964670121628      1.48037456010151
  H   -2.31123249444053     -0.24973745608398      1.09770284557449
  N   1.56105508353481     -1.17723384945422      0.29008096693171
  O   1.68225215363970     -1.04123777595545      1.50742154176941
  O   1.99696946692660     -2.10629526834283     -0.38190422312865
  N   1.16059797227705      1.23260217460395      0.01701030092350
  H   1.21366417992416      1.25740442182206      1.02784855779151
  H   2.03922967003356      1.54501150575905     -0.37358541399404
