17
Coordinates from ORCA-job run
  C   -0.60454744233457     -0.32302615235042     -0.35252963989651
  C   0.92026791214434     -0.05082122503258     -0.38363658121228
  Cl  -0.96955854855550     -1.80707144882471     -1.25035478702458
  H   1.26574078764737     -0.19377698303078     -1.40532467612513
  N   -1.18120768351554      0.84030802772360     -1.16998933613071
  O   -0.69039177297248      1.01673693104742     -2.27964462838957
  O   -2.05483401138093      1.52476224135718     -0.65000424169160
  C   -1.24994546275183     -0.37175436120621      1.00907559747444
  H   -1.03286814206939      0.53114318780491      1.57978007695723
  H   -2.32989706288723     -0.45235962577453      0.89658620629080
  H   -0.88187073729768     -1.23698779796997      1.55688017291608
  N   1.60077710674226     -1.11264683296433      0.43819176538745
  O   2.10609021148969     -2.05596601082302     -0.16160020711229
  O   1.59355100288190     -0.94106259774257      1.65507959222073
  N   1.34356077567891      1.21844148155696      0.10140999258838
  H   0.95139097299902      1.46570995552409      0.99801109315432
  H   1.21374209418168      1.95037121070496     -0.58093039940675
