17
Coordinates from ORCA-job run
  C   -0.67248956776731     -0.27459785309375     -0.41545315926685
  C   0.86440525900200     -0.35442164787295     -0.27241134607702
  Cl  -1.09532037173420     -1.20190898734765     -1.85841778201001
  H   1.13161477209367     -1.40235645612143     -0.41165028783566
  N   -1.03736152728363      1.19257984634103     -0.63607359750317
  O   -1.83481845019021      1.50270456170496     -1.50355060255660
  O   -0.50226663016328      1.94787988232604      0.17418768149722
  C   -1.51022857335183     -0.74687116137451      0.75608170832807
  H   -2.56316458542941     -0.67019379993062      0.47898789950287
  H   -1.31965118212005     -0.13422062228863      1.63639565770661
  H   -1.27684728994660     -1.78430234182279      0.98893582798180
  N   1.31447481932641     -0.08804512307423      1.17953947037843
  O   1.95540116684699      0.93065187300228      1.40455224820119
  O   1.03251726024786     -0.96255513473545      1.99500540837883
  N   1.51737135652591      0.46223461394272     -1.22162907528103
  H   2.46675302330681      0.15574983918408     -1.38001636468524
  H   1.53061052063686      1.42767251116091     -0.91648368675942
