16

C	0.0	0.0	0.0
C	-0.529079	-0.16116	-1.438109
Br	2.021488	0.0	0.0
H	-1.612749	-0.339675	-1.272075
N	-0.515934	1.160668	0.586049
H	-0.646317	1.120569	1.58334
H	-0.076132	2.01183	0.275232
C	-0.332551	-1.183745	0.797761
N	-0.533174	-2.150133	1.43619
C	0.059711	-1.316487	-2.107989
N	0.49852	-2.236987	-2.691357
C	-0.379559	1.109681	-2.268915
H	0.661704	1.43943	-2.317719
H	-1.010639	1.885561	-1.835264
H	-0.732491	0.922725	-3.283686
Br	-3.754143	0.0	0.0
