16

C	0.0	0.0	0.0
C	-0.383192	0.001146	-1.507668
Br	2.002096	0.0	0.0
H	0.280258	-0.704301	-2.015451
N	-0.615308	1.021331	0.693967
H	-0.538682	1.961442	0.345121
H	-0.890966	0.90026	1.649794
C	-0.333778	-1.300584	0.588695
N	-0.542971	-2.366285	1.035798
C	-0.083191	1.334125	-2.039413
N	0.1409	2.410919	-2.453168
C	-1.845922	-0.376333	-1.737363
H	-2.083687	-0.286633	-2.799879
H	-2.020273	-1.408909	-1.42722
H	-2.547865	0.238229	-1.170078
Br	-4.906441	0.0	0.0
