15

C	-0.13751	0.008414	-1.506716
C	0.0	0.0	0.0
Br	0.018451	1.893363	-2.264894
H	1.089148	0.0	0.0
H	-0.338713	-0.965253	0.378476
N	0.870532	-0.831437	-1.972574
H	1.750194	-0.618189	-1.446576
H	0.968182	-0.805136	-2.977462
N	-1.477503	-0.486584	-2.051479
O	-1.5636	-0.640354	-3.264405
O	-2.352778	-0.755474	-1.235077
N	-0.671013	1.023087	0.811547
O	-0.334422	1.059963	1.995631
O	-1.549922	1.725554	0.315382
F	2.616122	0.0	0.0
