15

C	-0.621892	-0.008196	-1.368591
C	0.0	0.0	0.0
Br	0.168287	-1.508862	-2.352146
H	1.08617	0.0	0.0
H	-0.288633	-0.919953	0.510642
N	-2.031642	-0.15433	-1.392002
H	-2.419013	0.622678	-0.866701
H	-2.360402	-0.086566	-2.348455
N	-0.170091	1.233772	-2.195592
O	-0.919015	1.550783	-3.119808
O	0.876408	1.781021	-1.899891
N	-0.507357	1.10169	0.818052
O	-1.104702	2.040114	0.261075
O	-0.285588	1.057213	2.024975
F	2.492423	0.0	0.0
