15

C	-0.590926	-0.03047	-1.388697
C	0.0	0.0	0.0
Br	0.479198	-1.047711	-2.671416
H	1.085186	0.0	0.0
H	-0.383142	0.87498	0.527281
N	-1.919061	-0.505329	-1.431551
H	-2.329359	-0.348854	-2.342493
H	-2.472052	-0.053436	-0.711566
N	-0.500867	1.427849	-1.947668
O	-1.363833	1.742233	-2.76783
O	0.402446	2.149721	-1.553474
N	-0.477837	-1.171439	0.750058
O	-0.128441	-2.284473	0.367407
O	-1.186359	-0.967549	1.746518
F	2.511833	0.0	0.0
