15

C	-0.662641	-0.015231	-1.363608
C	0.0	0.0	0.0
Br	-0.100105	-1.706628	-2.19708
H	1.089208	0.0	0.0
H	-0.303094	-0.89519	0.546008
N	-2.089903	0.058552	-1.434737
H	-2.368449	1.020764	-1.282301
H	-2.476986	-0.533504	-0.709644
N	-0.104135	1.102283	-2.26271
O	-0.916982	1.866097	-2.776377
O	1.107748	1.142695	-2.390472
N	-0.47932	1.135907	0.782716
O	-0.734353	2.188303	0.181419
O	-0.562455	1.00469	2.004467
F	2.488695	0.0	0.0
