15

C	-0.159002	0.082385	-1.502285
C	0.0	0.0	0.0
Br	-1.917282	0.7771	-2.10902
H	1.08961	0.0	0.0
H	-0.342235	0.93439	0.444371
N	0.889024	0.910048	-1.939609
H	0.999132	0.894214	-2.94474
H	1.757517	0.662081	-1.403022
N	-0.015773	-1.32196	-2.160185
O	-0.3128	-1.424385	-3.346445
O	0.545009	-2.179895	-1.489191
N	-0.682674	-1.090224	0.703705
O	-0.324726	-1.292166	1.86302
O	-1.606163	-1.683821	0.143476
F	2.620376	0.0	0.0
