15

C	-0.536325	-0.014109	-1.401229
C	0.0	0.0	0.0
Br	-0.046037	1.583079	-2.411363
H	1.086939	0.0	0.0
H	-0.305434	-0.922595	0.498646
N	-0.028975	-1.139344	-2.080629
H	0.108008	-1.933203	-1.478968
H	-0.511468	-1.359727	-2.938009
N	-2.111796	-0.105729	-1.391321
O	-2.546272	-0.949674	-0.60799
O	-2.784386	0.521054	-2.196719
N	-0.550122	1.078509	0.832886
O	-1.42988	1.814985	0.370431
O	-0.09732	1.167824	1.973198
F	2.515204	0.0	0.0
