15

C	-0.105916	0.192724	-1.504164
C	0.0	0.0	0.0
Br	-1.843781	0.960761	-2.16784
H	1.103174	0.0	0.0
H	-0.483791	-0.899407	0.356195
N	0.982844	0.877819	-1.986679
H	1.815425	0.66319	-1.391066
H	1.129096	0.738472	-2.975035
N	-0.212253	-1.274112	-2.128357
O	0.446933	-1.466226	-3.145954
O	-0.936896	-2.098732	-1.586572
N	-0.483202	1.13112	0.797972
O	-1.013766	0.8524	1.878727
O	-0.285884	2.274923	0.39499
F	2.612694	0.0	0.0
