15

C	-0.225807	0.04781	-1.499325
C	0.0	0.0	0.0
Br	-1.909963	0.914278	-1.994553
H	1.088122	0.0	0.0
H	-0.303163	0.950205	0.441491
N	0.88382	0.718727	-2.12538
H	1.71812	0.508637	-1.531455
H	0.720642	1.716578	-2.108321
N	-0.205918	-1.372672	-2.09546
O	-1.032276	-1.710452	-2.929315
O	0.745727	-2.036504	-1.706687
N	-0.670315	-1.052495	0.767141
O	-0.451186	-1.066224	1.977012
O	-1.432419	-1.830588	0.18579
F	2.591637	0.0	0.0
