15

C	-0.477673	0.100541	-1.399152
C	0.0	0.0	0.0
Br	-2.676808	0.033652	-1.352452
H	1.102032	0.0	0.0
H	-0.363076	-0.903587	0.475295
N	-0.020978	1.132106	-2.148021
H	-0.386528	1.18295	-3.085581
H	0.018888	1.994457	-1.622314
N	-0.27453	-1.209223	-2.15257
O	-0.235153	-1.127116	-3.375418
O	-0.184136	-2.237851	-1.498767
N	-0.423323	1.125755	0.824889
O	-0.419647	2.264855	0.338402
O	-0.691378	0.894498	2.003686
F	2.464249	0.0	0.0
