15

C	-0.571578	-0.227754	-1.389521
C	0.0	0.0	0.0
Br	0.497645	-1.477072	-2.409666
H	1.10259	0.0	0.0
H	-0.350439	0.956039	0.389387
N	-1.956151	-0.617958	-1.528587
H	-2.028275	-1.562924	-1.171194
H	-2.505485	-0.00591	-0.933066
N	-0.499715	1.162536	-2.058408
O	0.335722	1.411726	-2.911107
O	-1.343744	1.950649	-1.631248
N	-0.448618	-1.006939	0.955282
O	-0.513565	-0.667486	2.139556
O	-0.684768	-2.156282	0.560274
F	2.487108	0.0	0.0
