17

C	-0.292468	-0.044558	-1.511919
C	0.0	0.0	0.0
Cl	0.037269	1.636139	-2.138978
H	1.094076	0.0	0.0
H	-0.452825	0.888935	0.449974
C	0.724196	-0.972024	-2.164814
H	0.718555	-0.879282	-3.254524
H	0.479999	-2.007078	-1.901786
H	1.703575	-0.72453	-1.735129
C	-1.733085	-0.349517	-1.897002
H	-2.007112	-1.361704	-1.578409
H	-2.416897	0.364825	-1.423935
H	-1.867506	-0.293977	-2.981238
N	-0.39009	-1.210676	0.72986
H	-1.235017	-1.641156	0.379435
H	0.373864	-1.870747	0.658752
F	2.754329	0.0	0.0
