15

C	0.0	0.0	0.0
C	-0.533909	-0.445203	-1.362277
Cl	1.804759	0.0	0.0
H	-0.177613	-1.464137	-1.558329
H	-1.622762	-0.476981	-1.234573
C	-0.502923	1.377383	0.389559
H	-0.185392	2.088228	-0.373141
H	-1.595123	1.330752	0.431001
H	-0.102727	1.669136	1.3628
C	-0.366654	-1.002681	1.008346
N	-0.595719	-1.815062	1.825691
N	-0.174414	0.509488	-2.400548
H	0.611142	0.175895	-2.940583
H	-0.960732	0.648802	-3.018178
Br	-3.985182	0.0	0.0
