15

C	0.0	0.0	0.0
C	-0.567924	0.312718	-1.387562
Cl	1.79799	0.0	0.0
H	-1.624881	0.026674	-1.325636
H	-0.065268	-0.328083	-2.117278
C	-0.509138	0.966673	1.054265
H	-0.196554	1.972467	0.774129
H	-1.601275	0.899711	1.067672
H	-0.1059	0.710328	2.035521
C	-0.35653	-1.383614	0.345299
N	-0.564038	-2.50987	0.606236
N	-0.40676	1.725353	-1.715483
H	-1.314833	2.171155	-1.665216
H	-0.057103	1.830114	-2.657342
Br	-3.967061	0.0	0.0
