15

C	0.0	0.0	0.0
C	-0.527676	0.485261	-1.344973
Cl	1.804774	0.0	0.0
H	-1.619708	0.465	-1.240575
H	-0.208844	1.531931	-1.459808
C	-0.508912	0.868486	1.136823
H	-0.132781	0.507255	2.094871
H	-1.60262	0.823405	1.122158
H	-0.173637	1.897574	0.987373
C	-0.364092	-1.406814	0.213611
N	-0.602494	-2.539176	0.413675
N	-0.114645	-0.384974	-2.433907
H	0.715127	-0.033043	-2.890413
H	-0.860066	-0.459641	-3.110472
Br	-3.962949	0.0	0.0
