15

C	0.0	0.0	0.0
C	-0.394498	0.371742	-1.463257
Cl	1.800073	0.0	0.0
H	-0.058008	1.405022	-1.607645
H	0.216484	-0.257636	-2.118124
C	-0.581946	0.942404	1.032461
H	-0.283003	1.967346	0.799198
H	-1.673789	0.860562	0.99767
H	-0.237653	0.68699	2.035807
C	-0.391678	-1.385321	0.271099
N	-0.67339	-2.507069	0.477961
N	-1.768695	0.245644	-1.844943
H	-2.411203	0.809303	-1.29807
H	-2.109247	-0.701064	-1.730804
Br	-4.537333	0.0	0.0
