15

C	0.0	0.0	0.0
C	-0.552095	-0.334629	-1.386042
Cl	1.7928	0.0	0.0
H	-1.587522	0.023482	-1.390683
H	0.035942	0.233762	-2.112286
C	-0.483958	1.372511	0.448428
H	-0.170527	2.119709	-0.286417
H	-1.575404	1.342581	0.505932
H	-0.058841	1.632981	1.419123
C	-0.379822	-1.024686	0.980118
N	-0.62093	-1.856235	1.773609
N	-0.437904	-1.761371	-1.674658
H	-0.550397	-1.897792	-2.671626
H	-1.229904	-2.217124	-1.232349
Br	-3.897142	0.0	0.0
