15

C	0.0	0.0	0.0
C	-0.503267	-0.420103	-1.391618
Cl	1.801617	0.0	0.0
H	-0.020016	0.244126	-2.115802
H	-1.57944	-0.223763	-1.38955
C	-0.495342	1.390877	0.365425
H	-1.587942	1.351025	0.404321
H	-0.178391	2.096811	-0.407149
H	-0.091668	1.707989	1.329117
C	-0.395928	-0.983757	1.010771
N	-0.631431	-1.779451	1.842407
N	-0.284881	-1.803247	-1.768793
H	0.653862	-2.092719	-1.526003
H	-0.935718	-2.382432	-1.253581
Br	-3.874934	0.0	0.0
