15

C	0.0	0.0	0.0
C	-0.510015	0.229301	-1.43886
Cl	1.803111	0.0	0.0
H	-1.584129	0.018889	-1.407144
H	-0.021844	-0.504451	-2.087318
C	-0.512013	1.029918	0.9887
H	-0.152712	2.021008	0.70499
H	-0.157256	0.804031	1.996124
H	-1.607028	0.999888	0.960893
C	-0.364006	-1.35868	0.418911
N	-0.579367	-2.473062	0.721972
N	-0.313002	1.562091	-1.971144
H	-0.976889	2.196615	-1.546862
H	0.626108	1.893631	-1.786025
Br	-3.901782	0.0	0.0
