15

C	0.0	0.0	0.0
C	-0.501986	0.367906	-1.407771
Cl	1.800803	0.0	0.0
H	-0.036759	1.32569	-1.665943
H	-1.582855	0.511087	-1.311411
C	-0.497472	0.986527	1.043053
H	-1.590568	0.945747	1.044756
H	-0.161956	1.990705	0.7738
H	-0.109767	0.734382	2.031907
C	-0.378097	-1.376809	0.334952
N	-0.614189	-2.502744	0.572672
N	-0.253545	-0.600583	-2.457048
H	0.696056	-0.947781	-2.406051
H	-0.883536	-1.383271	-2.331782
Br	-3.871883	0.0	0.0
