15

C	-0.519853	0.042298	-1.412452
C	0.0	0.0	0.0
Br	0.169031	-1.363698	-2.482902
H	1.085834	0.0	0.0
H	-0.356049	0.863895	0.560182
N	-2.061993	0.113069	-1.463991
O	-2.51963	0.986281	-0.732925
O	-2.681154	-0.613952	-2.21528
N	-0.143002	1.388245	-2.058303
O	0.434341	2.204963	-1.356307
O	-0.509226	1.533314	-3.217954
N	-0.495084	-1.203283	0.722563
O	0.107684	-1.503958	1.744604
O	-1.49738	-1.774986	0.289577
Br	3.408124	0.0	0.0
