16
Coordinates from ORCA-job run
  C   0.82871554371436     -0.21582065896324     -0.01366816738640
  C   -0.49683738017882      0.05149493457129     -0.01202068203251
  N   1.69621694110856      0.15872512521092     -1.14452093761433
  O   2.90974064934940      0.21507040262628     -0.92262317160493
  O   1.17830571911393      0.36653047553487     -2.23942999073831
  N   1.51563808439582     -0.88578659372426      0.99469583271931
  H   2.51347942201758     -0.85958389253417      0.83938358013556
  H   1.28483877341431     -0.55296695781383      1.91910585444478
  C   -1.24758860505458      0.85794166915338     -1.03394358677436
  H   -2.11576966798380      1.32046017050175     -0.55747494447439
  H   -1.61039701253583      0.21935956392103     -1.84550074320971
  H   -0.64334997555370      1.63820174401161     -1.49358335271280
  C   -1.29220829376878     -0.47807527590563      1.15085418020969
  H   -1.32722053132640      0.24153665909832      1.97919560862153
  H   -2.32472482202451     -0.66561962183048      0.84774847852224
  H   -0.86783884468754     -1.41046774385783      1.53078204189465
