16
Coordinates from ORCA-job run
  C   0.85215275042309     -0.02446826029259     -0.09061282738747
  C   -0.49481764163231      0.06218343750537     -0.01059644102522
  N   1.52180696087422     -1.20332508700639     -0.66829713704806
  O   2.70906472233656     -1.37174506516355     -0.37291766972228
  O   0.88235228012399     -1.93150312196402     -1.42405047726487
  N   1.74820148387992      0.96159371148575      0.31306458281277
  H   1.53409692926264      1.34054678692516      1.22362309269255
  H   2.70138947820328      0.62917520989925      0.27538457834588
  C   -1.48110797084948     -1.02232701171368     -0.34110910274117
  H   -1.09260951181523     -2.02433414272535     -0.16758131851080
  H   -2.38034575836592     -0.88407165184618      0.26481809066951
  H   -1.77562292752131     -0.97450936168317     -1.39423051273973
  C   -1.06332491218813      1.35937244980949      0.49818927289335
  H   -0.41704585026287      2.20378217149095      0.24775250457406
  H   -2.04829328187012      1.53577837292184      0.05979384250919
  H   -1.19589675059832      1.34285156235710      1.58776952194229
