16
Coordinates from ORCA-job run
  C   0.85094438166491     -0.07627568093636      0.07330547670567
  C   -0.48894379066498      0.09624336249579      0.01656336728125
  N   1.75744805649146      0.55468207028896     -0.90243274227976
  O   1.35918742564523      1.53583620124143     -1.52618953327133
  O   2.88626095489624      0.06615872619407     -1.01313524055496
  N   1.52820498191081     -0.81322973357210      1.04097538036996
  H   2.50762184304261     -0.90712429787704      0.81199624386937
  H   1.11019360396763     -1.71522589840814      1.21472115557002
  C   -1.25403555763009      0.79842016411749     -1.06967988276815
  H   -0.77815387554750      0.72633563027830     -2.04614963146093
  H   -1.35947757074712      1.86478306153054     -0.84655123939614
  H   -2.25704828220967      0.36882190833756     -1.13504546525612
  C   -1.30013157363404     -0.50830931428254      1.13060351864221
  H   -2.20594523408874      0.07922059668373      1.29751731856227
  H   -1.62115873200153     -1.52969369074504      0.88826172835923
  H   -0.73396663109521     -0.54264310534663      2.06423954562741
