16
Coordinates from ORCA-job run
  C   0.84746306775550     -0.12684071931457     -0.03219643510559
  C   -0.49826934337138      0.00345598727503     -0.01439037180293
  N   1.68184205176332      0.56671400193975     -1.02970210227116
  O   1.15655679838493      0.94786355532763     -2.07327262923866
  O   2.87986824206630      0.69881974354683     -0.76059376221314
  N   1.59138771938544     -0.92753289572592      0.83005045801137
  H   1.32116199515440     -0.82473387394945      1.79690048790253
  H   2.58246015751830     -0.77092793039429      0.71311033943433
  C   -1.25055177872054     -0.83889339755695      0.98018334606874
  H   -1.38884719119469     -0.31222746778812      1.93330456418617
  H   -2.24702751003373     -1.07124138765753      0.59726570691118
  H   -0.73084942590972     -1.77808722083009      1.18310927086190
  C   -1.31660446865012      0.93414836041136     -0.86437206225454
  H   -1.60614115653553      0.45231475644657     -1.80355095617952
  H   -2.23119755228923      1.19756650830548     -0.32681325834105
  H   -0.79025160532325      1.84960197996429     -1.12903259596961
