16
Coordinates from ORCA-job run
  C   0.84362821290209     -0.15257675357704      0.01266497385811
  C   -0.49680648448689      0.01681434786238     -0.04057050742642
  N   1.74792990681368      0.50379630039609     -0.94835535068574
  O   2.93421030378248      0.60409520319802     -0.62002956100318
  O   1.28776399019219      0.88698661339596     -2.02154886434349
  N   1.51831823172277     -0.96411187382356      0.92077951312287
  H   1.20388626885845     -0.83874626475204      1.87158125824116
  H   2.51832505537325     -0.83849636438049      0.85202992118749
  C   -1.32384890952799     -0.78950655064802      0.92398817250721
  H   -1.49496422596677     -0.24637393970729      1.86240204385998
  H   -0.84329401110053     -1.74056095224680      1.16475433523916
  H   -2.30580727004575     -0.99815610000951      0.49289986007634
  C   -1.24257341862540      0.96141443424730     -0.94077585680278
  H   -1.49679984782481      0.47808974197412     -1.88932993554299
  H   -0.67634162407896      1.85826879623202     -1.18630522764355
  H   -2.17562617798783      1.25706336183885     -0.45418477464418
