16
Coordinates from ORCA-job run
  C   0.85359765004462     -0.00390894839257     -0.06874079845361
  C   -0.49623506544998      0.05695712094656     -0.01698824737577
  N   1.55651139544431     -1.08962931639343     -0.77447097117240
  O   0.94814020049956     -1.72338151019453     -1.63388208664819
  O   2.73829408359124     -1.28008792340287     -0.47042402822288
  N   1.72431194830065      0.93322681622614      0.48053455999123
  H   1.47409662148205      1.20021824756583      1.42112209596530
  H   2.68154763322699      0.61302597916001      0.43769044833364
  C   -1.09446359660045      1.27144502231001      0.64034612187272
  H   -1.23789922075277      1.11945415634531      1.71807398975376
  H   -0.46125235992166      2.15131562909568      0.50365909580900
  H   -2.07761435331798      1.48466257773361      0.21465377817334
  C   -1.45681748271081     -0.98696731346183     -0.51304277860791
  H   -2.37606103755076     -0.93590193311170      0.07614428202645
  H   -1.71896888028579     -0.81076628590631     -1.56102942864232
  H   -1.05918753599924     -1.99866231851991     -0.45364603280235
