16
Coordinates from ORCA-job run
  C   0.84455819863065     -0.14147322364752     -0.01899289139538
  C   -0.49902768505879      0.01117914001664     -0.02244462843801
  N   1.70465195546012      0.52030855143260     -1.01591076695083
  O   2.90284158176911      0.62792136264366     -0.73650225502594
  O   1.19870731488524      0.90077639547467     -2.06935163969088
  N   1.56146808306794     -0.94125114265741      0.86697331892740
  H   1.28138008176311     -0.81445362010199      1.82831742708992
  H   2.55681033219299     -0.80538146975834      0.75986583836053
  C   -1.27689890589166     -0.80187700005137      0.97698516119266
  H   -2.27511271706146     -1.01910602302342      0.59022323650870
  H   -1.41076643674509     -0.26000378144099      1.92236215303860
  H   -0.77684445095727     -1.74800530456746      1.19677663143412
  C   -1.28963153807840      0.94270700834101     -0.89782919231635
  H   -1.56643931299027      0.45496316647298     -1.83774968591621
  H   -0.74661074896964      1.84874270899731     -1.16162829159567
  H   -2.21108575201656      1.22295323186961     -0.38109441522265
