16
Coordinates from ORCA-job run
  C   0.84871775671419     -0.00987994052896     -0.11957231125130
  C   -0.47740577121263     -0.01362176980007      0.14449813500133
  N   1.50414929266462     -1.12728724561300     -0.82255921952083
  O   0.94764155163547     -2.22291323210798     -0.83253587805877
  O   2.60005282372375     -0.89432098463171     -1.34192890164685
  N   1.74166815818314      0.99094562218992      0.25316030214870
  H   2.65254531420587      0.84105497782208     -0.15713616662807
  H   1.40233551649436      1.91927658064757      0.04932754389204
  C   -1.01054918379276      1.13062271475018      0.96368762496092
  H   -0.25684707024682      1.51218699275900      1.65629560734699
  H   -1.87813368545001      0.80549722108349      1.54260998927211
  H   -1.34287015319497      1.96219605137292      0.32880155276357
  C   -1.48011429347166     -1.02641645478299     -0.33225962911407
  H   -2.45964276538094     -0.54815666287291     -0.41390882297184
  H   -1.22382775915371     -1.46395466660332     -1.29567622480673
  H   -1.56871973171791     -1.85422920368421      0.37819639861282
