16
Coordinates from ORCA-job run
  C   0.83387191046806     -0.00007898698845      0.11458548826423
  C   -0.50155455984977      0.09342906090548     -0.02712054626885
  N   1.53212397684537     -1.26530407246243     -0.23259099440961
  O   0.99236158317548     -2.33941696927539      0.02771664040188
  O   2.64161131640356     -1.14181363167297     -0.75549225159725
  N   1.67631144306588      1.06060811660755      0.50446225752721
  H   2.38657065404603      1.20761816456003     -0.20354281664685
  H   2.15523418697611      0.83374843452355      1.36918729753562
  C   -1.40400316175044     -1.01888338549655     -0.48467227548120
  H   -1.72224175154780     -1.62306378318228      0.36962940618015
  H   -2.29751201352260     -0.59201890845341     -0.94541558753812
  H   -0.93009016557770     -1.69708377919326     -1.19246491238719
  C   -1.19365569319459      1.38312990074425      0.30548654012550
  H   -1.96038329074340      1.20133911685819      1.06621163165869
  H   -1.71257206776014      1.76459506819231     -0.57991586088238
  H   -0.49507236703404      2.13419565433337      0.66593598351817
