16
Coordinates from ORCA-job run
  C   0.85545529007448     -0.04393968165262      0.03441863107853
  C   -0.49518566349629      0.01472625594315      0.06066552335499
  N   1.57176236850515     -1.25704376112656     -0.39938075289995
  O   0.97793431416786     -2.33266395274439     -0.36993431129418
  O   2.74955423491171     -1.11718194148225     -0.74341374577891
  N   1.71431942193335      0.97646456452287      0.43310529960190
  H   2.67510261472860      0.75396318928341      0.21436009418782
  H   1.45841061277185      1.87727463856206      0.05684981770093
  C   -1.44439562291533     -1.02647619396472     -0.46223439252927
  H   -2.37019369063110     -0.53868511262532     -0.77824624363588
  H   -1.69648076516934     -1.75255704142695      0.31701356176220
  H   -1.04230250521558     -1.59162210616700     -1.30129558987507
  C   -1.11093935254291      1.26568198555495      0.62626092585224
  H   -0.47020407533097      1.71821953711382      1.38648291876375
  H   -1.29415996351263      2.01459409952345     -0.15518650699701
  H   -2.07767721827886      1.03624552068609      1.08053477070791
