16

C	-0.390919	0.042449	-1.491433
C	0.0	0.0	0.0
Cl	-2.243111	0.366783	-1.582812
H	1.097409	0.0	0.0
C	0.297424	1.203609	-2.176938
H	0.042916	1.211333	-3.239655
H	1.375071	1.074675	-2.043929
H	-0.016715	2.1514	-1.739506
N	-0.048993	-1.182	-2.094954
H	-0.518031	-1.974871	-1.67536
H	-0.216162	-1.165098	-3.091442
C	-0.495319	-1.21221	0.644524
N	-0.87423	-2.215411	1.124369
C	-0.449578	1.1879	0.721382
N	-0.790454	2.153203	1.29662
Cl	3.206585	0.0	0.0
