16

C	-0.539365	-0.012402	-1.454663
C	0.0	0.0	0.0
Cl	0.224012	-1.39697	-2.291833
H	1.095188	0.0	0.0
C	-2.050331	-0.219393	-1.505351
H	-2.377207	-0.216371	-2.547581
H	-2.546125	0.602951	-0.980114
H	-2.34807	-1.164206	-1.047889
N	-0.079776	1.196963	-2.102631
H	-0.237028	1.130284	-3.101906
H	-0.592576	1.994558	-1.739442
C	-0.470873	-1.164007	0.751205
N	-0.870612	-2.096401	1.343218
C	-0.470305	1.22138	0.655033
N	-0.871917	2.225521	1.114847
Cl	3.213867	0.0	0.0
