16

C	-0.362894	0.01384	-1.523911
C	0.0	0.0	0.0
Cl	0.087307	-1.608634	-2.152802
H	1.096628	0.0	0.0
C	-1.84089	0.232148	-1.777651
H	-2.025342	0.179704	-2.851154
H	-2.141528	1.217947	-1.411938
H	-2.43526	-0.529479	-1.270361
N	0.428531	0.987003	-2.230638
H	0.156114	1.916719	-1.925732
H	1.410209	0.85268	-1.984904
C	-0.562952	-1.119016	0.742866
N	-1.051903	-2.008109	1.335364
C	-0.436914	1.26474	0.589975
N	-0.798768	2.303351	1.004338
Cl	3.193547	0.0	0.0
