16

C	-0.445511	-0.008134	-1.483898
C	0.0	0.0	0.0
Cl	-0.006471	1.585086	-2.181838
H	1.096285	0.0	0.0
C	0.340837	-1.076019	-2.23206
H	0.098347	-1.030358	-3.296479
H	1.412897	-0.92783	-2.085342
H	0.064683	-2.063825	-1.850573
N	-1.890408	-0.115145	-1.557379
H	-2.164899	-1.033401	-1.220766
H	-2.177593	-0.039036	-2.526264
C	-0.454928	-1.243506	0.623728
N	-0.83951	-2.264122	1.060659
C	-0.527447	1.142143	0.740654
N	-0.933994	2.058964	1.350757
Cl	3.220022	0.0	0.0
