15

C	0.0	0.0	0.0
C	-0.561678	0.015444	-1.405215
Br	1.962707	0.0	0.0
H	-1.673896	0.11996	-1.178817
H	-0.318024	-0.914455	-1.916306
C	-0.404093	1.160828	0.79761
N	-0.641672	2.065867	1.508058
C	-0.460998	-1.288922	0.680393
H	-0.101773	-1.320412	1.710477
H	-0.056844	-2.147152	0.136181
H	-1.556565	-1.233978	0.628901
N	-0.032411	1.099963	-2.251231
O	0.308956	0.805905	-3.401002
O	0.018328	2.234702	-1.780339
F	-2.780636	0.0	0.0
