15

C	0.0	0.0	0.0
C	-0.644415	0.295827	-1.336614
Br	1.961089	0.0	0.0
H	-0.299633	-0.39511	-2.108599
H	-1.753253	0.177941	-1.075547
C	-0.385483	1.011337	0.991924
N	-0.61032	1.830894	1.802572
C	-0.493031	-1.375949	0.446646
H	-1.588782	-1.275667	0.445501
H	-0.104937	-1.614527	1.437987
H	-0.152828	-2.134055	-0.264114
N	-0.444625	1.66089	-1.874702
O	0.406591	2.402993	-1.381947
O	-1.16609	1.962611	-2.825477
F	-2.874939	0.0	0.0
