15

C	0.0	0.0	0.0
C	-0.637787	-0.095137	-1.361756
Br	1.962534	0.0	0.0
H	-1.763697	-0.003868	-1.049258
H	-0.42589	-1.054162	-1.832196
C	-0.381188	1.214982	0.730375
N	-0.57561	2.145051	1.421408
C	-0.459006	-1.21932	0.807622
H	-1.553389	-1.15568	0.795789
H	-0.099635	-2.13211	0.325138
H	-0.060716	-1.171131	1.822317
N	-0.245723	0.944552	-2.317902
O	-0.286975	0.645223	-3.515028
O	0.052183	2.06077	-1.892335
F	-2.840203	0.0	0.0
