15

C	0.0	0.0	0.0
C	-0.417633	0.318404	-1.451482
Br	1.967766	0.0	0.0
H	-0.685675	1.368221	-1.539251
H	0.41348	0.09023	-2.126717
C	-0.436822	1.049345	0.915434
N	-0.582042	1.926632	1.685791
C	-0.343694	-1.396192	0.538197
H	0.08459	-2.156911	-0.1125
H	-1.429884	-1.442001	0.55778
H	0.08908	-1.493497	1.537158
N	-1.557188	-0.435025	-2.060504
O	-1.507064	-1.662024	-2.038056
O	-2.329963	0.223115	-2.748728
F	-2.455163	0.0	0.0
