15

C	0.0	0.0	0.0
C	-0.370697	1.14321	-0.996539
Cl	1.78527	0.0	0.0
H	0.543102	1.368494	-1.553636
H	-0.360123	0.252435	0.994994
C	-0.41835	-1.365826	-0.31283
N	-0.54703	-2.527841	-0.435532
C	-0.832582	2.395246	-0.284256
H	-0.09188	2.656653	0.477488
H	-1.798962	2.204499	0.176181
H	-0.917132	3.221388	-0.989226
N	-1.264848	0.755528	-2.14741
O	-1.021126	-0.324762	-2.673027
O	-2.010861	1.61501	-2.596771
Cl	-3.065853	0.0	0.0
