15

C	0.0	0.0	0.0
C	-0.539583	0.142295	-1.419479
Cl	1.783136	0.0	0.0
H	-0.202098	1.102417	-1.814434
H	-0.324116	0.883119	0.555363
C	-0.460158	-1.187715	0.717218
N	-0.783812	-2.111005	1.36624
C	-2.044951	-0.018718	-1.484699
H	-2.387999	0.149703	-2.506861
H	-2.355229	-1.01281	-1.165868
H	-2.574191	0.676769	-0.831874
N	0.104203	-0.86938	-2.319228
O	0.550228	-0.458383	-3.389786
O	0.105814	-2.038652	-1.945491
Cl	-4.993749	0.0	0.0
