15

C	0.0	0.0	0.0
C	-0.540464	0.074304	-1.423644
Cl	1.783158	0.0	0.0
H	-0.186002	1.004128	-1.871989
H	-0.31867	0.912075	0.510789
C	-0.465701	-1.147397	0.775788
N	-0.778416	-2.034603	1.478194
C	-2.049141	-0.05448	-1.472543
H	-2.391272	0.022978	-2.505631
H	-2.389607	-1.002922	-1.059494
H	-2.551964	0.717277	-0.88956
N	0.077836	-0.998797	-2.267329
O	0.056224	-2.145121	-1.829171
O	0.527122	-0.65683	-3.36001
Cl	-4.991614	0.0	0.0
