15

C	0.0	0.0	0.0
C	-0.540251	-0.219383	-1.41014
Cl	1.783294	0.0	0.0
H	-1.628147	-0.050833	-1.307379
H	-0.340884	0.96789	0.363704
C	-0.424649	-1.057916	0.91427
N	-0.642007	-1.899755	1.703958
C	-0.242126	-1.573962	-2.00437
H	-0.66533	-1.643013	-3.005101
H	-0.71569	-2.331571	-1.377737
H	0.83023	-1.767039	-2.065815
N	-0.025884	0.897269	-2.267655
O	0.353819	0.634505	-3.408945
O	-0.052797	2.027932	-1.784906
Cl	-3.391046	0.0	0.0
