15

C	0.0	0.0	0.0
C	-0.475444	0.145297	-1.448616
Cl	1.783186	0.0	0.0
H	-0.098407	1.099272	-1.82026
H	-0.336387	0.88195	0.549387
C	-0.468156	-1.196209	0.690919
N	-0.783827	-2.132871	1.324972
C	-1.971221	0.003453	-1.640429
H	-2.19415	0.100842	-2.707472
H	-2.337916	-0.957784	-1.282618
H	-2.541345	0.7589	-1.097843
N	0.213992	-0.87333	-2.3082
O	0.764531	-0.463264	-3.329623
O	0.146802	-2.047272	-1.95488
Cl	-4.879091	0.0	0.0
