12

C	-0.530251	0.016928	-1.427532
C	0.0	0.0	0.0
Br	-0.042683	-1.593013	-2.410896
H	1.100849	0.0	0.0
H	-0.099831	0.851226	-1.978893
H	-1.619315	0.059679	-1.432175
N	-0.568488	-1.13129	0.752748
H	-0.169231	-1.968302	0.337562
H	-0.175244	-1.085332	1.68804
C	-0.462794	1.249112	0.618951
N	-0.846628	2.248608	1.101891
Cl	3.373609	0.0	0.0
