12

C	-0.355561	-0.02701	-1.472947
C	0.0	0.0	0.0
Br	-2.274738	-0.036029	-1.835672
H	1.104399	0.0	0.0
H	0.054638	-0.929716	-1.927359
H	0.06032	0.845023	-1.975063
N	-0.531068	-1.178505	0.705012
H	-0.011408	-1.975599	0.344673
H	-0.245463	-1.096152	1.676268
C	-0.49203	1.216668	0.645594
N	-0.873214	2.190421	1.179715
Cl	3.33381	0.0	0.0
