12

C	-0.530208	0.016984	-1.42756
C	0.0	0.0	0.0
Br	-0.042654	-1.593018	-2.410821
H	1.100885	0.0	0.0
H	-0.099738	0.851276	-1.978863
H	-1.619274	0.059781	-1.432249
N	-0.56846	-1.131378	0.752651
H	-0.168621	-1.968279	0.337806
H	-0.175752	-1.085108	1.688149
C	-0.462902	1.249043	0.618986
N	-0.847398	2.248362	1.101774
Cl	3.373306	0.0	0.0
