12

C	-0.311506	0.039932	-1.491039
C	0.0	0.0	0.0
Br	-2.226918	-0.111307	-1.889046
H	1.098131	0.0	0.0
H	0.025418	0.972543	-1.940907
H	0.172313	-0.803585	-1.981753
N	-0.428111	-1.193746	0.71102
H	-1.325067	-1.515293	0.36401
H	0.269259	-1.913357	0.570999
C	-0.513661	1.20191	0.66485
N	-0.926149	2.177695	1.170933
Cl	3.294793	0.0	0.0
