15
Coordinates from ORCA-job run
  C   -0.66520184611165      0.19797640348376     -0.03212418067849
  C   0.75509247267797      0.19373954227212     -0.54430706236836
  F   -0.76210344425949      1.07840082528729      1.03808583835618
  H   0.84046490054071     -0.60430952181291     -1.28206127825388
  H   0.88522597729787      1.14512744022629     -1.07221815601611
  N   -1.07322188421887     -1.14798219759077      0.57143507814174
  O   -2.14374121410193     -1.14779082715475      1.16943410394686
  O   -0.34563040964507     -2.11690752727296      0.38596052350656
  N   -1.62174614732639      0.44401728582982     -1.03096902007067
  H   -2.54958531347925      0.50935572714962     -0.62955080803046
  H   -1.40171481137546      1.28137035804719     -1.55209119203098
  C   1.81461407051358      0.06528346175130      0.54413502779621
  H   2.80901754968517      0.13562894860463      0.09947187543088
  H   1.71571953324391      0.86170359988276      1.28154376354133
  H   1.74281056655891     -0.89561351870339      1.05225548672920
