15
Coordinates from ORCA-job run
  C   -0.64480832964933      0.05655736925872      0.12529897498186
  C   0.77088139553061     -0.36285297605512      0.42926217193115
  F   -0.89585046333019      1.27229053923519      0.77054308958439
  H   0.89844968609479     -1.39499664216930      0.09966549740442
  H   0.88667712790431     -0.34783330063406      1.51357003448093
  N   -1.66465836775518     -0.87734362896494      0.78299163036683
  O   -2.83539598630458     -0.68089109647719      0.47386167413297
  O   -1.25814884653911     -1.71213400941373      1.58283665427964
  N   -0.96520764445213      0.08078078310637     -1.23683491210495
  H   -0.34670934619381      0.69201499942138     -1.75026235914232
  H   -1.93046188299724      0.35370298252156     -1.37291694770633
  C   1.79284231652807      0.55807378860452     -0.23269047423051
  H   1.58492476853540      1.60417646746639     -0.00132725350602
  H   2.79395042970709      0.32701958186117      0.13448884746127
  H   1.81351514292128      0.43143514223903     -1.31748662793332
