15

C	0.012835	-0.037363	0.010968
C	-0.513145	-0.051366	-1.431101
Cl	1.845093	0.155934	-0.037201
H	-1.621746	-0.090663	-1.240357
N	-0.577505	0.974201	0.820304
H	-1.625054	0.833406	0.652941
H	-0.345746	1.876083	0.409278
C	-0.22915	-1.358192	0.614043
N	-0.39422	-2.402785	1.124069
N	-0.052032	-1.195351	-2.190992
H	-0.677972	-1.363942	-2.967864
H	0.880607	-1.033253	-2.551044
C	-0.241806	1.244306	-2.06855
N	-0.018337	2.244465	-2.645848
H	-2.971799	0.402647	-0.125003
