15

C	0.0	0.0	0.0
C	-0.520466	-0.176838	-1.433111
Br	1.968852	0.0	0.0
H	-1.583235	-0.420364	-1.315993
H	-0.244431	-0.900024	0.569239
N	-0.507997	1.232515	0.526098
H	-1.530716	1.14396	0.459982
H	-0.281291	1.280605	1.513399
N	0.120552	-1.418849	-2.004327
O	-0.120179	-2.465304	-1.402108
O	0.84703	-1.321316	-2.986986
N	-0.365655	0.925047	-2.318309
H	0.518083	1.391945	-2.152268
H	-1.114146	1.578003	-2.126913
Cl	-3.532809	0.0	0.0
