15

C	0.0	0.0	0.0
C	-0.385026	-0.115853	-1.529489
Br	1.975215	0.0	0.0
H	0.48622	-0.497093	-2.067822
H	-0.270352	-0.964217	0.433476
N	-0.563915	1.026794	0.799538
H	-1.564638	0.840133	0.893392
H	-0.428884	1.928403	0.360261
N	-0.559648	1.289928	-2.097007
O	-1.500016	1.523421	-2.841459
O	0.305072	2.108044	-1.773205
N	-1.5138	-0.899394	-1.871691
H	-1.303679	-1.878378	-1.735009
H	-2.346786	-0.644976	-1.329047
Cl	-3.872738	0.0	0.0
