15

C	0.0	0.0	0.0
C	-0.422509	0.449121	-1.422415
Br	1.944311	0.0	0.0
H	0.387278	0.259168	-2.126743
H	-0.253035	-1.061852	0.063311
N	-0.574014	0.84035	1.005744
H	-1.582012	0.887892	0.833215
H	-0.442617	0.422665	1.918705
N	-0.46456	1.998965	-1.412094
O	-1.555526	2.54381	-1.296458
O	0.614834	2.575779	-1.541569
N	-1.604434	-0.183895	-1.845955
H	-1.878683	0.139483	-2.764807
H	-2.406093	-0.073294	-1.211939
Cl	-4.130968	0.0	0.0
