15

C	0.0	0.0	0.0
C	-0.316824	0.009963	-1.531965
Br	1.946121	0.0	0.0
H	0.225791	-0.816152	-1.9927
H	-0.281975	-0.995486	0.348094
N	-0.614632	0.960992	0.838592
H	-1.565184	0.656763	1.036249
H	-0.656862	1.863076	0.385497
N	0.301976	1.236431	-2.166112
O	1.023236	1.085042	-3.14629
O	-0.014325	2.326236	-1.68989
N	-1.674014	-0.007348	-1.940924
H	-2.315158	0.426778	-1.277014
H	-2.004386	-0.957205	-2.051804
Cl	-4.117092	0.0	0.0
