15

C	0.0	0.0	0.0
C	-0.451888	0.073976	-1.453207
Br	2.040101	0.0	0.0
H	-1.544242	-0.046113	-1.392139
H	-0.262412	-0.967528	0.419511
N	-0.486764	1.055593	0.803077
H	-0.481888	1.903693	0.245513
H	-1.464772	0.830846	1.001816
N	0.047529	-1.155154	-2.209314
O	0.597863	-0.983175	-3.296904
O	-0.154134	-2.247193	-1.686975
N	-0.104965	1.300419	-2.074074
H	-0.642324	1.435497	-2.918254
H	0.880578	1.317271	-2.302878
Cl	-3.513354	0.0	0.0
