17

C	-0.364839	-0.001434	-1.478707
C	0.0	0.0	0.0
F	0.127673	-1.160102	-2.010433
H	1.102539	0.0	0.0
N	-1.879058	-0.089494	-1.633853
O	-2.362075	-1.118805	-2.086045
O	-2.500654	0.911108	-1.287808
C	0.170498	1.176539	-2.244607
H	-0.278249	2.101672	-1.886465
H	1.252029	1.202322	-2.089945
H	-0.04847	1.046169	-3.306901
N	-0.582156	-1.188618	0.636649
H	-0.300151	-1.177152	1.612108
H	-0.112574	-1.988375	0.222124
C	-0.454268	1.210596	0.680743
N	-0.762769	2.181776	1.264475
Br	3.458588	0.0	0.0
