17

C	-0.383307	-0.009969	-1.473952
C	0.0	0.0	0.0
F	0.29421	-1.011195	-2.088046
H	1.095649	0.0	0.0
N	-1.860552	-0.374119	-1.61106
O	-2.187063	-1.111326	-2.531797
O	-2.624936	0.145988	-0.800424
C	-0.140265	1.28904	-2.198225
H	-0.772328	2.081902	-1.797741
H	0.911152	1.551315	-2.061155
H	-0.345784	1.147096	-3.261174
N	-0.448865	-1.226723	0.64265
H	-1.307728	-1.074496	1.156553
H	0.273635	-1.540923	1.278909
C	-0.435102	1.226013	0.678773
N	-0.758528	2.195811	1.258333
Br	3.426439	0.0	0.0
