17

C	-0.501987	-0.08547	-1.440668
C	0.0	0.0	0.0
F	-1.851448	-0.34353	-1.433986
H	1.092362	0.0	0.0
N	-0.33937	1.279566	-2.100716
O	-1.352015	1.935146	-2.33107
O	0.815695	1.615214	-2.338932
C	0.232358	-1.123014	-2.245662
H	0.030825	-2.093979	-1.79185
H	-0.127162	-1.113167	-3.277501
H	1.304439	-0.920723	-2.206929
N	-0.382315	-1.23741	0.676983
H	0.320175	-1.444437	1.373126
H	-1.283597	-1.150596	1.123489
C	-0.511385	1.201331	0.674188
N	-0.953504	2.113851	1.268634
Br	3.43524	0.0	0.0
