17

C	-0.488353	-0.031165	-1.45598
C	0.0	0.0	0.0
F	-0.205974	1.169606	-2.035149
H	1.095765	0.0	0.0
N	0.30742	-1.073599	-2.234438
O	0.662344	-0.781611	-3.367107
O	0.454123	-2.160738	-1.685118
C	-1.948885	-0.355006	-1.642179
H	-2.543425	0.396029	-1.118868
H	-2.184298	-0.323342	-2.708698
H	-2.169112	-1.334629	-1.224633
N	-0.533133	-1.137496	0.7731
H	-0.4445	-0.909706	1.756921
H	0.099599	-1.90785	0.595494
C	-0.502518	1.241534	0.587326
N	-0.974257	2.212167	1.049959
Br	3.43595	0.0	0.0
