17

C	-0.464761	0.033798	-1.471403
C	0.0	0.0	0.0
F	0.07796	1.132555	-2.061436
H	1.094067	0.0	0.0
N	0.090494	-1.179284	-2.203324
O	-0.407996	-2.259172	-1.883583
O	0.939713	-1.002937	-3.061986
C	-1.960084	0.060803	-1.694417
H	-2.445308	-0.816091	-1.270333
H	-2.160268	0.087388	-2.767854
H	-2.362735	0.964641	-1.236511
N	-0.399426	-1.148821	0.796687
H	0.342171	-1.835144	0.740684
H	-1.251241	-1.573334	0.45806
C	-0.497578	1.23726	0.617096
N	-0.950728	2.213657	1.087289
Br	3.411914	0.0	0.0
