17

C	-0.437225	-0.121555	-1.469922
C	0.0	0.0	0.0
F	-1.745832	-0.547201	-1.524886
H	1.093248	0.0	0.0
N	-0.415815	1.250691	-2.120663
O	0.695869	1.755953	-2.232432
O	-1.482744	1.74208	-2.473019
C	0.441607	-1.049984	-2.264411
H	0.112219	-1.072378	-3.305934
H	0.354978	-2.052813	-1.844616
H	1.480052	-0.724173	-2.186036
N	-0.37911	-1.169386	0.78192
H	-1.231682	-1.590475	0.437802
H	0.381796	-1.835424	0.765901
C	-0.555806	1.211625	0.611518
N	-1.028299	2.170957	1.097482
Br	3.433581	0.0	0.0
