17

C	-0.581534	0.013524	-1.415606
C	0.0	0.0	0.0
F	-0.021168	1.043265	-2.120468
H	1.093073	0.0	0.0
N	-0.131375	-1.26878	-2.106431
O	-0.972044	-2.151522	-2.267743
O	1.042204	-1.312917	-2.448041
C	-2.081385	0.12804	-1.482035
H	-2.372034	1.094721	-1.06834
H	-2.549305	-0.678186	-0.921017
H	-2.409754	0.06829	-2.520203
N	-0.416616	-1.219943	0.688802
H	-1.172062	-1.050027	1.338094
H	0.381599	-1.575495	1.200129
C	-0.438074	1.221192	0.68844
N	-0.858624	2.152431	1.269428
Br	3.436142	0.0	0.0
