17

C	-0.426699	-0.13783	-1.470331
C	0.0	0.0	0.0
Br	-2.354873	-0.471057	-1.596182
H	1.09403	0.0	0.0
N	-0.154153	1.189238	-2.17929
O	0.888843	1.250513	-2.823983
O	-0.953418	2.106519	-2.019142
C	0.335358	-1.254248	-2.140825
H	0.083553	-1.309934	-3.200809
H	1.404499	-1.06802	-2.015098
H	0.072701	-2.18593	-1.642329
N	-0.360802	-1.216202	0.722384
H	-1.251711	-1.110371	1.190755
H	0.361463	-1.392968	1.411122
C	-0.509302	1.213095	0.64684
N	-0.936199	2.122789	1.257063
Br	3.408797	0.0	0.0
