17

C	-0.372493	-0.006751	-1.489877
C	0.0	0.0	0.0
Br	0.137795	-1.730943	-2.274124
H	1.096818	0.0	0.0
N	-1.899885	-0.01403	-1.734575
O	-2.634512	-0.04585	-0.735193
O	-2.289189	0.436552	-2.822556
C	0.280616	1.124134	-2.259581
H	-0.085679	2.084668	-1.884308
H	1.357418	1.058566	-2.086169
H	0.03746	1.039115	-3.31814
N	-0.44586	-1.078651	0.857211
H	-1.44051	-1.23603	0.7656
H	0.072899	-1.91454	0.613395
C	-0.418311	1.285611	0.561131
N	-0.739549	2.328593	0.981045
Br	3.232769	0.0	0.0
