17

C	-0.593344	-0.014432	-1.416436
C	0.0	0.0	0.0
Br	0.202754	1.405657	-2.479081
H	1.091863	0.0	0.0
N	-0.174967	-1.327799	-2.070614
O	-1.000967	-1.869664	-2.803581
O	0.953427	-1.729715	-1.839806
C	-2.098955	0.101997	-1.4411
H	-2.396146	1.045861	-0.983714
H	-2.469054	0.063052	-2.462407
H	-2.524488	-0.73444	-0.883247
N	-0.446192	-1.218436	0.680625
H	-1.162124	-1.022682	1.370877
H	0.359356	-1.627265	1.143659
C	-0.444713	1.213681	0.693921
N	-0.855432	2.130148	1.304931
Br	3.468843	0.0	0.0
