17

C	-0.381089	-0.004813	-1.484073
C	0.0	0.0	0.0
Br	0.149555	-1.694045	-2.27661
H	1.095263	0.0	0.0
N	-1.8938	0.077992	-1.666076
O	-2.310283	0.314787	-2.793089
O	-2.600324	-0.100269	-0.675009
C	0.273292	1.139192	-2.223242
H	-0.107289	2.090605	-1.842911
H	1.347155	1.083781	-2.034731
H	0.068236	1.073086	-3.289963
N	-0.432363	-1.164277	0.741806
H	0.268395	-1.381643	1.434861
H	-1.327906	-1.016177	1.178209
C	-0.425493	1.279046	0.595232
N	-0.756524	2.293149	1.089688
Br	3.426117	0.0	0.0
