17

C	-0.382348	-0.005249	-1.483558
C	0.0	0.0	0.0
Br	0.140934	-1.695017	-2.281377
H	1.09594	0.0	0.0
N	-1.895268	0.079765	-1.663441
O	-2.599622	-0.096453	-0.669577
O	-2.314655	0.319716	-2.791605
C	0.273311	1.136539	-2.229657
H	-0.111293	2.088714	-1.852938
H	1.348604	1.083614	-2.041417
H	0.067569	1.064663	-3.29583
N	-0.431778	-1.16336	0.744882
H	-1.32993	-1.013711	1.181045
H	0.270536	-1.376175	1.44091
C	-0.427917	1.27921	0.591323
N	-0.763559	2.293963	1.081378
Br	3.424889	0.0	0.0
