17

C	-0.4054	0.024767	-1.480052
C	0.0	0.0	0.0
Br	0.348414	-1.538168	-2.353212
H	1.101125	0.0	0.0
N	-1.932124	-0.046478	-1.56756
O	-2.4917	-1.079114	-1.909616
O	-2.495528	0.99427	-1.230449
C	0.097274	1.270451	-2.178034
H	-0.147068	1.23689	-3.241636
H	-0.355889	2.153451	-1.726409
H	1.182139	1.307688	-2.049451
N	-0.587642	-1.160077	0.680735
H	-0.418969	-1.046747	1.67522
H	-0.044476	-1.96917	0.395813
C	-0.434126	1.222768	0.679381
N	-0.723785	2.200361	1.262919
Br	3.452772	0.0	0.0
