17

C	-0.438971	-0.043892	-1.486465
C	0.0	0.0	0.0
Br	-2.386582	-0.182987	-1.612763
H	1.095025	0.0	0.0
N	0.004714	1.252606	-2.169544
O	1.221985	1.360638	-2.250564
O	-0.822683	2.067899	-2.559063
C	0.209349	-1.200663	-2.218776
H	-0.009476	-1.148401	-3.28733
H	1.287774	-1.153652	-2.046753
H	-0.18642	-2.140227	-1.832476
N	-0.411316	-1.143094	0.785851
H	-1.367493	-1.406102	0.591511
H	0.215176	-1.915447	0.616829
C	-0.47641	1.2407	0.621519
N	-0.861501	2.235425	1.113261
Br	3.438456	0.0	0.0
