18
Coordinates from ORCA-job run
  C   -0.73505098004009     -0.36373709606334      0.10267454592474
  C   0.68643001346711      0.18852264367087      0.31426710381400
  H   -0.74679565807710     -1.36101678973426      0.56819788575550
  H   0.73272098911753      0.56405946927861      1.34990317620453
  N   -1.04854126150441     -0.43432797938162     -1.32799506376069
  H   -0.21128013260901     -0.30648160236995     -1.88120843601182
  H   -1.48070742781471     -1.31698053175675     -1.56179361467695
  C   -1.78689858245909      0.48769987234456      0.80741134543470
  H   -2.78668800874047      0.10510244660992      0.58975662991209
  H   -1.64300027200698      0.48572104287657      1.89272408047278
  H   -1.75095715462613      1.51941120786134      0.44749710428453
  N   0.95793170660274      1.23216232751333     -0.67714848553341
  H   1.82808403388955      1.69910431463279     -0.45276792864080
  H   0.22102700268161      1.92736827027828     -0.67863429942607
  C   1.73911168505958     -0.90051122811732      0.15800658194550
  H   1.63781865914186     -1.65450089303643      0.94311858551513
  H   2.74874608021746     -0.48383930319402      0.22076393103369
  H   1.63704930770057     -1.38875617141259     -0.81377314224744
