18
Coordinates from ORCA-job run
  C   0.74389751660852      0.43154619631727      0.00457678010827
  C   -0.61668320206153     -0.19210899928370     -0.34347467310950
  H   0.53500089953418      1.40079906614644      0.48391969045091
  H   -0.40999334228467     -1.11486941560575     -0.90328811613848
  N   1.55549308377996      0.71273244937235     -1.17829239885340
  H   0.93157975664059      1.09060911689319     -1.88464584953560
  H   1.91043623112098     -0.16716889428928     -1.54144480489044
  C   1.55633089218455     -0.41537629133825      0.97239507763028
  H   1.67904570481506     -1.43246754786938      0.58249048281049
  H   1.09167964042245     -0.48343289003640      1.95693771936947
  H   2.54823760950329      0.02481980916919      1.08917854716730
  N   -1.29110914918614      0.71936410261528     -1.27759720316940
  H   -2.09674042516417      0.26072098146376     -1.68761685926035
  H   -1.64038620844107      1.52065438095307     -0.76031375542110
  C   -1.45725189694846     -0.52916295026323      0.88690672842340
  H   -1.57537068473061      0.35748296275715      1.51987019260762
  H   -1.00992557000957     -1.32118964211175      1.49148985498783
  H   -2.45524085578335     -0.86195243488996      0.58790858682267
