18
Coordinates from ORCA-job run
  C   0.73138953027853      0.35706046037679     -0.06021077225037
  C   -0.63598223316137     -0.27208617863158     -0.33021208005721
  H   0.53925245884911      1.37886139396256      0.32264675400199
  H   -0.43789006801264     -1.23814264187154     -0.81044357590117
  N   1.46492183257005      0.35905319130387     -1.32319339881284
  H   0.85087113591642      0.75089330373486     -2.02913000297461
  H   2.28152082161957      0.95455111825766     -1.24690404770270
  C   1.54041365042159     -0.40246404164040      0.98086502483911
  H   1.09633633274870     -0.33911374160490      1.97629798637184
  H   1.62757426814357     -1.45232964331877      0.68895389335095
  H   2.55192021929523      0.00857663413866      1.04382592437944
  N   -1.31831850374080      0.56149477132003     -1.33096479501612
  H   -2.10700559083169      0.05712637561530     -1.71905958545534
  H   -1.69181139657405      1.38727092317336     -0.87271840528585
  C   -1.45868235477778     -0.48949533606877      0.93721117396906
  H   -1.57071701821225      0.45072403838472      1.48855149088017
  H   -2.45903478849923     -0.84771535603229      0.67900118065433
  H   -1.00475829603297     -1.22426527109956      1.60548323500932
