18
Coordinates from ORCA-job run
  C   0.65561021352493      0.16649409726782      0.37240560608388
  C   -0.74108884448822     -0.46222198122487      0.20588796083377
  H   0.78680371412190      0.39377947627502      1.44450784895980
  H   -0.76753373050631     -1.36148432055663      0.83508911374586
  N   0.73177230273689      1.36841530502636     -0.46541107505317
  H   1.69783558822123      1.65872432297451     -0.56300355285001
  H   0.23775316240813      2.13389275120577     -0.02242389336577
  C   1.75963478927728     -0.79161704092431     -0.04651352669332
  H   2.74597268939907     -0.37743370451427      0.18314339237579
  H   1.66928095334396     -1.74701262583954      0.47688416623461
  H   1.71473650883995     -0.97311595753099     -1.12249261485374
  N   -1.04836035099846     -0.87272270413527     -1.16244337431913
  H   -0.75642530145153     -0.11791685008671     -1.77629477285598
  H   -0.50421112982422     -1.68983592198634     -1.41164708384591
  C   -1.83343676766885      0.48906662745406      0.68115507974084
  H   -1.63209079864994      0.86643873100748      1.68880827249809
  H   -2.79576380195842     -0.02441102525890      0.68200267477519
  H   -1.91948919632740      1.33896082084683     -0.00165422141079
