18
Coordinates from ORCA-job run
  C   -0.74870475726458     -0.42000261230510      0.32995166182317
  C   0.75782179412395     -0.16107641032950      0.46478420389563
  H   -1.11475363635058     -0.55421797910163      1.35939659914791
  H   1.18362388670920     -1.07337240721910      0.90574792361871
  N   -0.95243351103532     -1.60762782664981     -0.50568070801531
  H   -1.94604963209153     -1.75885542503955     -0.64043269693377
  H   -0.59478520494335     -2.42496879809074     -0.02207819852673
  C   -1.50458409260052      0.74668058260626     -0.28786987208413
  H   -1.34679516228797      1.66600061094700      0.27989798321735
  H   -2.58033897452070      0.54578838528420     -0.27964658045443
  H   -1.20367064330054      0.90094637004917     -1.32592478619049
  N   0.96740513632312      0.90232135247501      1.45402599541893
  H   0.83741231279154      1.80299216090254      1.00533338510390
  H   1.93016282532933      0.87980134673251      1.77015915933353
  C   1.44611045715785      0.08592456401798     -0.87538325485168
  H   1.19599538112382     -0.69553622209829     -1.59432968985803
  H   1.14095538129596      1.04941929033342     -1.29427838387690
  H   2.53162843954032      0.11378301748564     -0.74267274076767
