18
Coordinates from ORCA-job run
  C   -0.70150951825820     -0.23785242284112     -0.26619151493742
  C   0.69846146271012      0.36225940020200     -0.02067066931033
  H   -0.55114543039399     -1.23183774262911     -0.71280865127114
  H   0.54784956163206      1.36628024702423      0.40281677956260
  N   -1.52365039887000      0.51827699611181     -1.21451340387400
  H   -1.06236077571153      0.58286465671673     -2.11348129569575
  H   -1.65885465694899      1.46318664400590     -0.86838117382393
  C   -1.50105061487124     -0.39650651647869      1.02124701904690
  H   -1.05477763210321     -1.12687504674378      1.69700107447232
  H   -2.51491403946230     -0.71878315060414      0.77979112355851
  H   -1.56578545274465      0.56033668112631      1.55204691804616
  N   1.49764741339775      0.54455340482981     -1.23517707776627
  H   1.01986195678845      1.15325375427143     -1.88809955680792
  H   1.63173495949533     -0.35269022974385     -1.69115544810689
  C   1.52207606593079     -0.46327138645156      0.96019297847397
  H   1.58884968821510     -1.50405856258662      0.62286375026862
  H   2.53393679839629     -0.05893813182117      1.01249474623817
  H   1.09363061279820     -0.46119859438819      1.96302440192639
