19

C	0.0	0.0	0.0
C	-0.374294	0.030589	-1.510812
Br	1.969958	0.0	0.0
H	0.036035	0.949998	-1.932365
C	-0.503783	1.289682	0.628329
H	-1.599047	1.271635	0.618329
H	-0.167985	1.358607	1.665441
H	-0.14207	2.167701	0.087397
C	-0.517951	-1.200707	0.769705
H	-1.6129	-1.176467	0.753243
H	-0.194079	-1.129588	1.810909
H	-0.165035	-2.139398	0.348351
N	-1.747163	-0.088588	-1.86946
H	-2.243321	-0.796244	-1.339164
H	-2.26214	0.765649	-1.700988
N	0.340208	-1.057693	-2.285293
O	0.05638	-2.220469	-2.009593
O	1.110089	-0.711753	-3.177441
Br	-4.413981	0.0	0.0
