13

C	-0.537968	-0.010533	-1.434286
C	0.0	0.0	0.0
Br	-0.166702	1.712785	-2.274213
H	1.091818	0.0	0.0
H	-1.623051	-0.120437	-1.43529
C	0.043994	-1.064718	-2.255335
N	0.461489	-1.89664	-2.972344
N	-0.42625	-1.261632	0.712397
O	-1.043985	-2.105312	0.061738
O	-0.108497	-1.350725	1.890062
C	-0.520944	1.119369	0.770003
N	-0.970389	2.009877	1.3909
Cl	3.111171	0.0	0.0
