13

C	-0.399383	-0.026016	-1.467819
C	0.0	0.0	0.0
Br	-2.331313	-0.282455	-1.704119
H	1.096069	0.0	0.0
H	0.080697	-0.887426	-1.931656
C	-0.013077	1.20344	-2.143
N	0.256115	2.200653	-2.702396
N	-0.375927	-1.302956	0.64444
O	-0.775218	-1.278846	1.801809
O	-0.193925	-2.307238	-0.034199
C	-0.553447	1.122143	0.732299
N	-0.972281	2.058367	1.305294
Cl	3.0885	0.0	0.0
