13

C	-0.400906	-0.015392	-1.467344
C	0.0	0.0	0.0
Br	-2.332566	-0.26942	-1.706604
H	1.096039	0.0	0.0
H	0.081073	-0.872046	-1.938423
C	-0.016391	1.220135	-2.133402
N	0.248899	2.22306	-2.683948
N	-0.37617	-1.307154	0.637067
O	-0.204657	-2.308385	-0.051962
O	-0.763889	-1.289416	1.800819
C	-0.553476	1.116204	0.74115
N	-0.97347	2.046854	1.322619
Cl	3.0922	0.0	0.0
