13

C	-0.486919	0.019068	-1.448595
C	0.0	0.0	0.0
Br	0.355767	-1.336599	-2.560817
H	1.095844	0.0	0.0
H	-0.140603	0.967856	-1.866073
C	-1.938232	-0.053818	-1.576957
N	-3.108685	-0.062639	-1.679619
N	-0.454687	-1.205042	0.773794
O	-1.007449	-2.112038	0.158151
O	-0.204951	-1.189935	1.972792
C	-0.485998	1.189011	0.688238
N	-0.893659	2.174348	1.182362
Cl	3.119656	0.0	0.0
