13

C	-0.479294	0.015208	-1.451398
C	0.0	0.0	0.0
Br	0.343458	-1.365504	-2.547493
H	1.093176	0.0	0.0
H	-0.109265	0.952651	-1.873262
C	-1.930121	-0.030541	-1.58888
N	-3.100831	-0.045093	-1.683022
N	-0.460869	-1.202309	0.775483
O	-0.185136	-1.198057	1.968961
O	-1.049146	-2.091804	0.167535
C	-0.484734	1.191874	0.68383
N	-0.866281	2.18347	1.186186
Cl	3.121143	0.0	0.0
