13

C	0.0	0.0	0.0
C	-0.209345	-0.345538	-1.52408
Cl	1.790289	0.0	0.0
H	0.424938	-1.224052	-1.687112
H	-0.314458	1.010657	0.239821
H	0.276177	0.468575	-2.073853
C	-0.694972	-0.948539	0.87027
N	-0.708498	-1.858072	1.641753
C	-1.552569	-0.644238	-2.178482
H	-2.22397	0.210235	-2.165924
H	-2.069188	-1.461639	-1.680078
H	-1.344037	-0.934042	-3.223173
H	-2.162107	0.0	0.0
