13

C	0.0	0.0	0.0
C	-0.496666	0.007438	-1.442021
Cl	1.792508	0.0	0.0
H	-1.57724	0.182302	-1.321894
H	-0.3479	0.895495	0.515009
H	-0.021853	0.855579	-1.948507
C	-0.431429	-1.17509	0.765503
N	-0.538776	-2.1601	1.398913
C	-0.248306	-1.29721	-2.181232
H	-0.854857	-2.090847	-1.73715
H	0.801207	-1.606082	-2.158513
H	-0.547447	-1.196214	-3.228546
H	-2.911056	0.0	0.0
