17

C	-0.550648	-0.011183	-1.437694
C	0.017577	0.006809	-0.037683
F	-1.915674	-0.39002	-1.412979
H	1.10956	-0.025042	-0.033791
N	-0.34223	1.169366	-2.155896
H	-0.794684	1.1263	-3.05807
H	-0.617021	1.984634	-1.627383
N	0.043202	-1.129812	-2.301812
O	-0.274542	-1.089855	-3.490873
O	0.747013	-1.983503	-1.780507
C	-0.432973	-1.146204	0.860074
H	0.225597	-1.13606	1.732146
H	-1.476245	-1.054114	1.16827
H	-0.281772	-2.095794	0.350439
C	-0.363319	1.275036	0.566976
N	-0.670805	2.310507	1.033171
H	2.618971	-0.178784	0.463101
