16

C	-0.473771	-0.015127	-1.478201
C	0.0	0.0	0.0
Cl	0.249154	1.359856	-2.365392
H	1.096113	0.0	0.0
C	-0.10211	-1.253958	-2.169971
N	0.191961	-2.244772	-2.730148
C	-1.935055	0.122946	-1.52232
N	-3.107814	0.198915	-1.51296
C	-0.497753	-1.235426	0.734126
H	-0.075267	-1.221895	1.741511
H	-0.164807	-2.156117	0.251395
H	-1.591727	-1.246083	0.809045
N	-0.480768	1.239424	0.593759
H	0.313883	1.78882	0.895509
H	-1.071307	1.053179	1.393654
Br	3.501873	0.0	0.0
