16

C	-0.443199	0.012767	-1.47565
C	0.0	0.0	0.0
Cl	-2.259804	0.043655	-1.570766
H	1.096856	0.0	0.0
C	0.037543	1.215622	-2.159485
N	0.411598	2.183021	-2.710693
C	-0.002237	-1.181665	-2.199883
N	0.346677	-2.137003	-2.787406
C	-0.461186	-1.254038	0.727713
H	-0.12484	-2.161991	0.222036
H	-0.011137	-1.246064	1.72281
H	-1.550413	-1.286896	0.831091
N	-0.432565	1.249038	0.601583
H	-1.253032	1.116967	1.178407
H	0.320661	1.618828	1.167056
Br	3.465259	0.0	0.0
