16

C	-0.471132	-0.015013	-1.470503
C	0.0	0.0	0.0
Cl	0.190508	1.408609	-2.344007
H	1.100767	0.0	0.0
C	-0.026405	-1.223088	-2.173373
N	0.324073	-2.186739	-2.747049
C	-1.937097	0.051277	-1.538173
N	-3.110643	0.055429	-1.593102
C	-0.507966	-1.231703	0.729696
H	-0.182151	-2.149998	0.238121
H	-0.077865	-1.236194	1.734949
H	-1.600074	-1.225896	0.8111
N	-0.544633	1.213904	0.6101
H	0.12776	1.96136	0.469925
H	-0.598796	1.064907	1.610854
Br	3.517016	0.0	0.0
