16

C	-0.445641	-0.02797	-1.476674
C	0.0	0.0	0.0
Cl	-2.260222	-0.025805	-1.584781
H	1.10188	0.0	0.0
C	0.016314	1.167563	-2.183648
N	0.342277	2.124911	-2.780678
C	0.01598	-1.230172	-2.173447
N	0.34417	-2.212678	-2.727375
C	-0.460322	-1.231409	0.762933
H	0.004429	-1.204363	1.750824
H	-0.13848	-2.153288	0.273453
H	-1.548252	-1.252861	0.88153
N	-0.440173	1.262667	0.568737
H	-1.182658	1.125738	1.242786
H	0.347806	1.706596	1.02563
Br	3.457939	0.0	0.0
