16

C	-0.486279	-0.033839	-1.471979
C	0.0	0.0	0.0
Cl	0.203358	-1.43721	-2.354599
H	1.09932	0.0	0.0
C	-1.950265	-0.139565	-1.512953
N	-3.119693	-0.254217	-1.523062
C	-0.085213	1.192758	-2.169401
N	0.215355	2.170485	-2.748452
C	-0.499917	-1.196519	0.789218
H	-0.229156	-2.137026	0.308304
H	-1.587108	-1.163041	0.920089
H	-0.020351	-1.176911	1.770504
N	-0.504823	1.260687	0.540749
H	-0.961897	1.11461	1.43416
H	0.27541	1.8944	0.67849
Br	3.500971	0.0	0.0
