16

C	-0.478447	0.005923	-1.473834
C	0.0	0.0	0.0
Cl	0.2434	-1.357222	-2.388397
H	1.099403	0.0	0.0
C	-1.939258	-0.12251	-1.532679
N	-3.104207	-0.269257	-1.550776
C	-0.090375	1.258175	-2.130235
N	0.204224	2.256656	-2.673073
C	-0.502751	-1.217908	0.751413
H	-0.228558	-2.142636	0.24356
H	-0.028256	-1.230518	1.735331
H	-1.590255	-1.186873	0.877543
N	-0.525491	1.239168	0.573533
H	0.231253	1.913222	0.636843
H	-0.872314	1.072219	1.509912
Br	3.52762	0.0	0.0
