16

C	-0.437501	-0.076695	-1.479071
C	0.0	0.0	0.0
Cl	-2.249017	-0.140984	-1.6037
H	1.108088	0.0	0.0
C	-0.009167	1.121008	-2.204352
N	0.305156	2.07719	-2.809964
C	0.074816	-1.276572	-2.145511
N	0.439947	-2.263171	-2.668965
C	-0.465574	-1.204306	0.799117
H	-1.550628	-1.198401	0.942306
H	0.024066	-1.16895	1.774728
H	-0.177801	-2.142821	0.320249
N	-0.456851	1.275229	0.530627
H	-1.092861	1.143174	1.306868
H	0.347115	1.802856	0.848843
Br	3.461935	0.0	0.0
