16

C	-0.479528	0.041124	-1.466894
C	0.0	0.0	0.0
Cl	0.18878	1.491427	-2.289302
H	1.102987	0.0	0.0
C	-0.05279	-1.143209	-2.217357
N	0.23687	-2.110584	-2.818173
C	-1.945143	0.12131	-1.519511
N	-3.1195	0.134056	-1.553844
C	-0.508731	-1.255707	0.686936
H	-1.599494	-1.244955	0.781406
H	-0.066328	-1.301454	1.685196
H	-0.197414	-2.157208	0.156777
N	-0.537302	1.194428	0.654192
H	-0.618183	1.003788	1.64661
H	0.149594	1.936113	0.560333
Br	3.521544	0.0	0.0
