16

C	-0.443196	0.037318	-1.477151
C	0.0	0.0	0.0
Cl	-2.258898	0.06299	-1.584948
H	1.096822	0.0	0.0
C	0.032088	1.256406	-2.134313
N	0.378587	2.225273	-2.700804
C	0.003655	-1.140999	-2.223656
N	0.312922	-2.106944	-2.816281
C	-0.463801	-1.262732	0.708525
H	-0.005915	-1.275649	1.700159
H	-0.137862	-2.163909	0.183922
H	-1.552582	-1.289667	0.818979
N	-0.434668	1.240195	0.619975
H	-1.209091	1.087113	1.252203
H	0.342228	1.639223	1.13095
Br	3.454803	0.0	0.0
