15
Coordinates from ORCA-job run
  C   -0.84117669451195      0.45638336831233     -0.23702405927372
  C   0.63176191731401      0.12744772911697     -0.48597685180938
  F   -1.37762926498193      0.89064943057681     -1.44701579970893
  H   0.66182636280494     -0.63086302144058     -1.27746839556897
  H   -0.91483670783979      1.29767737875198      0.46084942812277
  C   -1.65500988446166     -0.72199351592649      0.24637028931938
  H   -1.52374409676701     -1.57645434597618     -0.42186210607042
  H   -1.37578038259671     -1.01402195946339      1.25966560892107
  H   -2.71093360574712     -0.44741312290105      0.24954688148485
  C   1.34122696760769     -0.39827363757452      0.76614010799969
  H   1.22917704492145      0.30399646734388      1.59566799209216
  H   2.40719523751256     -0.52642336086061      0.57425735650305
  H   0.93112779062395     -1.36352089672979      1.06470112301620
  C   1.31670415042195      1.32080186383404     -0.99191083241277
  N   1.88209116569961      2.28200762293661     -1.35794074261499
