15
Coordinates from ORCA-job run
  C   -0.76741915551757     -0.17675706430739     -0.73290692818161
  C   0.71299317494755      0.19250550265689     -0.55795467801596
  F   -0.79739820271627     -1.50142565743792     -1.17224438578951
  H   1.19150052239133      0.00849528352267     -1.52672788255284
  H   -1.18879407287892      0.42929979996661     -1.54132112371633
  C   -1.60740562707552     -0.05920189106472      0.51660821195195
  H   -2.64299445261863     -0.31189481047679      0.28405907197637
  H   -1.57856953228084      0.95954446675354      0.90893950889964
  H   -1.25480734219688     -0.74856040013233      1.28457417875984
  C   1.42360055088931     -0.64001794026584      0.51274360208867
  H   2.49716965140756     -0.44715487140911      0.48900346887554
  H   1.25552539932855     -1.69967292295122      0.31780672764493
  H   1.05942862197431     -0.39886552190146      1.51181339303636
  C   0.81788774778442      1.62413696466055     -0.27260764933978
  N   0.87728271656160      2.76956906238653     -0.02178551563727
