15

C	-0.525568	-0.002899	-1.417565
C	0.0	0.0	0.0
F	0.173181	-0.879382	-2.230357
H	1.090947	0.0	0.0
H	-1.576368	-0.312855	-1.45598
C	-0.427138	1.339326	-2.025616
N	-0.38285	2.395883	-2.537307
N	-0.469303	-1.222054	0.681343
O	-0.973535	-2.131114	0.006677
O	-0.303196	-1.296745	1.900557
C	-0.400238	1.223457	0.806019
H	0.092799	2.097264	0.380319
H	-1.484243	1.395257	0.83953
H	-0.027307	1.094382	1.819896
F	2.505055	0.0	0.0
