15

C	-0.530334	0.025642	-1.415773
C	0.0	0.0	0.0
F	0.182514	-0.811135	-2.256158
H	1.090919	0.0	0.0
H	-1.574161	-0.30603	-1.458964
C	-0.468533	1.385163	-1.9864
N	-0.477874	2.454308	-2.471018
N	-0.462286	-1.240061	0.654252
O	-0.314041	-1.33596	1.874033
O	-0.938749	-2.143538	-0.044705
C	-0.396162	1.204751	0.835469
H	0.088366	2.089338	0.42161
H	-0.010073	1.057045	1.841758
H	-1.480212	1.371798	0.886191
F	2.505867	0.0	0.0
