15

C	-0.369515	0.007256	-1.474132
C	0.0	0.0	0.0
F	0.000961	1.232476	-2.016024
H	1.095128	0.0	0.0
H	0.185875	-0.770478	-1.996077
C	-1.818173	-0.151637	-1.71965
N	-2.975609	-0.240335	-1.898822
N	-0.419051	-1.280351	0.573938
O	-0.576785	-1.355995	1.793876
O	-0.53607	-2.247823	-0.192028
C	-0.53895	1.171858	0.78249
H	-0.11248	1.158094	1.784265
H	-1.632314	1.167587	0.860949
H	-0.214357	2.087594	0.28774
F	2.512751	0.0	0.0
