12
Coordinates from ORCA-job run
  C   -0.20548448012268      0.10513174068918     -0.32527415681308
  C   0.99513770456401     -0.76216233655455      0.03683082860639
  H   -0.34683192073590      0.06781399576395     -1.41801207067199
  H   1.89516729481137     -0.40432725878150     -0.46975884085070
  H   0.84037483628415     -1.80683139237255     -0.25223379681038
  H   1.15361053538632     -0.72421521813300      1.11741702296521
  N   -0.06818729372773      1.51441512105445      0.01483627955628
  H   0.71736203776096      1.91908629019829     -0.48051424750393
  H   0.11428186638541      1.58339455597586      1.01055039989919
  N   -1.36442864577188     -0.36507614370154      0.42003458398108
  H   -2.16309936498822      0.20192213211697      0.16087753801288
  H   -1.56790256984581     -1.32915148625557      0.18624645962904
