12
Coordinates from ORCA-job run
  C   -0.17608732178608      0.14136963910367     -0.32892842315839
  C   0.95123209798868     -0.81586507863811      0.04209558196387
  H   -0.27364704760753      0.15772603877014     -1.42695458244178
  H   0.74028193036382     -1.82163951610173     -0.33026261299119
  H   1.90875524729530     -0.49536910293584     -0.38131236750708
  H   1.05056094553047     -0.85043935597835      1.12982638024084
  N   0.11363247690222      1.44926035166552      0.24135844456147
  H   -0.62834886107008      2.08581866825983     -0.02469103837735
  H   0.98790771015386      1.80796748737694     -0.12260955783500
  N   -1.48736276081581     -0.22724602113561      0.18613054881338
  H   -1.76649343758758     -1.12937249202391     -0.18057620848428
  H   -1.42143097936727     -0.30121061836255      1.19592383521552
