12
Coordinates from ORCA-job run
  C   -0.08251614474686      0.12916117857369     -0.44054042136883
  C   0.94553037867652     -0.82791301519693      0.15162477337636
  H   -0.08477779763245      0.01436644794290     -1.53010175667888
  H   0.95719359539253     -0.73492386986387      1.24366331867483
  H   0.69935110186547     -1.86357115673526     -0.09333852548373
  H   1.94583821232962     -0.60268929666809     -0.22296647101001
  N   0.32630666849603      1.49175892485293     -0.15435741697411
  H   0.44634302874068      1.60498069259926      0.84690540326782
  H   -0.42359049395437      2.11230022953020     -0.43776114850210
  N   -1.46309324316455     -0.12477072496768     -0.00847704895311
  H   -1.49008450381584     -0.17578505551521      1.00561096270577
  H   -1.77850080218678     -1.02291435455193     -0.36026166905401
