12
Coordinates from ORCA-job run
  C   -0.18494873328854      0.00320113753997     -0.42816138275859
  C   1.01614981619286     -0.74142527248594      0.14317023429556
  H   -0.17791342151877     -0.10024814197726     -1.51883859357028
  H   1.95025228486729     -0.32837740159465     -0.24418254489855
  H   0.96778894942934     -1.80340514676375     -0.10486306128513
  H   1.03250928831909     -0.64260296187516      1.23463643929532
  N   -0.18173216315587      1.44781303260736     -0.16312299556430
  H   -0.04058129229066      1.60322655914104      0.83067203626236
  H   0.59392500682316      1.88886623257652     -0.64657169793929
  N   -1.39982267455479     -0.62717060440764      0.05393557976271
  H   -2.18618852285300     -0.05140849877240     -0.22510268714100
  H   -1.38943853797012     -0.64846893398807      1.06842867354118
