12
Coordinates from ORCA-job run
  C   -0.23173934947573      0.14638860176401     -0.43211264692087
  C   0.91304155358352     -0.73575207856949      0.08098111574999
  H   -0.27076736390448      0.07097943164777     -1.52445557982653
  H   0.96584372361830     -0.67158857899189      1.17323554175126
  H   1.87765931730781     -0.41634370833147     -0.32583514507101
  H   0.76271704587750     -1.78511491150497     -0.19151077817095
  N   -0.05645917522930      1.56088309036302     -0.11748641531554
  H   0.00407673490756      1.67328530696860      0.89002511439154
  H   0.82711396669958      1.87938201942022     -0.49853192592375
  N   -1.54270761946178     -0.26364945445418      0.06158146208627
  H   -1.54372383841474     -0.22524730980982      1.07641848306375
  H   -1.70605499550823     -1.23122240850180     -0.19230922581417
