15

C	0.0	0.0	0.0
C	-0.476668	0.036641	-1.43902
F	1.388186	0.0	0.0
H	-1.573603	0.058829	-1.371449
H	-0.171462	-0.92201	-1.869645
C	-0.306153	1.299601	0.68732
N	-0.40327	2.337024	1.230674
N	-0.551941	-1.133207	0.65494
H	-1.584966	-0.99164	0.520658
H	-0.37785	-1.058676	1.653432
C	0.073496	1.210682	-2.2371
H	-0.315161	2.157905	-1.854614
H	-0.229951	1.127508	-3.284676
H	1.1652	1.248744	-2.202105
H	-3.036102	0.0	0.0
