15

C	0.0	0.0	0.0
C	-0.229802	-0.057716	-1.534155
F	1.386504	0.0	0.0
H	0.485945	0.676144	-1.921466
H	0.172295	-1.044699	-1.790085
C	-0.338517	1.34876	0.54811
N	-0.481029	2.432524	0.979615
N	-0.590834	-1.087185	0.685788
H	-1.620762	-0.918652	0.510078
H	-0.454895	-0.95617	1.686045
C	-1.565665	0.161001	-2.226265
H	-2.006727	1.120369	-1.962193
H	-2.305665	-0.580864	-1.942874
H	-1.377852	0.131288	-3.309856
H	-3.070898	0.0	0.0
