15

C	0.0	0.0	0.0
C	-0.47455	0.187615	-1.431032
F	1.38744	0.0	0.0
H	0.013601	1.087934	-1.819837
H	-1.557955	0.353354	-1.355363
C	-0.286076	1.253906	0.780592
N	-0.35623	2.26066	1.382955
N	-0.55526	-1.173008	0.574623
H	-0.368912	-1.173822	1.573564
H	-1.588964	-1.012379	0.456672
C	-0.16199	-1.025864	-2.298336
H	-0.726441	-1.891994	-1.953738
H	-0.436331	-0.824894	-3.338623
H	0.901983	-1.275312	-2.264799
H	-3.045325	0.0	0.0
