15

C	0.0	0.0	0.0
C	-0.508743	0.034882	-1.4281
F	1.406481	0.0	0.0
H	-0.278788	-0.952006	-1.86074
H	-1.607237	0.119175	-1.321218
C	-0.27553	1.308074	0.677247
N	-0.352746	2.355718	1.21302
N	-0.532875	-1.116489	0.691239
H	-1.543279	-1.163162	0.407174
H	-0.521715	-0.949205	1.698286
C	0.088657	1.155005	-2.266787
H	-0.23626	2.13134	-1.899123
H	-0.249365	1.069233	-3.303947
H	1.180608	1.133705	-2.259051
H	-3.157463	0.0	0.0
