13

C	0.0	0.0	0.0
C	-0.356941	-0.342617	-1.466974
F	1.34689	0.0	0.0
H	-0.317265	0.605846	-2.014245
H	-1.378722	-0.708646	-1.508469
C	-0.789898	1.150749	0.447877
N	-0.717463	2.290419	0.807323
N	-0.342542	-1.184629	0.909122
O	-0.423756	-2.295143	0.389523
O	-0.336714	-0.957888	2.114785
C	0.569786	-1.282306	-2.091746
N	1.281456	-2.020734	-2.664067
H	-2.21396	0.0	0.0
