13

C	0.0	0.0	0.0
C	-0.31133	-0.044671	-1.512259
F	1.359938	0.0	0.0
H	0.27902	-0.87184	-1.910568
H	-1.371052	-0.248408	-1.643042
C	-0.543532	1.144697	0.740525
N	-0.695835	2.090147	1.432422
N	-0.574295	-1.215721	0.62865
O	-0.561014	-1.228983	1.877459
O	-0.566913	-2.245568	-0.086132
C	0.059603	1.198932	-2.171103
N	0.345999	2.192515	-2.727549
H	-2.168515	0.0	0.0
