17

C	-0.568751	0.021285	-1.427182
C	0.0	0.0	0.0
Br	0.321618	-1.498671	-2.467723
H	1.097383	0.0	0.0
N	-1.975552	-0.122695	-1.387437
H	-2.172333	-0.892067	-0.752227
H	-2.3681	-0.286669	-2.30494
C	-0.202808	1.218822	-2.180564
N	0.019043	2.194409	-2.797231
N	-0.522193	-1.22425	0.63706
H	0.134105	-1.971488	0.431581
H	-0.486111	-1.085885	1.640686
C	-0.481819	1.22303	0.769829
H	-0.189582	2.143194	0.26113
H	0.003389	1.228478	1.749893
H	-1.567074	1.211933	0.895417
Cl	3.437773	0.0	0.0
