17

C	-0.222099	0.04884	-1.529624
C	0.0	0.0	0.0
Br	-2.135305	0.477172	-1.988508
H	1.100722	0.0	0.0
N	0.621787	1.05156	-2.096956
H	0.684676	0.952992	-3.103436
H	1.554667	0.955805	-1.683684
C	-0.043672	-1.292427	-2.107331
N	0.13732	-2.362715	-2.559821
N	-0.500163	-1.180765	0.665322
H	-1.467381	-1.352027	0.405807
H	0.055367	-1.989303	0.411406
C	-0.493076	1.261334	0.685067
H	-0.017856	1.31831	1.665306
H	-0.232852	2.148727	0.106537
H	-1.577829	1.231162	0.822583
Cl	3.384945	0.0	0.0
