17
Coordinates from ORCA-job run
  C   -0.85515948930295      0.14384290156082     -0.04995379249334
  C   0.62056590087332      0.22450984932274     -0.43610968192929
  F   -1.60465965753336      0.24415774210196     -1.18962225021272
  H   0.81271721516623      1.24290142482174     -0.77535564912940
  N   -1.19574841500020     -1.02485927956000      0.62634908720790
  H   -0.59350719522380     -1.22302447044456      1.41309048701847
  H   -2.15896558059064     -1.00372722783255      0.93638752114278
  N   -1.25217243884758      1.45488189090173      0.70971686856866
  O   -0.96903690269493      2.50696554147634      0.15493248239243
  O   -1.85313546174493      1.31777818080611      1.76913192838802
  C   1.00160059540012     -0.81345977232245     -1.46589286293937
  H   0.44759107576578     -0.61649348888489     -2.38384534176618
  H   2.06878861072059     -0.75068070966425     -1.68068613998816
  H   0.76801492694202     -1.81659583159360     -1.11599173255990
  N   1.40749066461575      0.07387648372638      0.83715787572881
  O   1.35383649815808      1.02308129683818      1.61789833009148
  O   2.00377965329649     -0.98315453125369      1.03279287047982
