17
Coordinates from ORCA-job run
  C   -0.76409676683168      0.53669372770354     -0.00423500176810
  C   0.62470882610525      0.10707027247025     -0.49032914268842
  F   -0.80596828867184      1.89829544441264      0.19646869627960
  H   0.66396200901254      0.37601141436502     -1.54875791801049
  N   -1.73971114921044      0.05701961468054     -0.88770915828637
  H   -2.66114206279598      0.05048864365630     -0.47056039258559
  H   -1.73274735815610      0.59071412666391     -1.74713855475335
  N   -1.03071544408444     -0.04078988124811      1.38672859945353
  O   -2.00028499945843     -0.77570446623167      1.53726087786817
  O   -0.23358699677630      0.31156257775194      2.24644535130014
  C   0.87695442906661     -1.37096737691295     -0.28482502557949
  H   1.81614299859589     -1.65829921716035     -0.75849058845883
  H   0.95135008038570     -1.60750519785578      0.77560997167877
  H   0.06231298273829     -1.93970119893323     -0.73342250755960
  N   1.71818293881295      0.94547575248488      0.12263179217683
  O   1.87416481019241      2.05852982043841     -0.37267127040787
  O   2.38047399107556      0.46010594371466      1.03399427134108
