17
Coordinates from ORCA-job run
  C   -0.82861346865948      0.20376614538482     -0.01687425390580
  C   0.65497587708305      0.20939218270739     -0.37205316899623
  F   -1.52721137007393      0.22473689172794     -1.22482057536960
  H   0.89589454263065      1.19910697835971     -0.76151743797004
  N   -1.17737796565440     -0.82553610000150      0.84582767673279
  H   -1.01328261075232     -1.73902286254039      0.44814058114212
  H   -2.11351390461381     -0.73063519118714      1.21379074988175
  N   -1.24895302840103      1.53979322888646      0.61298076734186
  O   -2.03960312176219      1.49575002354903      1.54721872791992
  O   -0.82082646966251      2.54371208626278      0.06294667831652
  C   1.04210175516051     -0.88367890022087     -1.34461466426573
  H   0.82829266550328     -1.87714615876525     -0.95065087066897
  H   0.50252399902468     -0.73868443688584     -2.27993729073963
  H   2.11239663098724     -0.83547885893200     -1.54407932898141
  N   1.40185166470567      0.09413093168267      0.92895369088740
  O   2.05351500652906     -0.92358635307360      1.13754642100473
  O   1.27682979795554      1.04238039304577      1.69814229767033
