17
Coordinates from ORCA-job run
  C   -0.82560630561284      0.20310612454519     -0.07453016613602
  C   0.66179717960611      0.11212513237406     -0.40127199288078
  F   -1.51043435219355     -0.04455482941350     -1.26498665588596
  H   0.92048577977216      0.98501937171788     -1.00151871821534
  N   -1.19775696523600     -0.59832338226147      0.99518074468744
  H   -1.04129185053474     -1.58024639333983      0.81983603879802
  H   -2.13597808955418     -0.41097722050469      1.31973487126778
  N   -1.23431916147762      1.65206891067600      0.22879026024231
  O   -0.78821577688314      2.49912040877435     -0.53098506269762
  O   -2.03306228396563      1.83127004312962      1.13970310119373
  C   1.04520381069205     -1.17725583504473     -1.09486980385015
  H   0.51838409584879     -1.24311250104694     -2.04622465743322
  H   2.11828327592422     -1.18671087668109     -1.28499615514513
  H   0.81383951767855     -2.05277768298168     -0.48841792398182
  N   1.39217006611774      0.28706823177610      0.90238846433691
  O   1.27773843728299      1.38885660171439      1.43107454607899
  O   2.01976262253510     -0.66667610343367      1.35009310962085
