17
Coordinates from ORCA-job run
  C   -0.75616768367130      0.53986481379640      0.04144535956597
  C   0.59220842312969      0.09719410631790     -0.52168600982871
  F   -0.74493400412560      1.91538298035396      0.06800788408384
  H   0.62315174772797      0.47787406520635     -1.54610325819235
  N   -1.81125679567843     -0.00278575284186     -0.71125072395413
  H   -2.71366815586094      0.25567197943103     -0.33055997823358
  H   -1.75363499292369      0.29381384618134     -1.67720760687580
  N   -0.98056717020323      0.10237457589677      1.49497512135691
  O   -1.15166577819319      0.98019348369481      2.32682287207053
  O   -1.00577577820775     -1.10734137903372      1.68008197675312
  C   0.90522853523497     -1.38547347697493     -0.48094437891636
  H   1.82466941328375     -1.56727969373826     -1.04156709013484
  H   1.03212168739904     -1.72666740130584      0.54378730269608
  H   0.08913600201472     -1.94617145978386     -0.93505277581476
  N   1.67684086253981      0.85053694231779      0.18692396475796
  O   1.71900855091574      0.72347493036070      1.40769966318397
  O   2.45430513661845      1.50033744012146     -0.50537232251786
