17
Coordinates from ORCA-job run
  C   -0.79160838713818      0.62134749103861      0.09201847452488
  C   0.56405812387388      0.21616762214237     -0.50490458867499
  F   -0.78963208229995      1.97485240743413      0.17648535262140
  H   0.60623316045068      0.70926928708303     -1.47961578548761
  N   -1.93866420396305      0.19528883537736     -0.61635201371754
  H   -2.13621100603199     -0.78184182211033     -0.45340503782503
  H   -1.86881307396127      0.39936476410937     -1.60424259670619
  N   -0.95165250766100      0.08006998738044      1.51378770867840
  O   -1.20595849412849     -1.11948961519689      1.58456328634948
  O   -0.82054268957699      0.86360686316048      2.43762428636716
  C   0.82624251251436     -1.27147136658155     -0.61896858632053
  H   1.78276778428611     -1.42944505139244     -1.12095174357208
  H   0.04724103189977     -1.74748809369026     -1.21574357820768
  H   0.85803342918213     -1.74060343994883      0.36175555478294
  N   1.66653550235535      0.85733807459102      0.28640112591480
  O   1.86016677633050      0.40616252485289      1.41311094325903
  O   2.29080412386815      1.76687153175060     -0.25156280198644
