17
Coordinates from ORCA-job run
  C   -0.94239112968867      0.18385010043155     -0.13086244646205
  C   0.56191247306782      0.20997645349210     -0.44793523171894
  F   -1.54155715855594      0.25364538938272     -1.36042063655280
  H   0.74303959885739      1.05388786285523     -1.11241800496033
  N   -1.53080691752424     -0.86790490156393      0.58510888430678
  H   -1.37932720190783     -1.75266067056280      0.12043494396004
  H   -1.20204319414621     -0.89281934133945      1.53966532607827
  N   -1.27070038216190      1.50702656119026      0.58121864621810
  O   -0.95026772473082      2.51194550926692     -0.04616751180928
  O   -1.79969741359939      1.46350203492472      1.68257706567010
  C   1.05104464076386     -1.09390698520393     -1.04982052442361
  H   2.09228942412459     -0.98997022923385     -1.35730507262104
  H   0.45307613339250     -1.33845155367186     -1.92896256888702
  H   0.98106242477703     -1.90741729981323     -0.32499673225339
  N   1.36719353088044      0.49627351531089      0.78085720757194
  O   0.93490630725895      0.08448518324200      1.85863480834274
  O   2.43226658919243      1.07953837129265      0.61139184754050
