17
Coordinates from ORCA-job run
  C   -0.73708321140004      0.35682873797735      0.36440750899703
  C   0.48908908502987     -0.13988705611299     -0.42524457035955
  F   -0.30171934150302      0.97294258743786      1.48453905450111
  H   0.13547492162520     -0.53859154000905     -1.37692549526100
  N   -1.69409442406283      1.18660086872941     -0.26508792712401
  H   -1.29188223051697      2.09330412312921     -0.46759872369187
  H   -2.02910171365674      0.76863378766652     -1.12302199003164
  N   -1.48023360179022     -0.91599655214068      0.76646918708165
  O   -1.97821672262279     -1.52430277527458     -0.17656387992585
  O   -1.49870540736003     -1.22663219963597      1.94603740224661
  C   1.34681856226090     -1.12679228536356      0.33674902424861
  H   2.27618590922167     -1.30616410889326     -0.20442933154166
  H   1.59300331536756     -0.74694323303406      1.32668611397944
  H   0.82015568708200     -2.07796761896392      0.43143247329782
  N   1.26884397059164      1.09502437735082     -0.78391958638707
  O   0.81415268498372      1.76809052101786     -1.71034518008187
  O   2.26631251675007      1.36385236611905     -0.12318407994773
