17
Coordinates from ORCA-job run
  C   -0.70119056102270      0.36496597465255      0.29045306178317
  C   0.49952760001999     -0.18258895807392     -0.48541254334864
  F   -0.23967092104927      0.87556319951206      1.48283929810809
  H   0.16073071504532     -0.47920316136303     -1.47744754196051
  N   -1.51362619377771      1.24132335702654     -0.42987319202453
  H   -0.97701350080602      1.88871905260528     -0.99125444888258
  H   -2.16911616527125      1.72201521402985      0.17334466765693
  N   -1.59206025692931     -0.82733546767647      0.67911814550282
  O   -2.05541550318438     -0.83799005929828      1.81112912979568
  O   -1.80063571885464     -1.63877892008306     -0.21385960438490
  C   1.22867964186783     -1.29217467739584      0.24094657832352
  H   1.47325914223881     -0.99686234537803      1.25987300611426
  H   2.15647037982249     -1.52816543351409     -0.27955769088823
  H   0.60771957800097     -2.18727646727367      0.25366686661298
  N   1.42057797151482      0.99443641688184     -0.70971964438963
  O   2.44901393411305      1.06655543199874     -0.04888622165455
  O   1.05474985827199      1.81579684334954     -1.55335986636387
