17
Coordinates from ORCA-job run
  C   -0.69656412118212      0.44264737236336      0.36669895209464
  C   0.48563361727359     -0.14533775664616     -0.43678941874073
  F   -0.18375866641449      1.00285214492247      1.48780436047390
  H   0.10759340976683     -0.45021478328518     -1.41397927483964
  N   -1.58923271778696      1.34715066290242     -0.24703542020721
  H   -2.14644938640404      0.86893910670020     -0.94331878947557
  H   -1.07553368039435      2.10092643465641     -0.68721753955372
  N   -1.53152256379364     -0.76678644407134      0.78193066296995
  O   -1.51766047439540     -1.10063107867007      1.95487837177333
  O   -2.12029551703597     -1.31964843833943     -0.14405023442151
  C   1.21206767477094     -1.26475672732735      0.27621440913458
  H   1.48826746317663     -0.97104294932185      1.28751955588521
  H   0.57208412369442     -2.14764647737001      0.31771269667651
  H   2.11848018148694     -1.52902032539102     -0.26822449815585
  N   1.40678051408045      1.01397030000937     -0.70907330996640
  O   0.99717638217455      1.84837280360217     -1.51856310462181
  O   2.47093376098261      1.06922615526603     -0.10450741902567
