17
Coordinates from ORCA-job run
  C   -0.87850036976237      0.02849844256866     -0.20120449777333
  C   0.61754347820880      0.12376496426838     -0.47148207097643
  F   -1.49011869363210     -0.16509938424222     -1.41484471261693
  H   0.75697372938053      0.83742314801404     -1.28155052117410
  N   -1.27454662669795     -0.97942378470322      0.67220523351284
  H   -2.27730214431771     -0.95093800759472      0.81240217505254
  H   -0.79755805053472     -0.87920968595544      1.55881617862274
  N   -1.40517150223777      1.44351586763876      0.20127076886367
  O   -0.78430188607619      2.41358083835628     -0.22026580161129
  O   -2.43716351788937      1.46592403105629      0.86120247458108
  C   1.23065235704377     -1.22535400045963     -0.80183051837346
  H   0.68378421305916     -1.67185792216258     -1.63258952907115
  H   1.16997737479564     -1.90022224945206      0.05174005396748
  H   2.27310444659925     -1.09012360462041     -1.09339749800467
  N   1.34485440461344      0.71645310030119      0.69464000909922
  O   2.38996627908798      1.30227045157389      0.44428858448632
  O   0.87680650835962      0.53079779541278      1.81959967141549
