17
Coordinates from ORCA-job run
  C   -0.86800870841452      0.06026559704345     -0.23441627396320
  C   0.63949881152631      0.07306864566013     -0.45196853833750
  F   -1.44470975194956     -0.16245525633630     -1.46015543507128
  H   0.84222329725540      0.74215314074568     -1.28637267386076
  N   -1.34283656128503     -0.88552581899064      0.66872529935316
  H   -0.89328425619256     -0.76549085226195      1.56712168224123
  H   -2.34746522817129     -0.80427420168318      0.76925179366507
  N   -1.34102463648392      1.51533459602152      0.08221283658237
  O   -2.39968885881571      1.61556177896263      0.69072449252703
  O   -0.65481595846081      2.43549883887698     -0.34974323515019
  C   1.19720478337496     -1.31702279585777     -0.70080562799364
  H   0.65800066044386     -1.77425821537386     -1.53071408900769
  H   1.07450315609691     -1.94910872207583      0.17848510182791
  H   2.25439232038419     -1.24440547842746     -0.95970948632801
  N   1.35353442442111      0.68272428238820      0.71345561156036
  O   2.43713916541668      1.20061950889757      0.47730020083899
  O   0.83533734085397      0.57631495241081      1.82660834111615
