17
Coordinates from ORCA-job run
  C   -0.89040291656704      0.04296347960838     -0.13101212997883
  C   0.57800061596762      0.00189842424151     -0.53388767739963
  F   -1.61625821189430     -0.33009473299908     -1.23472168034263
  H   0.67436802224370      0.54992318910753     -1.46949252378015
  N   -1.24847888988840     -0.76732169105645      0.94195903325033
  H   -0.69226110306337     -0.53468395913312      1.75446813132411
  H   -2.23321098433833     -0.65803148516858      1.15263941270739
  N   -1.31985720424237      1.53498053031949      0.04566071085966
  O   -0.69373104642226      2.37822563422588     -0.58762079555096
  O   -2.29363249087937      1.73250893413306      0.76249400309644
  C   1.10088725426064     -1.41786830738116     -0.66089426749125
  H   0.46366752670468     -1.97229736294647     -1.35020589923417
  H   2.11803517321137     -1.39749067361857     -1.05458327943992
  H   1.08744180500199     -1.92566646141633      0.30328809604230
  N   1.43174030987114      0.74963734649356      0.44155009529928
  O   1.05709752783847      0.79939702361206      1.61464142517849
  O   2.47659461219584      1.21492011197830      0.00571734545954
