17
Coordinates from ORCA-job run
  C   -0.77793611382522      0.64097271409963      0.07429378125217
  C   0.56962558193108      0.19128213624929     -0.50964055566120
  F   -0.74829880701061      1.99590458047126      0.12036337123697
  H   0.62514651000339      0.66187481174169     -1.49474108562219
  N   -1.93392013787308      0.21861617663948     -0.62158863376358
  H   -1.86209873173724      0.39677113829245     -1.61432516582307
  H   -2.14819352771162     -0.75050560488841     -0.43377221591598
  N   -0.94716494403926      0.14335341415999      1.51075982627179
  O   -0.79328309047137      0.94873780057007      2.41220506549751
  O   -1.22960073760736     -1.04741153728592      1.61569968848655
  C   0.79606501512060     -1.30427142197614     -0.59040980393332
  H   0.80570603432425     -1.75439414141691      0.39957828841796
  H   0.01210859647450     -1.77226737349567     -1.18710273606802
  H   1.75368716462005     -1.49655319025090     -1.07811857091337
  N   1.68395361076313      0.82464487146906      0.27127256527203
  O   2.31767258760264      1.72127438505808     -0.27729776838706
  O   1.87553098943611      0.38197124056296      1.40182394965281
