17
Coordinates from ORCA-job run
  C   -0.73157618831041      0.24992907580046      0.32172904657235
  C   0.50279265784092     -0.24370364531725     -0.43239011327375
  F   -0.40837300553001      0.52334508499605      1.63889097895363
  H   0.16889428547441     -0.82745915224096     -1.28739145283524
  N   -1.42141353592485      1.27966019023558     -0.32488547090517
  H   -0.85882262420015      2.11989313791885     -0.35537653041651
  H   -2.29806728871461      1.46043534669799      0.14973903664321
  N   -1.73807168575718     -0.90662389899268      0.44853477402176
  O   -2.79434187242766     -0.60873749227539      0.99223397176301
  O   -1.42065507370962     -2.01653406862982      0.03590086954191
  C   1.49081834480466     -1.01540499374566      0.42491269097763
  H   1.00264138889930     -1.88718125615595      0.85787470018934
  H   2.31917564027868     -1.35564366843819     -0.19862513116326
  H   1.87295158942190     -0.38186488727046      1.22449003654054
  N   1.23620152839422      0.92324225005064     -1.02535129491524
  O   1.35202513672869      1.93639903725961     -0.33530670298247
  O   1.72582070273173      0.75324894010718     -2.13697940871174
