17
Coordinates from ORCA-job run
  C   -0.96044786643452      0.05527556276830     -0.05446030265257
  C   0.49398670954433      0.11721958926109     -0.56207960173203
  F   -1.69451488682362     -0.32574019954481     -1.13477798604453
  H   0.52095229763082      0.82312163132057     -1.39352441585013
  N   -1.30894457783368     -0.74792854716338      1.04432532034596
  H   -0.91052059955722     -0.39661697012743      1.90388948135115
  H   -1.03920374309837     -1.71024757983787      0.89315656536326
  N   -1.35707935540658      1.49681422078110      0.28206822116784
  O   -1.23508619047965      1.83124640990609      1.45583921695339
  O   -1.70282408515389      2.19809734505227     -0.65703547156178
  C   1.03033424099009     -1.24424492436739     -0.95095215986683
  H   2.03886806876661     -1.14435693488047     -1.35570842232710
  H   0.39217317795018     -1.68189204506210     -1.71927030123946
  H   1.07578316471864     -1.90627379229657     -0.08680395214157
  N   1.34465223066060      0.72628553341635      0.51012995776145
  O   1.71886461648080      1.88390312481479      0.33623451422344
  O   1.59400679804546      0.02533757595946      1.48996933624950
