17
Coordinates from ORCA-job run
  C   -0.74755551259720      0.61019403889280     -0.06440591487976
  C   0.63463541783357      0.17154129625342     -0.54399197603892
  F   -0.83672790276455      1.95776889030049     -0.13317546621931
  H   0.76037438554144      0.66201501790184     -1.51041545383675
  N   -1.76816120794458      0.03815359737532     -0.85556141767406
  H   -1.91906691057036     -0.92774550049461     -0.59325637218460
  H   -2.62762681299595      0.55950430948960     -0.72320369453632
  N   -0.91345159621738      0.25912159178761      1.44087889859269
  O   -0.73198726797495      1.14269051038716      2.26377766665491
  O   -1.21544595630195     -0.91126060420992      1.66194144723463
  C   0.84845711504256     -1.32466950660804     -0.63271201709484
  H   1.86644333516562     -1.52436097792599     -0.97118624678851
  H   0.16162188683719     -1.74819045860120     -1.36658872290145
  H   0.70142104340774     -1.80434115531446      0.33249650448693
  N   1.67326293207789      0.79444951110043      0.34587128401414
  O   2.19989414805866      1.82940061099346     -0.05329055286372
  O   1.91291290340225      0.21772882867210      1.40482203403492
