17
Coordinates from ORCA-job run
  C   -0.83784694824709      0.16176221378142     -0.00808564396223
  C   0.61572512257991      0.11362893330746     -0.46854367063362
  F   -1.61608197569640     -0.19526790801243     -1.11025930037347
  H   0.77415752096814      0.95414865922931     -1.14503887180453
  N   -1.06985837917391     -0.58119843020323      1.14039781528894
  H   -1.98229754677178     -0.41348443458570      1.54038344472718
  H   -0.88153712193030     -1.56494521805553      1.01324419440588
  N   -1.28860902721819      1.60863820578830      0.24033787423650
  O   -0.95512528576823      2.42168769514139     -0.60898910602212
  O   -2.01146237345803      1.81300562479089      1.20764076727782
  C   0.99711244193089     -1.20189419058849     -1.11240880870441
  H   0.86442049632684     -2.04401941403858     -0.43337249099078
  H   2.04768435242896     -1.17820405748864     -1.40119727612684
  H   0.38997633023742     -1.35384888383288     -2.00420155836502
  N   1.45376454084570      0.40804307696431      0.74577863580393
  O   1.33129744777529      1.53571991509749      1.21467480818554
  O   2.16968040517078     -0.48377178729510      1.18863918705722
