17
Coordinates from ORCA-job run
  C   -0.68843613596882      0.38912000410629      0.30138124696197
  C   0.55347099651999     -0.18856748835710     -0.37377786302415
  F   -0.41004520453932      0.86647300818010      1.53278183557980
  H   0.24083853775467     -0.70125732770624     -1.28325798133667
  N   -1.30944712989020      1.38992267749002     -0.45437750834038
  H   -2.14053757393438      1.74946307159847     -0.00315549713742
  H   -1.49884301585700      1.10338984214519     -1.40431212924542
  N   -1.61448600408345     -0.84543121318587      0.54037084106690
  O   -2.03780616821731     -1.35930295163997     -0.49213115753350
  O   -1.85218786493449     -1.19461565485102      1.68764580764530
  C   1.35965105606326     -1.08149962856696      0.54447953655975
  H   1.64735338158598     -0.54237445106442      1.44454631096566
  H   0.77572346456422     -1.96036196385632      0.82377547779758
  H   2.26064853745353     -1.42137561354571      0.03182771092767
  N   1.37498625261564      0.97538905004411     -0.84652992699945
  O   2.08891487376509      1.53354152248832     -0.02039842746710
  O   1.24920199710259      1.28648711672111     -2.02886827642051
