17
Coordinates from ORCA-job run
  C   -0.76344619470142      0.53834153722781      0.00491699680042
  C   0.62224711704403      0.11272090165986     -0.49308400444395
  F   -0.80270077757354      1.89771102260124      0.21951349662585
  H   0.65782215367939      0.39547158514343     -1.54801958255142
  N   -1.74445701541482      0.06870615500486     -0.87804726347429
  H   -1.74411420060966      0.61317871003119     -1.73067482331079
  H   -2.66309724779302      0.05424387267923     -0.45513319369438
  N   -1.02187013634078     -0.05413304461973      1.39130094252133
  O   -0.22654078970301      0.29816592460407      2.25273411673398
  O   -1.98248081529516     -0.80195614276409      1.53621670382654
  C   0.87279024086838     -1.36804118259893     -0.30665751450623
  H   0.94853071860694     -1.61817269058799      0.75062593167199
  H   1.81093262262829     -1.65076039382895     -0.78510629668576
  H   0.05632395417655     -1.92983334822037     -0.76056953325956
  N   1.71946006552538      0.94153983746551      0.12682217495398
  O   1.87708137457762      2.05986243801717     -0.35596948648339
  O   2.38251893032483      0.44395481818569      1.03113133527568
