17
Coordinates from ORCA-job run
  C   -0.89015174515219     -0.05905028186909      0.12566814292100
  C   0.41922452744255     -0.15895696590652     -0.64605149347402
  F   -1.79988262783477     -0.85031691261605     -0.53055788606313
  H   0.19237946832413      0.01707646273328     -1.69610490862585
  N   -0.83757521149943     -0.44187817719306      1.46231605759961
  H   -1.74339779819516     -0.32165590220151      1.89937039515648
  H   -0.14073237864291      0.10311680675820      1.95324172076842
  N   -1.49115176180759      1.36706632565089     -0.09049579568487
  O   -1.18794540874237      1.95287869578207     -1.12440868215014
  O   -2.26947003430766      1.75854311610003      0.77089873722515
  C   1.10974985067620     -1.49512961663356     -0.43909923104819
  H   0.41483451444512     -2.29767641223553     -0.68728806305776
  H   1.41900089925717     -1.61717266830606      0.59879557983028
  H   1.97921070870336     -1.56135512630287     -1.09449416246703
  N   1.36120333462750      0.94020045456657     -0.26548574453551
  O   1.28163271785777      1.39821452812944      0.87591599576672
  O   2.18407094484828      1.26809567354378     -1.11022066216117
