17
Coordinates from ORCA-job run
  C   -0.81058896350886      0.24306207725220     -0.11175809639120
  C   0.68334719934005      0.07635033407776     -0.37238239967565
  F   -1.45465387228886      0.01982791720344     -1.32931942853463
  H   1.01127607734228      0.93103025297095     -0.96499230913273
  N   -1.26775368542416     -0.53064755831652      0.94549561354914
  H   -1.15305112078239     -1.52037599319522      0.78190911294271
  H   -2.20870766482515     -0.29477338513334      1.22775666590897
  N   -1.16013837905970      1.71263699239300      0.16483207096593
  O   -1.99009355606395      1.93745155665352      1.03694526363118
  O   -0.63876681629419      2.53118050158064     -0.57791365525529
  C   1.03198771496951     -1.23551011990305     -1.04157405150631
  H   0.54485492838587     -1.28226965976052     -2.01496919112632
  H   0.73076633660564     -2.09400987676187     -0.44146633250326
  H   2.11054280784253     -1.29967961063682     -1.18410396885914
  N   1.36379695033583      0.22486921377688      0.96131680973740
  O   1.27867774967051      1.33406078702074      1.47976764438478
  O   1.92650429375502     -0.75420342922177      1.43945625186443
