17
Coordinates from ORCA-job run
  C   -0.70340734158850      0.40411190908488      0.39692519636621
  C   0.47939992434792     -0.11363629345012     -0.45287561989057
  F   -0.18386326921685      0.95496367625134      1.51941795446487
  H   0.08696142168020     -0.40835021571009     -1.42744808784039
  N   -1.64773753877488      1.28671537334168     -0.16933824363741
  H   -1.17749264664235      2.07025824542286     -0.60605923191502
  H   -2.20632317468941      0.80277505429986     -0.86053559989549
  N   -1.47709823014087     -0.84924725948617      0.80022832504197
  O   -1.41509285455912     -1.21540546883619      1.96196500211402
  O   -2.06943548034044     -1.40055566776912     -0.12446113226904
  C   1.27043671315331     -1.21969394536144      0.21039126637457
  H   2.17195328301481     -1.43113799983492     -0.36451045347914
  H   1.56157363516844     -0.94136298806691      1.22181042663144
  H   0.66906951993535     -2.12966538783553      0.24408847033213
  N   1.34413076762705      1.08979432356335     -0.71759900761124
  O   0.88113597196415      1.92403471579733     -1.49804802413229
  O   2.41778929906122      1.17740192858920     -0.13395124065462
