17
Coordinates from ORCA-job run
  C   -0.71150818413921      0.42961913566888      0.35188892160145
  C   0.49111082713797     -0.14464665828135     -0.43029598683093
  F   -0.22133592670313      1.04086815101258      1.45601219755452
  H   0.12563035473273     -0.49510737926522     -1.39690606200308
  N   -1.63099020452350      1.28554469972330     -0.29154964875768
  H   -2.16606093221960      0.77018620028112     -0.97865196848444
  H   -1.14171893918866      2.04542432425469     -0.74874322759356
  N   -1.50904139304915     -0.79233802411219      0.80189105811827
  O   -2.07585369159225     -1.39195691260972     -0.10841867285888
  O   -1.49055088315234     -1.08836020650490      1.98482444986087
  C   1.25469027681320     -1.21360688466051      0.32030157181492
  H   1.52114372875814     -0.87602164352224      1.32043385634132
  H   0.64512771273636     -2.11578139018112      0.39333049726495
  H   2.16932021155954     -1.46561479751383     -0.21626588142240
  N   1.37241505609268      1.03550261426345     -0.74150444011892
  O   2.42930983551212      1.15217012316907     -0.13289114157383
  O   0.93831215122509      1.82411864827798     -1.58345552291259
