17
Coordinates from ORCA-job run
  C   -0.78408259580352      0.63222570547114      0.08119164870328
  C   0.56898236573405      0.20338454687976     -0.50547207837899
  F   -0.76661658007765      1.98666358267205      0.14749818621212
  H   0.62185976300542      0.68625919836650     -1.48476950257204
  N   -1.93401983141574      0.21000184210662     -0.62465380143929
  H   -2.14181969957223     -0.76298589149278     -0.45012039413531
  H   -1.86066515504471      0.40230074478436     -1.61460387297102
  N   -0.95311991748242      0.11179359731440      1.50939556253842
  O   -0.81134324663640      0.90539200424043      2.42315402882886
  O   -1.22350245164216     -1.08322503877376      1.59568735710366
  C   0.81121230981586     -1.28871792053739     -0.60361816322055
  H   1.76899528298463     -1.46492066338138     -1.09708829193901
  H   0.82954959030798     -1.74931104293841      0.38145780119864
  H   0.02997639716553     -1.75908333625402     -1.20198415009253
  N   1.67536819878160      0.83833243883520      0.28515259891274
  O   2.30583446419360      1.74312167101998     -0.25363206498358
  O   1.86439110568614      0.38876856168731      1.41340513623462
