17
Coordinates from ORCA-job run
  C   -0.75751984875592      0.54533096484026     -0.03281343455924
  C   0.63063308765297      0.08090871515365     -0.48776374798012
  F   -0.78457841558631      1.91413461067144      0.11483376914335
  H   0.68339536255269      0.30717800751546     -1.55554039872205
  N   -1.73004466272376      0.04329758844874     -0.90677764259243
  H   -2.65590757384081      0.06340816586457     -0.50022704796244
  H   -1.70710977177528      0.53999925586396     -1.78771630332481
  N   -1.04459703625593      0.02537708363424      1.37676040069885
  O   -0.25300012007691      0.40312942673436      2.23076113427677
  O   -2.02314699219143     -0.69367851245030      1.54504567822412
  C   0.86315146593566     -1.39078107565102     -0.22194604677865
  H   0.92412405362137     -1.58668321269359      0.84761504535216
  H   1.80373464547405     -1.70706097033211     -0.67394483515642
  H   0.04640691849776     -1.96726529690344     -0.65657682571386
  N   1.72806839994958      0.92995325044201      0.10308855455454
  O   1.90272886870431      2.02064625819729     -0.43394098785874
  O   2.37466161881795      0.47310574066448      1.04014268839898
