17
Coordinates from ORCA-job run
  C   -0.74938570651468      0.60898271699110     -0.05192614147132
  C   0.63663997885112      0.18766799684155     -0.53669384734881
  F   -0.84309791331405      1.95752870299431     -0.08657733669234
  H   0.76408346097090      0.70374789253347     -1.48947372846600
  N   -1.76418145698520      0.05378629710450     -0.86257368929524
  H   -1.91215077025830     -0.91915630013493     -0.62569086521621
  H   -2.62646101794085      0.56779143077284     -0.71983370215747
  N   -0.92067696557161      0.21884418787526      1.44260680514306
  O   -0.74633295313860      1.08145889133096      2.28887666541564
  O   -1.21951048488582     -0.95784466754802      1.63209431770918
  C   0.85600774970675     -1.30491664500878     -0.66318548245231
  H   0.70529077243888     -1.81015783485153      0.28834998553962
  H   1.87656599491261     -1.49271373710981     -1.00073509617476
  H   0.17468308040218     -1.71156127349165     -1.41158602371874
  N   1.66900198652911      0.79087250007429      0.37344060349260
  O   1.90563675218130      0.18826819740289      1.41853299041685
  O   2.19388749261625      1.83740164422356      0.00337454527625
