17
Coordinates from ORCA-job run
  C   -0.75325606904616      0.31603975664296      0.21759336424615
  C   0.54630432421860     -0.15919004618903     -0.43836591848640
  F   -0.43005428101486      0.94304712111361      1.39882831644380
  H   0.30834267774666     -0.54202695664851     -1.43029343220458
  N   -1.58853192452569      1.06145955256460     -0.61540479682951
  H   -1.07285554593030      1.72016310774037     -1.18331921045840
  H   -2.32655867266604      1.51632085114888     -0.09290364611646
  N   -1.54777296276135     -0.93622957267330      0.62745220145776
  O   -1.64606775247689     -1.79638180980049     -0.23839945309165
  O   -2.04179544203237     -0.95284359155839      1.74625201066820
  C   1.31544435205998     -1.15285303590549      0.40488863497677
  H   0.77677653683168     -2.09962064863186      0.43312660641184
  H   1.45743137730032     -0.77812910773519      1.41719313240267
  H   2.29579052217036     -1.33198443224036     -0.03583422537412
  N   1.37213858710656      1.08410391431106     -0.67347804358593
  O   2.33792299560701      1.28978044721065      0.05081703571047
  O   0.99674127741251      1.81934445065050     -1.58915257617061
