17
Coordinates from ORCA-job run
  C   -0.73511293675507      0.62070565541301     -0.09951226841856
  C   0.64947583645230      0.14444694419669     -0.53463608318306
  F   -0.79974818744734      1.96668304886174     -0.21180177308011
  H   0.80488300517123      0.60348843625336     -1.51212224345143
  N   -1.74752388244123      0.04095108454375     -0.89536010077272
  H   -2.60208750859256      0.57746140454358     -0.79592212942857
  H   -1.91779425354099     -0.91506541983550     -0.60981156236950
  N   -0.93957365644831      0.31989059479715      1.41178349934787
  O   -0.76025980104899      1.22552764045303      2.21075298807592
  O   -1.26691001263308     -0.83762795892579      1.66226010212100
  C   0.83866675309379     -1.35721520019182     -0.57428722740164
  H   1.86148520825958     -1.58449423885707     -0.87907048088377
  H   0.16415539676238     -1.79007736261415     -1.31413803933988
  H   0.65740055495750     -1.80595112433864      0.39996170803344
  N   1.67893737753714      0.77579864046752      0.35949875099622
  O   2.23193922052047      1.78965969907878     -0.05760596524494
  O   1.88506688615318      0.22681815615438      1.44001082499973
