17
Coordinates from ORCA-job run
  C   -0.73962655893637      0.56154111596684      0.04310341444337
  C   0.59457489444665      0.08027008805694     -0.52224303825194
  F   -0.68756483059447      1.93602773527297      0.07245550960279
  H   0.63584986986033      0.46208102317459     -1.54586280725764
  N   -1.81109295395432      0.05219246127584     -0.71023922517769
  H   -2.70492491313917      0.33585172719795     -0.32712375372754
  H   -1.74607831720688      0.35231133180657     -1.67470040716104
  N   -0.97630823969568      0.12773603138176      1.49565488890565
  O   -1.12202158679732      1.00853571616135      2.32921340914922
  O   -1.03668850449618     -1.08112269538778      1.67821847731581
  C   0.86382532025068     -1.41099422079438     -0.48424215357808
  H   0.98363433683179     -1.75671198205920      0.53984581009607
  H   0.03006207785553     -1.94693861092244     -0.93609253971194
  H   1.77593962565155     -1.61952585279682     -1.04749124000873
  N   1.70147385577255      0.80020348230789      0.18694368626910
  O   1.74073189270893      0.66951880834515      1.40742980648711
  O   2.49721403144238      1.42802384101277     -0.50486983739452
