17
Coordinates from ORCA-job run
  C   -0.78049277899599      0.63986635219526      0.05365376493581
  C   0.57384464986582      0.18247363598829     -0.50795143690432
  F   -0.75370977309203      1.99558372090861      0.07554648538646
  H   0.63673123705073      0.63010829739082     -1.50324506299752
  N   -1.92709583023327      0.20193559272883     -0.64800515177318
  H   -1.84088043979316      0.35367523975921     -1.64393129359609
  H   -2.14686718799945     -0.76131487459286     -0.43774142050951
  N   -0.96510797537276      0.16835316483016      1.49672606855437
  O   -1.24443804077193     -1.02134265290617      1.62070055634391
  O   -0.82531540880685      0.99103085005996      2.38474401517371
  C   0.80730993551095     -1.31364741217746     -0.55118459614727
  H   0.81827523280654     -1.73802828012070      0.45017704190413
  H   0.02574396828808     -1.80109454701273     -1.13521000980805
  H   1.76624119250231     -1.51351826420820     -1.03321517637487
  N   1.67930553132042      0.83787941620283      0.26726387889846
  O   2.32267216216437      1.71516900646521     -0.30098274100792
  O   1.85478352555621      0.43087075448895      1.41365507792187
