17
Coordinates from ORCA-job run
  C   -0.71588017164934      0.35574218729575      0.26588980939917
  C   0.50964575153918     -0.19073784827111     -0.47156967693678
  F   -0.28260397442436      0.94258561131657      1.43337246344037
  H   0.18945662596795     -0.54974390751416     -1.44902532144254
  N   -1.54971360740852      1.16599710596959     -0.50560613480331
  H   -1.02993642082873      1.80126652383227     -1.09583993137117
  H   -2.22764493893069      1.65404345935099      0.06602526184154
  N   -1.57066394595553     -0.84355838886946      0.70920006189107
  O   -2.04364514182669     -0.81158947440412      1.83677777167629
  O   -1.74344551786075     -1.70711685164977     -0.14159804361821
  C   1.26896369004534     -1.23553488963460      0.31719979884576
  H   0.67765288120829     -2.14876071617834      0.37457775655805
  H   2.20748317668970     -1.46820264992451     -0.18538463881540
  H   1.49662171373713     -0.87830824404577      1.32005570894489
  N   1.39284146641992      1.00365727806825     -0.74996799109668
  O   2.40959347574620      1.14691115037686     -0.08276232914460
  O   1.00927493753090      1.76534965428156     -1.64034456536845
