17
Coordinates from ORCA-job run
  C   -0.77932445386956      0.63530223933354      0.09806900152570
  C   0.56341690367001      0.20519896734052     -0.51064373740560
  F   -0.75211334387512      1.98890162432976      0.17921160639843
  H   0.60508840695604      0.69678433136120     -1.48614279158522
  N   -1.94021013063229      0.22846559700422     -0.59936313398438
  H   -1.87534215004473      0.42927064086434     -1.58827780254599
  H   -2.15190300366856     -0.74517143352962     -0.43286239985545
  N   -0.93702996020865      0.10028878198947      1.52212401805284
  O   -0.78960788181273      0.88429764376297      2.44311995784494
  O   -1.20805752652965     -1.09537375372177      1.59769190396186
  C   0.79844376420201     -1.28696418467142     -0.62461105098741
  H   0.00767831359622     -1.74997863494913     -1.21613322585062
  H   1.74902887344816     -1.46285183020374     -1.13191565393448
  H   0.82769113549845     -1.75503360877045      0.35669927142111
  N   1.68382466891854      0.82758029400946      0.27013884927798
  O   1.87510657002103      0.37775310062924      1.39788721085640
  O   2.32330981433082      1.72153022522142     -0.27599202319013
