17
Coordinates from ORCA-job run
  C   -0.86135388846474      0.16871301253882     -0.20278588160147
  C   0.63132492870379      0.02222704636003     -0.46854461425545
  F   -1.49307550242694      0.06949809258332     -1.41764780185371
  H   0.88567276665078      0.70398012960595     -1.27819115537503
  N   -1.41595445814167     -0.75841182350864      0.67361817928511
  H   -2.40185685452620     -0.57016351099507      0.80929033403748
  H   -0.93162873371555     -0.73242813426293      1.56145347071356
  N   -1.15698268779559      1.65168556998384      0.19150385402052
  O   -0.38056350698669      2.50776484339326     -0.21878267669549
  O   -2.18200212761848      1.84170177742588      0.83523899182050
  C   1.01971479227938     -1.40807843345993     -0.79803026197089
  H   0.85037941489512     -2.06414025691786      0.05558676382106
  H   0.40895968301271     -1.76061418215222     -1.62941166055308
  H   2.07070306264390     -1.44248668914039     -1.08818534274539
  N   1.44129233275060      0.49044584174774      0.69931794506114
  O   2.57143832621947      0.89035525717440      0.45194092862401
  O   0.94393245252012      0.39195145962380      1.82262892766713
