17
Coordinates from ORCA-job run
  C   -0.72984951147953      0.62830284531453     -0.08593700442107
  C   0.64567504925007      0.14280639057287     -0.53981687456703
  F   -0.78241560091218      1.97586115173475     -0.18475081592520
  H   0.79493918049696      0.60947453182099     -1.51466467669274
  N   -1.75632250154583      0.06590380478372     -0.87684089037340
  H   -2.60187659415853      0.61487965089814     -0.76844016891987
  H   -1.93832888644124     -0.88821652017383     -0.59184200386301
  N   -0.92107879108838      0.31425862218574      1.42393288692942
  O   -1.25963866939593     -0.84183926143779      1.66645792242111
  O   -0.72160728862631      1.20926459010587      2.23014878250865
  C   0.81846345857984     -1.36026017538572     -0.59581224800797
  H   1.83496760034783     -1.59506139370762     -0.91568897555284
  H   0.12975832957837     -1.77832746987291     -1.33104347418955
  H   0.64496782214043     -1.81645681743042      0.37637542402908
  N   1.68997781273674      0.75552405606712      0.34967696444531
  O   2.24638997776324      1.76990827700125     -0.06175715511049
  O   1.90497861275447      0.19197771752331      1.42100230728962
