17
Coordinates from ORCA-job run
  C   -0.89153451362144      0.31348642090958     -0.18683278289103
  C   0.60479119622391      0.05338624945051     -0.45340821328042
  F   -1.47883244927947      0.27964345036658     -1.41322541227126
  H   0.95574545629682      0.82909728447474     -1.13564898864010
  N   -1.62055844052517     -0.50187315693393      0.69514920256783
  H   -1.56052239887974     -1.47466111399757      0.42733755829320
  H   -1.32164734185827     -0.37632402755652      1.65215270380084
  N   -0.98971965429007      1.75363080324745      0.32752845688658
  O   -0.97866076993305      2.63451831959481     -0.51919667691046
  O   -1.01351946780292      1.89210588018567      1.54598621410558
  C   0.86386787146338     -1.33895500498760     -0.98866866774004
  H   0.58253367819444     -2.09609726442171     -0.25744076138622
  H   0.29945282234045     -1.48646457633078     -1.90990839633869
  H   1.92534307833898     -1.46043405778814     -1.21105647705069
  N   1.35796422454539      0.27094454348583      0.82286808038428
  O   2.01621732458164      1.30486121594035      0.91333363600504
  O   1.24907938420512     -0.59486496563928      1.69003052446557
