17

C	0.0	0.0	0.0
C	-0.230064	-0.031214	-1.539691
Cl	1.783696	0.0	0.0
H	0.263766	-0.948007	-1.883273
H	0.370239	0.798575	-1.918895
N	-0.649233	1.174115	0.602984
O	-0.661219	1.207695	1.863184
O	-0.647178	2.221402	-0.103965
C	-0.292995	-1.267819	0.809774
H	-1.362542	-1.377963	0.96634
H	0.098881	-2.130516	0.263014
H	0.215069	-1.194805	1.77199
C	-1.595707	0.077917	-2.207921
H	-1.413907	0.138641	-3.294409
H	-2.103898	0.984103	-1.886582
H	-2.242338	-0.775724	-2.012477
H	-2.13755	0.0	0.0
