17

C	0.0	0.0	0.0
C	-0.575956	0.039947	-1.394389
Cl	1.785487	0.0	0.0
H	-1.652756	0.237009	-1.216814
H	-0.130642	0.872404	-1.941439
N	-0.327387	1.34164	0.691509
O	-0.405301	2.335661	-0.021054
O	-0.409613	1.341755	1.914275
C	-0.548224	-1.118275	0.841027
H	-0.176787	-1.055772	1.862331
H	-0.256903	-2.075884	0.406423
H	-1.646508	-0.996684	0.805573
C	-0.422655	-1.273604	-2.150497
H	-0.698608	-1.123231	-3.197903
H	0.602519	-1.656664	-2.12504
H	-1.097184	-2.02909	-1.743102
H	-3.301549	0.0	0.0
