16

C	-0.620009	-0.015078	-1.390987
C	0.0	0.0	0.0
F	-1.92878	0.329377	-1.351407
H	1.0891	0.0	0.0
N	0.091583	1.021174	-2.306616
O	1.234988	0.726998	-2.60703
O	-0.570203	1.985979	-2.648876
C	-0.447132	-1.306008	-2.060164
N	-0.299546	-2.334989	-2.607928
N	-0.475282	-1.163537	0.808113
O	-1.479143	-1.763372	0.421072
O	0.171834	-1.401608	1.819347
N	-0.446149	1.249396	0.70193
O	-0.099934	2.284065	0.144633
O	-1.090541	1.149113	1.737949
Br	3.272037	0.0	0.0
