16

C	-0.492449	-0.182539	-1.429228
C	0.0	0.0	0.0
F	-1.833063	-0.225155	-1.548558
H	1.115258	0.0	0.0
N	-0.005851	0.969146	-2.353427
O	-0.82878	1.367854	-3.162006
O	1.153438	1.310762	-2.214406
C	0.131987	-1.40355	-1.953469
N	0.729557	-2.349616	-2.316899
N	-0.471337	-1.153211	0.843277
O	-1.683563	-1.365772	0.851789
O	0.381247	-1.765023	1.477059
N	-0.520123	1.245701	0.624181
O	-0.716512	1.227833	1.83591
O	-0.677115	2.206762	-0.125224
Br	3.359153	0.0	0.0
