16

C	-0.539147	0.006369	-1.413412
C	0.0	0.0	0.0
F	-1.846269	0.295845	-1.527298
H	1.0866	0.0	0.0
N	0.22681	1.116528	-2.208886
O	1.441125	0.995948	-2.206444
O	-0.442637	1.99837	-2.720631
C	-0.207586	-1.253856	-2.087975
N	0.129903	-2.266347	-2.583593
N	-0.496844	-1.156856	0.790922
O	0.24546	-1.508018	1.710243
O	-1.554592	-1.698217	0.457941
N	-0.469866	1.23322	0.700852
O	-1.638118	1.239767	1.100281
O	0.355621	2.132239	0.843908
Br	2.735619	0.0	0.0
