16

C	-0.459199	-0.202737	-1.44738
C	0.0	0.0	0.0
F	-0.55881	-1.534146	-1.715062
H	1.1165	0.0	0.0
N	-1.892239	0.327513	-1.679284
O	-2.112504	0.972452	-2.691913
O	-2.698828	-0.027783	-0.830826
C	0.427686	0.422607	-2.428862
N	1.116667	0.841807	-3.28373
N	-0.493565	-1.090876	0.896397
O	-1.462415	-0.880444	1.615171
O	0.133835	-2.140906	0.801202
N	-0.367315	1.345512	0.489187
O	-0.295453	1.551324	1.691662
O	-0.603028	2.182518	-0.385678
Br	3.20719	0.0	0.0
