16

C	-0.449691	-0.005726	-1.485849
C	0.0	0.0	0.0
F	-1.808272	-0.165969	-1.604254
H	1.115918	0.0	0.0
N	-0.068625	1.258176	-2.196586
O	-0.617099	1.308742	-3.379961
O	1.243785	1.412405	-2.213666
C	0.167054	-1.245159	-2.201949
N	-0.293095	-2.351111	-1.975984
N	-0.446382	-1.203407	0.736565
O	-1.755572	-1.21206	0.886438
O	0.203943	-1.304397	1.87187
N	-0.469143	1.227225	0.706376
O	-1.723508	1.507804	0.439219
O	0.352227	2.232484	0.484229
Br	2.625347	0.0	0.0
