16

C	-0.496956	0.008857	-1.489634
C	0.0	0.0	0.0
F	-0.183703	1.220179	-2.072053
H	1.115123	0.0	0.0
N	0.223792	-1.001814	-2.328378
O	-0.253977	-1.03111	-3.542448
O	1.527957	-0.800946	-2.298693
C	-2.01171	-0.307546	-1.584317
N	-2.406187	-1.444103	-1.358371
N	-0.372343	-1.208389	0.733218
O	0.17967	-2.282599	0.185165
O	-0.103514	-1.086322	2.021473
N	-0.456814	1.235472	0.685328
O	-1.751355	1.371565	0.679849
O	0.201666	2.291874	0.251276
Br	2.613961	0.0	0.0
