16

C	-0.415102	0.050127	-1.471636
C	0.0	0.0	0.0
F	-0.260787	-1.204778	-1.966112
H	1.116469	0.0	0.0
N	-1.870688	0.436976	-1.80893
O	-2.337118	1.39634	-1.202806
O	-2.407131	-0.157005	-2.747739
C	0.485753	0.927619	-2.251006
N	1.61462	1.023199	-2.66475
N	-0.550359	-1.282412	0.497278
O	0.202558	-2.246645	0.435205
O	-1.752887	-1.333835	0.771116
N	-0.188182	1.19235	0.804343
O	-0.28994	1.035088	2.018761
O	0.053667	2.24933	0.235571
Br	2.951384	0.0	0.0
