14
Coordinates from ORCA-job run
  C   -0.26907148279848      0.04237451314638     -0.37349321559899
  C   1.14858974665927      0.46313799954600      0.00255780425296
  F   -0.27380616578469     -0.38118321477990     -1.66452388381964
  H   1.14585755850256      0.91655157873357      0.99507624583933
  H   1.49255705786231      1.21196269240902     -0.71746318958795
  C   -0.90045129418850     -0.99838568147474      0.51386324651543
  H   -1.91192700744993     -1.20297249883383      0.15875302359215
  H   -0.31592597962071     -1.91761756693586      0.45846002668675
  H   -0.94138825167961     -0.65016369955600      1.54522004346502
  N   -1.12229165952407      1.30732928942172     -0.31231220650731
  O   -1.72179639913013      1.64524008498950     -1.32190153740403
  O   -1.13665490347406      1.86974080196101      0.77904719273874
  C   2.04856212588384     -0.68541909891394     -0.02473811002980
  N   2.75674665474220     -1.62059519971293     -0.03654544014262
