14
Coordinates from ORCA-job run
  C   -0.37829603962392     -0.09148270280439     -0.43768569101812
  C   1.12872612256262     -0.18491048607389     -0.61830069925184
  F   -0.95287068322924     -0.42198795144978     -1.64171863826098
  H   1.36724451068598     -1.21995657530788     -0.87699061204654
  H   1.42934601553569      0.45815599986182     -1.44582694402032
  C   -0.94664535883079     -0.94722545560185      0.65662000178628
  H   -2.03129747779977     -0.86331089534390      0.66196503725895
  H   -0.56160413874862     -0.63857758150873      1.62901741678501
  H   -0.66434896979276     -1.98503761369671      0.46992700490319
  N   -0.76450108586974      1.37715361142687     -0.22593107633052
  O   -0.04237028700922      2.21924811121888     -0.75131059902890
  O   -1.80100331230221      1.59572223156972      0.39160779959366
  C   1.83630473308466      0.20000883066188      0.59751176234747
  N   2.38331597133733      0.50320047704796      1.59011523728266
