14
Coordinates from ORCA-job run
  C   -0.37730325401207     -0.07781147886410     -0.44069702693699
  C   1.12962005151575     -0.16887169079619     -0.62170584379004
  F   -0.95070540605951     -0.37929231886214     -1.65302037033714
  H   1.36467425383807     -1.19590583840209     -0.91368158921150
  H   1.43411095321683      0.49956502342962     -1.42729525787404
  C   -0.94830210299355     -0.95811378819190      0.63269442166555
  H   -0.56837768004461     -0.66901058096643      1.61301833907372
  H   -2.03312560379736     -0.87676293747150      0.63460990802897
  H   -0.66258240431463     -1.99109955568730      0.42607070804964
  N   -0.76437079008385      1.38525010361726     -0.19484431002862
  O   -1.81371410568687      1.58720229054126      0.40657324631061
  O   -0.03071160780697      2.24147271487486     -0.68030674635479
  C   1.83692085495272      0.17138810604890      0.60744693353353
  N   2.38386684127606      0.43198995072974      1.61213758787111
