14
Coordinates from ORCA-job run
  C   -0.27642602575543      0.12256870199340     -0.35055676256888
  C   1.17518560427716      0.38847495428920      0.03681466941752
  F   -0.34544040841961     -0.06710254226553     -1.69420051413894
  H   1.22844078819249      0.66401614124108      1.09132488508546
  H   1.54614344432321      1.22844173691849     -0.55842148385869
  C   -0.94738674116952     -1.01931495749592      0.36729926684240
  H   -0.42848539033325     -1.94762441860294      0.12475790363341
  H   -0.93000375449471     -0.85877958211439      1.44463300561641
  H   -1.98186454908319     -1.09536854507802      0.02771781300143
  N   -1.04506432037887      1.40447684255139     -0.03761725434984
  O   -0.99246958436785      1.76648495078665      1.13442336187032
  O   -1.64909929078833      1.94900165680140     -0.94946296050580
  C   1.99933038318238     -0.78834438069537     -0.21936940043021
  N   2.64713984481552     -1.74593055832944     -0.41834252961460
