14
Coordinates from ORCA-job run
  C   -0.35249373956475     -0.06831899965621     -0.48843765921462
  C   1.17380139736284     -0.05544246601169     -0.55351293733181
  F   -0.80003751008869     -0.46080631462007     -1.71550346845267
  H   1.50604926986101      0.76381483780401     -1.19661412072369
  H   1.46780715872705     -0.99199928998710     -1.03662325858738
  C   -0.95524809098437     -0.93648362622926      0.58459912842258
  H   -0.66316823571934     -0.58556462971893      1.57417294840786
  H   -0.61331847938459     -1.96437572796999      0.45035778645992
  H   -2.04216342824345     -0.91030546675145      0.48945495705731
  N   -0.85485456672214      1.35438748546387     -0.27726381008713
  O   -0.27739289123400      1.98653695154002      0.60171107336672
  O   -1.79881971842296      1.72906276133960     -0.95762390278597
  C   1.82890729923469      0.03493469661519      0.74628522452086
  N   2.38093153517871      0.10455978818200      1.77899803894801
