14
Coordinates from ORCA-job run
  C   -0.30580452056691      0.02825834344633     -0.32211637258851
  C   1.18167763358708      0.32445879677233     -0.18690663859929
  F   -0.52372798868445     -0.57572595705697     -1.53494546650293
  H   1.35850006369020      0.94568104281858      0.69509391924584
  H   1.51071466617307      0.88864994377985     -1.06024138846259
  C   -0.89929251724957     -0.80510336072826      0.77656390080350
  H   -0.38294372643148     -1.76532055982052      0.80653371907509
  H   -1.95686556352873     -0.96853820763261      0.58152059737849
  H   -0.78925323191639     -0.30639921164325      1.74110320781770
  N   -1.04336363782160      1.36984991293994     -0.43090090495457
  O   -0.41652274164917      2.31373139104239     -0.90536956944835
  O   -2.22323727541532      1.38327718797492     -0.09764600841212
  C   1.94288755201043     -0.91630929790691     -0.07846465024108
  N   2.54723128780284     -1.91751002398582      0.01477565488883
