14
Coordinates from ORCA-job run
  C   -0.38145902495031     -0.10147874801719     -0.44797097020952
  C   1.13422341505416     -0.16861456311898     -0.58926362851871
  F   -0.91058784263548     -0.43239513443804     -1.66715893738232
  H   1.40683952198171     -1.19430488945799     -0.85221361904650
  H   1.42983382572608      0.48743624013986     -1.41129256951829
  C   -0.97642771427128     -0.96803895691885      0.62337720826319
  H   -0.73710036962425     -2.00812096509390      0.39364672754510
  H   -2.05919376369826     -0.84648700532998      0.63539234051299
  H   -0.58222931941044     -0.71042513797195      1.60472435637649
  N   -0.74374148371336      1.36986275480366     -0.23634487736484
  O   -0.45874012011083      2.11929686301335     -1.16383187793323
  O   -1.26564930419230      1.68628780804282      0.82776194108960
  C   1.80896155364123      0.22657167416993      0.64217025624782
  N   2.33627062620333      0.54141006017726      1.64200364993823
