16

C	0.0	0.0	0.0
C	-0.38604	-0.527007	-1.442581
Br	1.960874	0.0	0.0
H	0.305432	-0.022616	-2.127015
C	-0.375544	1.412787	0.053996
N	-0.632922	2.56015	0.048157
C	-0.618857	-0.790101	1.133051
H	-0.306147	-1.834386	1.078932
H	-0.328787	-0.373534	2.099125
H	-1.709599	-0.7202	1.030733
N	-1.71668	-0.293119	-1.916249
H	-2.461197	-0.577171	-1.27418
H	-1.860265	0.697375	-2.072757
C	-0.061456	-1.963338	-1.503465
N	0.206388	-3.105629	-1.551704
Br	-4.360147	0.0	0.0
