16

C	0.0	0.0	0.0
C	-0.582927	0.314055	-1.38863
Br	1.966155	0.0	0.0
H	-1.674702	0.325901	-1.194806
C	-0.372318	1.061713	0.936992
N	-0.629015	1.920085	1.698747
C	-0.478205	-1.358917	0.491209
H	-1.571789	-1.327234	0.524624
H	-0.148864	-2.121904	-0.211606
H	-0.076672	-1.560435	1.485519
N	-0.28426	-0.745235	-2.337475
H	-1.053463	-0.832546	-2.988245
H	0.565709	-0.544793	-2.849509
C	-0.175226	1.645292	-1.860344
N	0.153598	2.689292	-2.290021
Br	-3.814459	0.0	0.0
