14

C	0.177049	-0.036654	0.050338
C	-0.942588	0.245842	-0.955828
Cl	1.76442	0.336434	-0.655301
H	-1.888219	-0.090208	-0.520344
H	-0.741013	-0.378014	-1.836168
C	0.031565	0.71487	1.290236
N	-0.052393	1.317483	2.294876
N	0.128498	-1.53457	0.375115
O	-0.474007	-1.845174	1.396773
O	0.603705	-2.298038	-0.452731
N	-1.022321	1.666564	-1.190432
H	-0.456439	1.910609	-1.99337
H	-1.999455	1.838259	-1.445097
Cl	-4.025044	1.002738	-2.096625
