14

C	0.161503	-0.020841	0.066829
C	-0.953981	-0.070511	-0.98129
Cl	1.753517	0.088179	-0.716253
H	-0.755348	-0.946401	-1.61243
H	-1.903181	-0.241831	-0.464899
C	0.023137	1.094432	0.99436
N	-0.055977	1.992656	1.747023
N	0.099728	-1.331715	0.85989
O	-0.486334	-1.285729	1.935982
O	0.549871	-2.329574	0.315908
N	-1.021985	1.199043	-1.661785
H	-1.996597	1.285207	-1.964657
H	-0.450233	1.168972	-2.496481
Cl	-4.026982	0.298649	-2.32225
