14

C	0.172421	-0.038924	0.073001
C	-0.915266	-0.065204	-1.005066
Cl	1.787286	0.009571	-0.666333
H	-0.729651	-0.956106	-1.618913
H	-1.883168	-0.19685	-0.512531
C	0.043941	1.09066	0.984357
N	-0.027376	1.997523	1.727303
N	0.043887	-1.337484	0.878935
O	-0.59485	-1.262165	1.922736
O	0.498244	-2.352988	0.372949
N	-0.920811	1.196475	-1.703566
H	-1.883922	1.313283	-2.031798
H	-0.330981	1.133389	-2.523766
Cl	-3.934969	0.388473	-2.438424
