14

C	-0.113331	0.028857	-0.04035
C	-0.889709	0.159314	-1.359715
Cl	1.420965	0.917138	-0.134031
H	-0.223371	-0.247234	-2.130613
H	-1.045609	1.227946	-1.529341
C	-0.842122	0.445256	1.148736
N	-1.361637	0.74602	2.158762
N	0.221832	-1.46785	0.115426
O	-0.48344	-2.113108	0.886804
O	1.091399	-1.918718	-0.615378
N	-2.184394	-0.468059	-1.351548
H	-2.865296	0.245718	-1.095702
H	-2.251025	-1.26675	-0.73547
Cl	-3.040839	2.638401	-0.897998
