15

C	0.0	0.0	0.0
C	-0.459495	0.014679	-1.496384
Br	1.92344	0.0	0.0
H	0.437204	-0.104248	-2.113922
C	-0.430038	1.161738	0.768157
N	-0.569572	2.132609	1.416562
N	-0.374071	-1.271001	0.761669
O	-0.305822	-2.313901	0.126197
O	-0.586275	-1.158915	1.957243
N	-1.030334	1.323725	-1.773252
H	-1.239033	1.369485	-2.764699
H	-1.908305	1.275998	-1.244005
C	-1.362859	-1.083717	-1.895067
N	-1.993046	-1.855065	-2.521807
F	-2.347386	0.0	0.0
