15

C	0.0	0.0	0.0
C	-0.449859	-0.176988	-1.491307
Br	1.924486	0.0	0.0
H	0.455715	-0.349496	-2.081948
C	-0.437509	1.251065	0.605711
N	-0.559079	2.290726	1.142743
N	-0.374853	-1.160465	0.917351
O	-0.609543	-0.898004	2.084912
O	-0.279779	-2.27737	0.42717
N	-1.037019	1.078248	-1.933732
H	-1.221971	1.007714	-2.928232
H	-1.923317	1.084002	-1.416114
C	-1.318839	-1.337208	-1.760414
N	-1.931081	-2.221391	-2.236464
F	-2.337055	0.0	0.0
