15

C	0.0	0.0	0.0
C	-0.454156	0.028346	-1.498698
Br	1.929578	0.0	0.0
H	0.447085	-0.086873	-2.110258
C	-0.427972	1.155306	0.778226
N	-0.572344	2.12103	1.434347
N	-0.372832	-1.276166	0.745651
O	-0.599984	-1.180228	1.94035
O	-0.288688	-2.312315	0.100554
N	-1.011297	1.345503	-1.771872
H	-1.895844	1.308531	-1.253419
H	-1.208665	1.401823	-2.765362
C	-1.35183	-1.065823	-1.912711
N	-1.951633	-1.845499	-2.558587
F	-2.333884	0.0	0.0
