15

C	0.0	0.0	0.0
C	-0.452468	0.129868	-1.495975
Br	1.929298	0.0	0.0
H	0.448243	0.059903	-2.11435
C	-0.437741	1.094727	0.855131
N	-0.559183	2.00633	1.588477
N	-0.369564	-1.327494	0.655297
O	-0.282347	-2.316383	-0.060138
O	-0.597296	-1.315006	1.853309
N	-1.017943	1.459432	-1.672478
H	-1.218855	1.584895	-2.658925
H	-1.899982	1.376778	-1.155383
C	-1.354029	-0.932851	-1.977756
N	-1.983406	-1.665392	-2.65071
F	-2.34122	0.0	0.0
