15

C	-0.533878	0.020733	-1.426298
C	0.0	0.0	0.0
F	-1.920757	-0.14012	-1.442215
H	1.100461	0.0	0.0
C	-0.24426	1.301742	-2.099638
N	-0.020967	2.315444	-2.648496
C	0.037016	-1.086914	-2.213504
N	0.43998	-1.991275	-2.844142
N	-0.443411	-1.226395	0.605751
H	0.262345	-1.537568	1.262311
H	-1.337271	-1.104748	1.065683
N	-0.50448	1.204386	0.69057
H	0.11486	1.969432	0.424533
H	-0.291688	1.045144	1.671508
H	2.794764	0.0	0.0
