15

C	-0.525696	-5.9e-05	-1.421272
C	0.0	0.0	0.0
F	-1.933969	-3.7e-05	-1.408925
H	1.094521	0.0	0.0
C	-0.105149	1.202453	-2.16243
N	0.234529	2.146036	-2.772312
C	-0.105365	-1.203075	-2.161805
N	0.234067	-2.146207	-2.772549
N	-0.400217	-1.250006	0.619839
H	-1.281143	-1.160292	1.115423
H	0.332661	-1.520457	1.270614
N	-0.398755	1.250277	0.62065
H	-1.279809	1.164911	1.106938
H	0.325631	1.515359	1.275294
H	2.740647	0.0	0.0
