15

C	-0.577581	-0.006506	-1.399578
C	0.0	0.0	0.0
F	-1.984325	-0.007441	-1.326967
H	1.094539	0.0	0.0
C	-0.193246	1.193361	-2.163565
N	0.112193	2.130656	-2.800728
C	-0.191623	-1.212086	-2.153026
N	0.115126	-2.154576	-2.781453
N	-0.381696	-1.247659	0.640359
H	-1.231881	-1.15059	1.18162
H	0.380022	-1.518468	1.253778
N	-0.381265	1.253727	0.628733
H	-1.226817	1.157546	1.175873
H	0.383205	1.53437	1.235168
H	2.731323	0.0	0.0
