15

C	-0.556689	0.021542	-1.418602
C	0.0	0.0	0.0
F	-0.217614	1.20636	-2.065486
H	1.100567	0.0	0.0
C	-0.03812	-1.107473	-2.210841
N	0.354792	-2.003074	-2.859856
C	-2.034759	-0.053531	-1.393874
N	-3.207963	-0.101553	-1.373286
N	-0.449752	-1.233488	0.602216
H	-1.233193	-1.048461	1.216987
H	0.31921	-1.637062	1.124875
N	-0.521302	1.180369	0.703828
H	0.081872	1.275357	1.518396
H	-0.298759	1.99213	0.133532
H	2.805252	0.0	0.0
