15

C	-0.554028	-0.00203	-1.411082
C	0.0	0.0	0.0
F	-1.961462	-0.002496	-1.364287
H	1.094546	0.0	0.0
C	-0.153038	1.200248	-2.164211
N	0.172322	2.142494	-2.784068
C	-0.152345	-1.205969	-2.161104
N	0.173629	-2.149356	-2.77887
N	-0.390504	-1.249536	0.628853
H	0.350357	-1.517321	1.266463
H	-1.260264	-1.161777	1.137998
N	-0.38974	1.251295	0.62593
H	0.352172	1.522263	1.261415
H	-1.258424	1.163216	1.137235
H	2.74072	0.0	0.0
