15

C	-0.575606	0.005958	-1.400958
C	0.0	0.0	0.0
F	-1.982341	0.00534	-1.332912
H	1.094564	0.0	0.0
C	-0.189074	1.211829	-2.154659
N	0.122154	2.160837	-2.771303
C	-0.187916	-1.193111	-2.165044
N	0.126285	-2.132721	-2.794325
N	-0.38322	-1.25174	0.630103
H	-1.236964	-1.15974	1.165989
H	0.37609	-1.52732	1.243839
N	-0.382806	1.247635	0.638891
H	0.375233	1.517492	1.255451
H	-1.237264	1.154285	1.171305
H	2.732348	0.0	0.0
