15

C	-0.555016	-0.031329	-1.4186
C	0.0	0.0	0.0
F	-0.323999	-1.23188	-2.051218
H	1.094069	0.0	0.0
H	0.002912	0.72847	-1.980481
N	-1.98624	0.167312	-1.394764
H	-2.322159	0.193169	-2.350247
H	-2.155674	1.076472	-0.981846
N	-0.469817	-1.23359	0.744176
O	0.024185	-2.304112	0.416863
O	-1.332366	-1.091525	1.615648
N	-0.447749	1.213457	0.634679
H	-1.257524	0.997049	1.207444
H	0.291947	1.542719	1.243585
Br	3.49539	0.0	0.0
