15

C	-0.549629	-0.022672	-1.415732
C	0.0	0.0	0.0
F	-1.982703	-0.080117	-1.278911
H	1.089786	0.0	0.0
H	-0.277934	-0.936571	-1.938808
N	-0.147003	1.111447	-2.14055
H	-0.583273	1.146206	-3.049758
H	-0.329507	1.957998	-1.624689
N	-0.431764	-1.329263	0.626686
O	-1.066714	-1.324852	1.675985
O	-0.102308	-2.336633	0.003575
N	-0.447528	1.089104	0.780183
H	0.265101	1.777365	0.951532
H	-1.35404	1.456731	0.544851
Br	3.490388	0.0	0.0
