15

C	-0.404458	-0.011592	-1.470644
C	0.0	0.0	0.0
F	-0.162316	1.303639	-1.950741
H	1.091557	0.0	0.0
H	-1.478461	-0.16401	-1.60788
N	0.341741	-0.999756	-2.135542
H	1.333772	-0.904109	-1.929437
H	0.181655	-0.993439	-3.133106
N	-0.5169	-1.281835	0.580886
O	0.27096	-2.157287	0.91486
O	-1.746587	-1.355327	0.676968
N	-0.504663	1.076741	0.800208
H	-1.43429	1.347545	0.501482
H	0.123984	1.863387	0.702454
Br	3.537385	0.0	0.0
