15

C	-0.451547	-0.105999	-1.452882
C	0.0	0.0	0.0
F	-0.179788	1.122262	-2.071629
H	1.091251	0.0	0.0
H	-1.536085	-0.23646	-1.531947
N	0.228605	-1.191811	-2.048523
H	1.229193	-1.111908	-1.882893
H	0.045376	-1.23764	-3.041609
N	-0.460854	-1.302757	0.647386
O	-1.667695	-1.363829	0.917697
O	0.349279	-2.195089	0.858031
N	-0.521901	1.138377	0.672091
H	0.026047	1.326834	1.500613
H	-1.491553	0.990831	0.920011
Br	3.539937	0.0	0.0
