15

C	-0.376282	0.059318	-1.477049
C	0.0	0.0	0.0
F	-1.74744	0.346797	-1.597083
H	1.092685	0.0	0.0
H	-0.250488	-0.919132	-1.950676
N	0.365652	1.12876	-2.069947
H	1.331458	1.081578	-1.751027
H	0.357906	1.045089	-3.077894
N	-0.50003	-1.31621	0.532637
O	-0.006501	-2.324379	0.026508
O	-1.383177	-1.317266	1.386204
N	-0.477948	1.083081	0.793037
H	-1.381239	1.393231	0.460016
H	0.184583	1.843448	0.725587
Br	3.463322	0.0	0.0
