15

C	-0.458317	0.040593	-1.447336
C	0.0	0.0	0.0
F	-1.864081	0.047261	-1.42901
H	1.089951	0.0	0.0
H	-0.146772	-0.861659	-1.971786
N	0.006997	1.200338	-2.132409
H	0.028708	1.963678	-1.463405
H	0.961904	1.031541	-2.43078
N	-0.438455	-1.326621	0.60492
O	-1.056747	-1.306971	1.669544
O	-0.140858	-2.344472	-0.014397
N	-0.475847	1.132227	0.717549
H	-1.454357	1.026731	0.948146
H	0.057323	1.250821	1.567513
Br	3.465793	0.0	0.0
