15

C	0.0	0.0	0.0
C	-0.393947	0.13444	-1.495263
F	1.401448	0.0	0.0
H	0.489579	0.586969	-1.959337
C	-0.311221	1.275962	0.714538
N	-0.421859	2.223283	1.40117
N	-0.544213	-1.154271	0.610042
H	-0.371108	-1.11356	1.610331
H	-1.570213	-1.057975	0.472062
N	-1.524733	1.018631	-1.678444
H	-1.812315	0.99341	-2.651742
H	-2.314398	0.65054	-1.078532
C	-0.516164	-1.212158	-2.107322
N	-0.60816	-2.20692	-2.727132
H	-3.152008	0.0	0.0
