15

C	0.0	0.0	0.0
C	-0.29751	-0.126007	-1.54781
F	1.407822	0.0	0.0
H	0.482145	0.478416	-2.026181
C	-0.377525	1.375595	0.403851
N	-0.493708	2.516361	0.657313
N	-0.558687	-0.944044	0.885909
H	-0.420551	-1.874639	0.501104
H	-1.580135	-0.745893	0.858427
N	-1.59312	0.281457	-2.039295
H	-2.316573	0.060141	-1.303348
H	-1.590945	1.294924	-2.093159
C	-0.017833	-1.527676	-1.909906
N	0.221038	-2.650368	-2.159301
H	-3.130872	0.0	0.0
