15

C	0.0	0.0	0.0
C	-0.370505	-0.084854	-1.515232
F	1.407416	0.0	0.0
H	0.254906	0.696884	-1.982462
C	-0.35956	1.360093	0.524212
N	-0.510096	2.432811	0.981752
N	-0.45714	-1.027516	0.851787
H	-1.151995	-1.631529	0.437368
H	0.33216	-1.505382	1.256242
N	-1.744688	0.060911	-1.89159
H	-1.888575	1.012126	-2.216613
H	-2.451667	-0.071287	-1.061056
C	0.198938	-1.372536	-2.011771
N	0.638807	-2.381086	-2.422805
H	-3.400941	0.0	0.0
