15

C	0.0	0.0	0.0
C	-0.396205	0.111773	-1.49685
F	1.401331	0.0	0.0
H	0.49045	0.546131	-1.971312
C	-0.311173	1.284427	0.697603
N	-0.421928	2.241977	1.36967
N	-0.54236	-1.146739	0.626424
H	-0.367615	-1.093231	1.625848
H	-1.568369	-1.053416	0.487235
N	-1.518964	1.004092	-1.693363
H	-2.309975	0.646755	-1.088974
H	-1.807884	0.962021	-2.665988
C	-0.535878	-1.242686	-2.085405
N	-0.6385	-2.245296	-2.690634
H	-3.145051	0.0	0.0
