15

C	0.0	0.0	0.0
C	-0.304097	-0.196192	-1.523987
F	1.379517	0.0	0.0
H	0.270039	0.611409	-1.994356
C	-0.359575	1.385525	0.408712
N	-0.546026	2.489904	0.762683
N	-0.554719	-1.030618	0.797024
H	-1.581162	-0.944504	0.669384
H	-0.35295	-0.842697	1.776139
N	-1.667139	-0.195142	-1.993851
H	-2.350558	-0.214352	-1.180389
H	-1.847641	0.680741	-2.46549
C	0.38775	-1.44038	-1.93573
N	0.923802	-2.402572	-2.342497
H	-3.182089	0.0	0.0
