15

C	0.0	0.0	0.0
C	-0.394588	-0.029998	-1.504864
F	1.374878	0.0	0.0
H	0.479453	0.394199	-2.01003
C	-0.329978	1.345779	0.563648
N	-0.497322	2.392846	1.072177
N	-0.552754	-1.084228	0.727513
H	-1.578347	-0.999174	0.581455
H	-0.378377	-0.941886	1.717579
N	-1.548842	0.790272	-1.792598
H	-1.841082	0.626554	-2.751066
H	-2.330236	0.493651	-1.143243
C	-0.463857	-1.440167	-1.965396
N	-0.499826	-2.490013	-2.490992
H	-3.179483	0.0	0.0
