15

C	0.0	0.0	0.0
C	-0.343745	-0.071644	-1.496006
F	1.412801	0.0	0.0
H	-1.449711	-0.077227	-1.468959
C	-0.737828	1.116547	0.637404
N	-0.680838	2.123345	1.276899
N	-0.365525	-1.233843	0.627635
H	0.029956	-1.983887	0.075407
H	0.022336	-1.239126	1.563634
N	0.179649	-1.301151	-2.087932
H	-0.295832	-1.475595	-2.964518
H	1.168731	-1.196154	-2.280355
C	0.152269	1.133722	-2.175561
N	0.56211	2.046803	-2.793257
H	-2.45231	0.0	0.0
