15

C	0.0	0.0	0.0
C	-0.35909	-0.168591	-1.516807
F	1.400264	0.0	0.0
H	0.470724	0.342321	-2.018864
C	-0.32578	1.405276	0.390877
N	-0.437446	2.527974	0.720974
N	-0.557306	-1.000116	0.824921
H	-0.382879	-0.768857	1.799245
H	-1.583265	-0.918038	0.666518
N	-1.602614	0.36867	-2.018301
H	-2.353475	0.161766	-1.309632
H	-1.51495	1.380581	-2.032065
C	-0.222981	-1.593779	-1.87093
N	-0.087645	-2.707028	-2.217582
H	-3.137738	0.0	0.0
