18

C	-0.36585	0.032054	-1.4939
C	0.0	0.0	0.0
Br	-2.331115	0.339103	-1.705155
H	1.098844	0.0	0.0
C	0.378519	1.147806	-2.208973
H	1.449608	0.964586	-2.073584
H	0.126947	1.175587	-3.270664
H	0.118773	2.091369	-1.730795
C	-0.120744	-1.254508	-2.140587
N	0.074438	-2.289252	-2.6632
C	-0.509725	-1.228441	0.73637
H	-0.149121	-2.152851	0.28019
H	-0.138178	-1.197315	1.76349
H	-1.604987	-1.249569	0.758491
N	-0.39634	1.268305	0.606857
H	0.319163	1.536256	1.271472
H	-1.276547	1.165517	1.098678
Cl	3.404586	0.0	0.0
