18

C	-0.540556	0.006792	-1.445919
C	0.0	0.0	0.0
Br	0.302473	-1.439111	-2.484381
H	1.099822	0.0	0.0
C	-2.055256	-0.161973	-1.522013
H	-2.338687	-1.153475	-1.167531
H	-2.509263	0.600388	-0.885829
H	-2.40416	-0.046751	-2.549448
C	-0.170728	1.258719	-2.107719
N	0.046603	2.289585	-2.630285
C	-0.480882	-1.202354	0.795511
H	0.091536	-1.249783	1.725586
H	-1.543966	-1.119181	1.042218
H	-0.303153	-2.134904	0.258543
N	-0.516083	1.233823	0.629349
H	-0.444044	1.111605	1.634288
H	0.13274	1.982457	0.401357
Cl	3.461315	0.0	0.0
