18

C	-0.317364	0.018876	-1.51737
C	0.0	0.0	0.0
Br	-2.289243	0.228337	-1.8203
H	1.099167	0.0	0.0
C	0.392716	1.166541	-2.22058
H	1.463042	1.066419	-2.00917
H	0.033216	2.117819	-1.826739
H	0.213794	1.141053	-3.296903
C	0.022208	-1.249903	-2.15418
N	0.29144	-2.272978	-2.668143
C	-0.52799	-1.230632	0.712937
H	-1.622143	-1.226017	0.752509
H	-0.193279	-2.152342	0.232942
H	-0.143925	-1.212005	1.733329
N	-0.414188	1.202408	0.702469
H	0.219248	1.964945	0.500725
H	-1.35979	1.468445	0.450047
Cl	3.410391	0.0	0.0
