18

C	-0.411354	0.007313	-1.48188
C	0.0	0.0	0.0
Br	0.007881	1.77422	-2.278102
H	1.095743	0.0	0.0
C	0.376295	-1.026976	-2.283062
H	0.08138	-2.033154	-1.977621
H	0.181641	-0.917635	-3.350845
H	1.43963	-0.883135	-2.075244
C	-1.851732	-0.174113	-1.644622
N	-2.984321	-0.444081	-1.803804
C	-0.476629	-1.277772	0.6822
H	-1.569091	-1.314909	0.729116
H	-0.079627	-1.289772	1.701351
H	-0.09805	-2.173407	0.18886
N	-0.599189	1.140505	0.697173
H	-0.056278	1.966614	0.467524
H	-0.466237	0.987835	1.691024
Cl	3.483624	0.0	0.0
