18

C	-0.319884	0.015708	-1.516279
C	0.0	0.0	0.0
Br	-2.293117	0.204351	-1.81583
H	1.099139	0.0	0.0
C	0.37884	1.169671	-2.222039
H	0.009622	2.118223	-1.83082
H	1.450235	1.080793	-2.011409
H	0.199761	1.139596	-3.298096
C	0.032799	-1.249366	-2.153991
N	0.31476	-2.268902	-2.667396
C	-0.523549	-1.231209	0.715407
H	-0.133275	-1.213167	1.733702
H	-1.617628	-1.226628	0.761567
H	-0.191966	-2.152981	0.23327
N	-0.416465	1.200265	0.703632
H	0.20052	1.973491	0.483487
H	-1.372239	1.449996	0.465881
Cl	3.421627	0.0	0.0
