18

C	-0.404885	-0.004798	-1.487062
C	0.0	0.0	0.0
Br	0.018227	1.75331	-2.290559
H	1.095714	0.0	0.0
C	0.381996	-1.049276	-2.273578
H	0.19446	-0.943338	-3.343896
H	1.443807	-0.911652	-2.05616
H	0.077479	-2.051579	-1.966326
C	-1.845559	-0.185935	-1.652049
N	-2.983994	-0.434877	-1.812416
C	-0.483814	-1.269623	0.691343
H	-0.11464	-2.171825	0.203701
H	-1.575282	-1.297753	0.744242
H	-0.080978	-1.278423	1.706968
N	-0.593342	1.149048	0.682702
H	-0.00682	1.959374	0.500862
H	-0.518449	0.971131	1.678266
Cl	3.4765	0.0	0.0
