18

C	-0.484368	0.026201	-1.478226
C	0.0	0.0	0.0
Br	0.431278	-1.370181	-2.526654
H	1.095257	0.0	0.0
C	-1.98786	-0.202055	-1.639852
H	-2.27877	-0.106665	-2.68696
H	-2.253171	-1.200347	-1.292661
H	-2.546182	0.538437	-1.058953
C	-0.135246	1.306656	-2.094052
N	0.06475	2.362641	-2.572508
C	-0.501673	-1.227811	0.74581
H	-1.572551	-1.156833	0.964143
H	0.033891	-1.271994	1.69413
H	-0.305294	-2.149915	0.195284
N	-0.398885	1.204006	0.721366
H	-1.352171	1.483377	0.522506
H	0.223232	1.964491	0.480955
Cl	3.435571	0.0	0.0
