13

C	-0.427114	0.034435	-1.471266
C	0.0	0.0	0.0
Cl	0.05456	-1.478882	-2.275074
H	1.09179	0.0	0.0
H	0.163367	0.832267	-1.931159
C	-1.847156	0.294347	-1.701105
N	-2.968772	0.548798	-1.939323
N	-0.538884	-1.237316	0.66949
O	0.262242	-1.96536	1.239121
O	-1.75416	-1.410875	0.582904
C	-0.514164	1.16481	0.705112
N	-0.931076	2.116134	1.254611
Br	3.340191	0.0	0.0
