13

C	-0.425903	0.077717	-1.465601
C	0.0	0.0	0.0
Cl	0.173967	-1.323958	-2.380126
H	1.091791	0.0	0.0
H	0.105931	0.945605	-1.867395
C	-1.858994	0.263579	-1.682376
N	-2.995833	0.465655	-1.899194
N	-0.51403	-1.226665	0.701595
O	-1.440839	-1.838831	0.176395
O	0.026685	-1.497449	1.765893
C	-0.483521	1.161992	0.732674
N	-0.868069	2.116843	1.299889
Br	3.300388	0.0	0.0
