18

C	0.0	0.0	0.0
C	-0.278787	0.062432	-1.557775
Br	1.947048	0.0	0.0
H	0.584919	0.629594	-1.925415
C	-0.467477	1.211591	0.643299
N	-0.56143	2.309915	1.072659
N	-0.36766	-1.182356	0.838869
O	-0.332321	-2.29906	0.318661
O	-0.475751	-0.981211	2.050518
C	-1.496227	0.85409	-2.046691
H	-1.654939	1.764268	-1.465708
H	-1.291399	1.144467	-3.087676
H	-2.41243	0.266495	-2.017259
C	-0.240285	-1.292857	-2.257652
H	0.6571	-1.859237	-2.010496
H	-1.10971	-1.890252	-1.982592
H	-0.259616	-1.114413	-3.339751
H	-1.878452	0.0	0.0
