18

C	0.0	0.0	0.0
C	-0.279274	0.052339	-1.556159
Br	1.95485	0.0	0.0
H	0.591501	0.599514	-1.934457
C	-0.451114	1.215237	0.647172
N	-0.549718	2.305186	1.095248
N	-0.360961	-1.17814	0.846665
O	-0.335189	-2.297126	0.3314
O	-0.459058	-0.971926	2.058219
C	-1.484896	0.859728	-2.04685
H	-1.284972	1.13128	-3.095114
H	-2.413101	0.291193	-2.000706
H	-1.619357	1.781086	-1.477879
C	-0.26692	-1.310964	-2.242674
H	-0.28227	-1.142774	-3.325493
H	0.619966	-1.890446	-1.989685
H	-1.146785	-1.890973	-1.961949
H	-1.864774	0.0	0.0
