14

C	0.0	0.0	0.0
C	-0.591629	0.015922	-1.399257
F	1.387491	0.0	0.0
H	-0.368255	-0.936687	-1.890539
H	-1.70399	0.070576	-1.145765
C	-0.397015	1.230916	0.720209
N	-0.5634	2.222468	1.326194
C	-0.48233	-1.225408	0.753359
H	-0.096261	-1.20741	1.775267
H	-1.577196	-1.1654	0.722542
H	-0.103871	-2.117691	0.244753
C	-0.105373	1.10958	-2.222177
N	0.277011	1.981035	-2.91186
F	-2.835614	0.0	0.0
