14

C	0.0	0.0	0.0
C	-0.591377	0.036855	-1.401655
F	1.387588	0.0	0.0
H	-0.337166	0.974797	-1.903191
H	-1.7049	0.003388	-1.144672
C	-0.403845	1.239764	0.700313
N	-0.555146	2.249927	1.278543
C	-0.469828	-1.218205	0.772328
H	-1.563592	-1.156319	0.771573
H	-0.111935	-2.1163	0.261276
H	-0.053135	-1.193616	1.782329
C	-0.146302	-1.084127	-2.211022
N	0.194908	-1.988951	-2.879539
F	-2.824438	0.0	0.0
