14

C	0.0	0.0	0.0
C	-0.309874	0.14918	-1.503586
F	1.39039	0.0	0.0
H	0.285226	-0.641273	-1.978605
H	0.143681	1.099036	-1.818952
C	-0.460089	1.147333	0.796817
N	-0.550894	2.13059	1.437149
C	-0.360923	-1.340759	0.624515
H	-1.44697	-1.426794	0.668649
H	0.110452	-1.374185	1.613433
H	0.088876	-2.13692	0.01571
C	-1.673934	0.080469	-2.059692
N	-2.556212	0.15691	-2.830149
F	-2.514377	0.0	0.0
