15

C	0.0	0.0	0.0
C	-0.545387	0.042463	-1.431263
Br	1.950768	0.0	0.0
H	-1.638639	0.134202	-1.203409
H	-0.24231	0.960189	0.467713
N	-0.562037	-1.134701	0.668766
H	-1.589089	-0.914303	0.550878
H	-0.34186	-1.060164	1.656991
C	-0.270797	-1.229354	-2.229775
H	0.799369	-1.369737	-2.40455
H	-0.650592	-2.079591	-1.664635
H	-0.781506	-1.183865	-3.195323
C	-0.094011	1.228492	-2.145445
N	0.247147	2.175462	-2.753216
F	-2.836337	0.0	0.0
