15

C	0.0	0.0	0.0
C	-0.522116	0.021263	-1.453614
Br	1.95597	0.0	0.0
H	-1.617037	0.10389	-1.228281
H	-0.281194	0.952017	0.449797
N	-0.546597	-1.037292	0.816806
H	-1.572115	-0.821323	0.709392
H	-0.355952	-1.936081	0.386011
C	-0.227499	-1.243255	-2.254719
H	0.847702	-1.416252	-2.357866
H	-0.683499	-2.104712	-1.761691
H	-0.664915	-1.167517	-3.252987
C	-0.073006	1.206454	-2.174568
N	0.272546	2.152747	-2.776406
F	-2.806704	0.0	0.0
