15

C	0.0	0.0	0.0
C	-0.348307	0.218106	-1.507667
Br	2.020829	0.0	0.0
H	0.575021	0.494242	-2.027128
H	-0.186759	0.940094	0.530386
N	-0.608109	-1.14452	0.544322
H	-0.46734	-1.12722	1.552055
H	-1.643204	-0.897551	0.36294
C	-1.353238	1.354146	-1.782784
H	-1.477937	1.463738	-2.865529
H	-0.940277	2.287226	-1.386162
H	-2.286192	1.089121	-1.273575
C	-0.776672	-1.033379	-2.141409
N	-1.071484	-1.983193	-2.767215
F	-2.843533	0.0	0.0
