9
Coordinates from ORCA-job run
  C   -0.50542915675173     -0.01778777535452     -0.07263785804077
  C   0.71161844072943      0.43832181619599     -0.47148573183237
  H   0.78549215237678      1.07871479375867     -1.34596307026148
  C   -1.68677449582190      0.34230298743966     -0.79848495558717
  N   -2.65533731896964      0.64033900885717     -1.39656952079351
  C   -0.66526989815698     -0.86439642266888      1.07106295039188
  N   -0.80170899772523     -1.56033763010697      2.01057816963383
  C   1.90796823524902      0.10419388153950      0.22132168515178
  N   2.90944103907025     -0.16135065966062      0.78217833133780
