9
Coordinates from ORCA-job run
  C   -0.50752707062406      0.02535016368676     -0.05600684907620
  C   0.73201611116067      0.33140352588221     -0.52310065764314
  H   0.83352621156710      0.90392135866992     -1.44081968127134
  C   -1.67483666715945      0.45844291481915     -0.76444268424204
  N   -2.63147696337520      0.81795324097611     -1.34761899538417
  C   -0.70584761545712     -0.72438070924613      1.14757878229624
  N   -0.87266017439804     -1.34323303660312      2.13485454055974
  C   1.91632547150644     -0.07260876071921      0.15289904931126
  N   2.90948069677967     -0.39684869746570      0.69765649544966
