9
Coordinates from ORCA-job run
  C   -0.42418418404695     -0.25488192768370      0.12772604095321
  C   0.91161325916590     -0.27045592142870     -0.12483556937251
  H   1.46135152166368     -1.20441310401636     -0.04878154185134
  C   -1.20246427254883      0.94410096698864      0.04544384104366
  N   -1.84606695504595      1.92714761327504     -0.02451607669370
  C   -1.10468270287388     -1.45998074342841      0.49748645620682
  N   -1.65990468407440     -2.45119331898546      0.80355299822206
  C   1.62666504472288      0.90414507464048     -0.48790637276480
  N   2.23767297303757      1.86553136063848     -0.78916977574339
