9
Coordinates from ORCA-job run
  C   -0.50919038004189      0.01181173715054     -0.02631369894448
  C   0.69114698497681      0.32943196055069     -0.58004182297762
  H   0.72259236713398      0.85928776584131     -1.52793678609597
  C   -1.72875917802938      0.37251724347690     -0.68561969638323
  N   -2.72821019298767      0.66928402610485     -1.23108625466070
  C   -0.61411208470601     -0.68627403006697      1.21966771142631
  N   -0.70950329118785     -1.25826489293317      2.24404033000585
  C   1.92357486249347     -0.01071114273622      0.04319259653030
  N   2.95346091234853     -0.28508266738794      0.54509762109955
