9
Coordinates from ORCA-job run
  C   -0.43973758232002     -0.22081509962238      0.13528919914273
  C   0.88721710608290     -0.34210063731417     -0.13442096146645
  H   1.36261026863871     -1.31665345836141     -0.06759281224931
  C   -1.12116644326489      1.03658434466537      0.06348757466657
  N   -1.68818988532700      2.06664046671730      0.00761875596551
  C   -1.21123242024371     -1.36929446390313      0.50635359411076
  N   -1.84258981148009     -2.31466893636875      0.81004129285592
  C   1.68722138764406      0.77382377074901     -0.50564228336922
  N   2.36486738027002      1.68648401343817     -0.81513435965651
