9
Coordinates from ORCA-job run
  C   -0.44457336806737     -0.22364159349554      0.11566618264042
  C   0.88867673012188     -0.34310465343272     -0.12225823971872
  H   1.35804333675756     -1.32171026940504     -0.07448977127858
  C   -1.11717032964751      1.03958853079988      0.06672838625102
  N   -1.67344703661644      2.07625503772603      0.02781165721960
  C   -1.23113433778073     -1.37921560536258      0.42830170382332
  N   -1.87531494444725     -2.33004959721143      0.68416662924005
  C   1.70308880256531      0.78076938390920     -0.43346020638398
  N   2.39183114711456      1.70110876647221     -0.69146634179314
