9
Coordinates from ORCA-job run
  C   -0.43544674197516     -0.23075893663372      0.13341513198596
  C   0.90445115182897     -0.31350111249722     -0.08110829133060
  H   1.41569872470098     -1.26015641642876      0.06938467475756
  C   -1.16259796325333      0.98945788167005     -0.04773471419311
  N   -1.76490165164800      1.98996735291344     -0.19591708961766
  C   -1.17431484673461     -1.38242139282286      0.55727413955450
  N   -1.78041620058831     -2.32762208324462      0.90927125456415
  C   1.67260971464241      0.80814287301162     -0.49934764365055
  N   2.32391781302706      1.72689183403207     -0.84523746207024
