9
Coordinates from ORCA-job run
  C   -0.42727337967982     -0.25567360110383      0.11416703613508
  C   0.93115963685341     -0.22002095321135      0.07412205482108
  H   1.50135971848986     -1.07968858537600      0.41472318602076
  C   -1.23271279015595      0.84604586820696     -0.31977732274411
  N   -1.89854417605227      1.75007267698335     -0.67369350730347
  C   -1.10746323100821     -1.41943851611232      0.59906896460285
  N   -1.66727861207146     -2.37586008989912      0.99437666164905
  C   1.64458590186564      0.91342391668068     -0.40446050288620
  N   2.25616693175880      1.84013928383164     -0.79852657029504
