9
Coordinates from ORCA-job run
  C   -0.42617168569063     -0.26441705083976      0.09625048122047
  C   0.92324424169948     -0.25225003417292     -0.06821824578228
  H   1.48383012110756     -1.17835986316377      0.02263188849014
  C   -1.21893416934341      0.92316435165552     -0.01098387096665
  N   -1.87589028864539      1.89601735118782     -0.09785412068516
  C   -1.10859647933298     -1.48961164228719      0.38844046525577
  N   -1.66660633669603     -2.49731472417812      0.62875497297789
  C   1.63887283603868      0.94196980474724     -0.35899985287261
  N   2.25025176086273      1.91980180705118     -0.60002171763757
