9
Coordinates from ORCA-job run
  C   -0.50880345834811      0.00357197821549     -0.03737953388070
  C   0.70033433932462      0.28302989624440     -0.59202097096483
  H   0.74727410267289      0.72069087950090     -1.58517725352618
  C   -1.71651157183455      0.28231264895824     -0.75568296646298
  N   -2.70754493122750      0.51070094562299     -1.34752148177407
  C   -0.63554604568307     -0.57384845338735      1.26681263748887
  N   -0.74735484208357     -1.04718156769263      2.33868419657470
  C   1.92262690290621      0.01754940874038      0.08490311461071
  N   2.94652550427308     -0.19782573620241      0.62638225793447
