9
Coordinates from ORCA-job run
  C   -0.50962627282752      0.00665028782783     -0.03323279318543
  C   0.69492580486661      0.34470568452664     -0.56503219200329
  H   0.73413814266016      0.88102670792397     -1.50902361795704
  C   -0.62438645512546     -0.70226358480173      1.20563801595502
  N   -0.72466077409870     -1.28698095503838      2.22225810971926
  C   -1.72333438676216      0.35411637033010     -0.71004423387875
  N   -2.71927841414719      0.63849445595338     -1.26845338934345
  C   1.92249487476079      0.01413876101516      0.07305047449858
  N   2.94972748067347     -0.24988772773698      0.58583962619511
