9
Coordinates from ORCA-job run
  C   -0.43018002694192     -0.24125597271087      0.13277458459107
  C   0.91956136460669     -0.27235854198084     -0.02665379322749
  H   1.46628115387036     -1.18329302045739      0.20070109304355
  C   -1.13094607113495     -1.40049622613198      0.59882671894116
  N   -1.70440577095146     -2.35422400493421      0.98107019369087
  C   -1.20544843996765      0.92866535573253     -0.15135910985067
  N   -1.84778176593561      1.88738861092272     -0.38338020357726
  C   1.65301101941231      0.85618220135397     -0.48623017627521
  N   2.27890853704224      1.77939159820606     -0.86574930733603
