9
Coordinates from ORCA-job run
  C   -0.42475457754328     -0.26360569727775      0.10249841418590
  C   0.92772664966742     -0.24529315158398     -0.03417970016850
  H   1.49585291295859     -1.15793570641733      0.12211642154581
  C   -1.10054721755720     -1.47788901898195      0.45071594084452
  N   -1.65135212239826     -2.47756143875806      0.73654290723961
  C   -1.22733920099224      0.90634392832349     -0.09036807216758
  N   -1.89205015563069      1.86499672461713     -0.24796276031419
  C   1.63595863265005      0.93927847664296     -0.37774261135051
  N   2.23750507884560      1.91166588343550     -0.66162053981506
