9
Coordinates from ORCA-job run
  C   -0.42852610630188     -0.23945284961386      0.14424349932907
  C   0.89022379828547     -0.30701330555514     -0.17870512736277
  H   1.40005396652044     -1.26603490279762     -0.15834085190877
  C   -1.15310522834628      0.99551681552772      0.13634769501119
  N   -1.75221136812984      2.00877503151443      0.13191503469609
  C   -1.14502067240070     -1.42458478126657      0.51058566908410
  N   -1.72899262975362     -2.40157976129063      0.80892092443106
  C   1.63885108428758      0.84538122696642     -0.54527058322065
  N   2.27772715583884      1.78799252651526     -0.84769626005932
