9
Coordinates from ORCA-job run
  C   -0.41738473421907     -0.27033744569287      0.11525949098784
  C   0.93316705422190     -0.22145545229451     -0.03254354369096
  H   1.52648067028051     -1.11301380311776      0.14986415522933
  C   -1.25194274021425      0.87079210836844     -0.11220137282404
  N   -1.94487228016324      1.80383260396466     -0.29876631991716
  C   -1.05844305410931     -1.48896821438257      0.51030340218227
  N   -1.58145152831161     -2.49137393650543      0.83620072791553
  C   1.60820292552873      0.96827295548744     -0.42231366267572
  N   2.18624368698633      1.94325118417260     -0.74380287720708
