9
Coordinates from ORCA-job run
  C   -0.50149036038810     -0.04343059323872     -0.08474736035277
  C   0.71120237978104      0.41357676628109     -0.49545587601887
  H   0.78965308079594      0.96562331298367     -1.42789907344704
  C   -1.67234619566696      0.20017246994020     -0.87337794338522
  N   -2.63410022564826      0.40130355243086     -1.52079061235601
  C   -0.66819782915687     -0.77615524141407      1.13426721660803
  N   -0.81016008221909     -1.37684342656208      2.13656613842888
  C   1.89637624991317      0.19414660612389      0.25955951667090
  N   2.88806298258913      0.02260655345515      0.87187799385210
