9
Coordinates from ORCA-job run
  C   -0.50645642796032      0.01365787597662     -0.06225289034093
  C   0.72651548034590      0.41321225505637     -0.47250184086952
  H   0.81964733347512      1.07823510566155     -1.32646163319689
  C   -1.67998005150810      0.46445832531859     -0.74908074425652
  N   -2.64341333715414      0.83475994688392     -1.31406361192913
  C   -0.69199198208641     -0.86190521963841      1.05555723511999
  N   -0.85055045768509     -1.58095292197624      1.97392127031680
  C   1.91538484805705     -0.01143569680986      0.18261599946461
  N   2.91184459451599     -0.35002967047254      0.71226621569160
