9
Coordinates from ORCA-job run
  C   -0.50952962870662      0.01396128303397     -0.03012602597882
  C   0.69699039655779      0.31532186618649     -0.57934508580461
  H   0.73904640624221      0.83207670964297     -1.53408201637015
  C   -1.72166841438091      0.37264687781731     -0.70404250923658
  N   -2.71598494887011      0.66811679588552     -1.25957724379407
  C   -0.62858001986962     -0.66501148766583      1.22496399823845
  N   -0.73319702985142     -1.22332690698112      2.25593384549175
  C   1.92312588582777     -0.02273173651814      0.05720767571022
  N   2.94979735305090     -0.29305340140116      0.56806736174381
