9
Coordinates from ORCA-job run
  C   -0.43035184707034     -0.24552149998561      0.12374969933438
  C   0.92230098111599     -0.26580473242340     -0.01036385290143
  H   1.47215374307596     -1.17304778518485      0.22430136634635
  C   -1.13144862246778     -1.41133777164926      0.57244983884048
  N   -1.70566326234691     -2.36979445879987      0.94154467896337
  C   -1.20919023656248      0.91960646499849     -0.17012761048969
  N   -1.85343855268275      1.87423646652118     -0.41339214617674
  C   1.65512517701507      0.87028488374630     -0.45219411702614
  N   2.27951261992324      1.80037843277701     -0.81696785689058
