9
Coordinates from ORCA-job run
  C   -0.50932653703779     -0.00122965755298     -0.03675684543626
  C   0.69587426950592      0.30695332188689     -0.58524440049403
  H   0.73655975413843      0.78067954081968     -1.56192229321772
  C   -1.72182599986836      0.29535633595079     -0.73952390876653
  N   -2.71679380288808      0.54055380127852     -1.31791627593169
  C   -0.62598883827103     -0.62561874704480      1.24660880473981
  N   -0.72825200599693     -1.13839544620752      2.30120725568508
  C   1.92226242839415      0.03047795969795      0.07996675724999
  N   2.94949073202369     -0.18877710882854      0.61358090617135
