9
Coordinates from ORCA-job run
  C   -0.50528856339658     -0.01052128858444     -0.07284464788818
  C   0.72195292242795      0.40217347191944     -0.48734471585326
  H   0.81091917913360      1.00185406693337     -1.38885159096932
  C   -0.68621405624677     -0.80206716419230      1.10665014157493
  N   -0.84138474566050     -1.45298760284215      2.07505141531849
  C   -1.67695717622217      0.34133452523271     -0.81812611165037
  N   -2.63772531826603      0.63152946088669     -1.43232520817722
  C   1.90991187049775      0.07460923051610      0.22289069097506
  N   2.90578588773275     -0.18592469986942      0.79590002666987
