9
Coordinates from ORCA-job run
  C   -0.41050573169597     -0.28570438005554      0.10256079115908
  C   0.93502818353493     -0.20227388825823     -0.07216970034394
  H   1.54621246624710     -1.09478384399237      0.02813505593945
  C   -1.02292838408728     -1.54206425591042      0.41669283975023
  N   -1.52433181272160     -2.57440071078402      0.67634076141426
  C   -1.26797158899830      0.85488288612045     -0.01641396002725
  N   -1.97842933920013      1.78863941576514     -0.11106880654901
  C   1.58281165336134      1.02488447329132     -0.38400920629975
  N   2.14011455355991      2.03082030382367     -0.64006777504307
