16

C	-0.411226	-0.07593	-1.449734
C	0.0	0.0	0.0
F	-1.810778	-0.32453	-1.555196
H	1.104004	0.0	0.0
H	0.075763	-0.950521	-1.898137
C	-0.087441	1.17443	-2.223542
H	0.990017	1.360177	-2.154569
H	-0.376773	1.068501	-3.273181
H	-0.620697	2.01459	-1.775175
N	-0.443125	-1.180126	0.752597
H	-1.197467	-1.643481	0.254373
H	0.345896	-1.816331	0.819011
N	-0.485862	1.236787	0.628178
H	0.339336	1.715573	0.975649
H	-0.999704	0.941416	1.448219
H	2.966623	0.0	0.0
