16

C	-0.552301	0.006637	-1.412849
C	0.0	0.0	0.0
F	-0.269073	-1.231237	-2.027395
H	1.100524	0.0	0.0
H	-0.011346	0.767846	-1.980734
C	-2.049464	0.215306	-1.496338
H	-2.30082	1.200264	-1.101871
H	-2.562205	-0.546128	-0.906503
H	-2.384259	0.148187	-2.535736
N	-0.527172	-1.171366	0.725587
H	-0.40209	-1.97018	0.107517
H	0.12851	-1.33187	1.487601
N	-0.404929	1.245911	0.649956
H	-1.198236	1.040504	1.248166
H	0.367976	1.547373	1.232298
H	3.010486	0.0	0.0
