16

C	-0.406822	-0.019461	-1.46186
C	0.0	0.0	0.0
F	-1.794944	0.221484	-1.602808
H	1.103744	0.0	0.0
H	-0.235972	-1.022823	-1.871342
C	0.343526	1.011668	-2.270561
H	0.085565	0.941754	-3.329859
H	0.084444	2.013527	-1.921518
H	1.416909	0.861727	-2.126004
N	-0.567353	-1.175633	0.679552
H	-0.017068	-1.977694	0.376249
H	-0.332923	-1.036861	1.658526
N	-0.456291	1.178565	0.71665
H	0.19958	1.933895	0.556694
H	-1.374552	1.44766	0.380486
H	3.103071	0.0	0.0
