12
Coordinates from ORCA-job run
  C   -0.62452905345963      0.42312706998793      0.41575417198239
  C   0.58917601910654     -0.55247114857980      0.30269261387122
  H   -0.58849466616919      0.88493648216669      1.41017976623167
  H   0.46536577011584     -1.32779414083351      1.06873152356787
  C   -1.87732650860252     -0.32831613674953      0.29088823389205
  N   -2.86596033615370     -0.95713367246968      0.21197869137269
  C   -0.53552074561704      1.48112657789703     -0.59493997927298
  N   -0.44585416924936      2.33123554485662     -1.40013325662396
  C   1.83368488211565      0.17607054765117      0.56688077644492
  N   2.81114220577462      0.78042248767845      0.80818892184956
  C   0.61710880881909     -1.19573325170905     -1.01403695512453
  N   0.61920779331970     -1.71547035989632     -2.06718450819089
