12
Coordinates from ORCA-job run
  C   0.56758945923796     -0.50025828780171      0.41338726776167
  C   -0.66411695187041      0.45302000935551      0.30688950452625
  H   0.38476209126608     -1.18758646073265      1.24852475734516
  H   -0.72176598878391      1.02722531059346      1.23984687730536
  C   1.77363913714144      0.28124825307684      0.70322731856699
  N   2.71762019771093      0.92966734443322      0.96291478156859
  C   0.72281654526691     -1.28623088496044     -0.81402821615764
  N   0.82515164055298     -1.91885062693260     -1.79821634537053
  C   -1.89080087884946     -0.33747938152633      0.16482800184183
  N   -2.86037302808266     -0.99441028078527      0.07905917848525
  C   -0.50138447436271      1.38941531940941     -0.80910373511511
  N   -0.35213774922715      2.14423968587057     -1.69632939075783
