15

C	-0.645326	0.029687	-1.356295
C	0.0	0.0	0.0
F	-0.103606	-1.043814	-2.073175
H	1.087783	0.0	0.0
H	-0.270269	-0.94779	0.470748
N	-2.049424	-0.016415	-1.315603
H	-2.348494	-0.833193	-0.801735
H	-2.432787	-0.007776	-2.251764
N	-0.257449	1.219887	-2.231723
O	0.801951	1.779015	-2.007892
O	-1.018807	1.454185	-3.172892
N	-0.483067	1.056256	0.870811
O	-0.505825	0.812311	2.084985
O	-0.738341	2.162327	0.377425
H	2.602235	0.0	0.0
