16
Coordinates from ORCA-job run
  C   0.96305924648701     -0.17536852878655      0.50343579841573
  C   -0.56021007039118     -0.14353330570864      0.62239525668232
  Cl  1.67077941887979      0.82861034052485      1.80957625359313
  H   -0.82815579270765     -0.39975560539466      1.64814330761451
  H   1.25302414065555     -1.20278446601833      0.74114359205634
  C   1.55898794970211      0.23052278069851     -0.83119424204196
  H   1.16219217039850     -0.39283177715816     -1.63510480400557
  H   2.64087173766176      0.09517318702835     -0.79628347669673
  H   1.34401962168750      1.27270987393527     -1.05977623113856
  C   -1.25626164334808     -1.05529569856502     -0.37279418100611
  H   -1.09516209221146     -0.71699000174552     -1.39501101082075
  H   -2.33078765423480     -1.06723909465422     -0.17912450908862
  H   -0.88052927507710     -2.07560574664502     -0.26768838311956
  N   -1.08086023108028      1.25291107935077      0.44904022272213
  O   -1.02426393394344      1.73620923674119     -0.68136757288225
  O   -1.53570359247822      1.81226772639718      1.44360997971595
