16
Coordinates from ORCA-job run
  C   0.95048403526137     -0.17385228329295      0.52725819542459
  C   -0.57554803500618     -0.15260127170488      0.60619253199286
  Cl  1.61672323615569      0.82279416787888      1.86050453031800
  H   -0.86917499542051     -0.41954245285563      1.62210940381120
  H   1.24028984352698     -1.20175424048200      0.76307751683699
  C   1.57887084368596      0.24751800966182     -0.78746262429815
  H   2.66031711165170      0.11879608985429     -0.72505551676151
  H   1.20757949739271     -0.37132761869183     -1.60692188851159
  H   1.36309376912717      1.29019019569688     -1.01308791200625
  C   -1.23859595126305     -1.05972787625884     -0.41557905042877
  H   -2.31769660031428     -1.08169802052926     -0.25036327549599
  H   -1.05334049788338     -0.71015374313932     -1.42989176517133
  H   -0.85777260253056     -2.07814515289791     -0.31041289502891
  N   -1.10078056702566      1.24195269961817      0.43150493009357
  O   -1.01672123830064      1.73628640749195     -0.69238613932490
  O   -1.58572784905733      1.78926508965064      1.41851395855020
