16
Coordinates from ORCA-job run
  C   0.90987448446495     -0.34074872079138     -0.07774222451471
  C   -0.52900606523638     -0.09571171043149      0.37596579740572
  Cl  1.63764026594964     -1.52972098430343      1.04942180042292
  H   -0.52882185773172      0.29415159301666      1.39535592537317
  H   0.89514547067396     -0.81933110963335     -1.05879777502235
  C   1.75510062782402      0.91866447515755     -0.10246456070545
  H   1.73938250466992      1.41543778305701      0.86981125924497
  H   2.78815423991615      0.67184508386237     -0.34933529549457
  H   1.38181425031368      1.61086409252317     -0.86039693423322
  C   -1.45356130146669     -1.28914353625792      0.22808054804231
  H   -2.47322622695439     -1.01372508681115      0.50557137906504
  H   -1.12524569867294     -2.09672972733412      0.88160456882741
  H   -1.45377391240856     -1.64032249121508     -0.80455260322650
  N   -1.05712905983964      1.02561949199022     -0.46912779984801
  O   -1.15408939472257      0.80545794016819     -1.67543741627623
  O   -1.33125832677942      2.08439290700273      0.09104333093949
