16
Coordinates from ORCA-job run
  C   0.80879076007165      0.61057838501144     -0.00632843367787
  C   -0.49440525780978     -0.03024028505886      0.46408334063064
  Cl  0.51475242889464      1.61232921363203     -1.46171494412229
  H   -0.27193317972495     -0.52650528915329      1.41486053416512
  H   1.13081231735324      1.30781307146446      0.76792218064271
  C   1.89375460168665     -0.41045090856284     -0.29037237339971
  H   2.05323033004373     -1.04272677869466      0.58795374296749
  H   2.83018468427696      0.09808066656394     -0.52264005301298
  H   1.63359872353513     -1.04199028023911     -1.14023497710474
  C   -1.15808889655738     -0.98476397250068     -0.50167481668490
  H   -2.09812161803541     -1.34801826935854     -0.08696792547919
  H   -1.37051244435741     -0.50028339573933     -1.45299986745305
  H   -0.50673996886984     -1.84353602743901     -0.67259426047256
  N   -1.43103743872539      1.08632683804314      0.86310917863465
  O   -1.03474866358976      1.81666562855327      1.76838121343761
  O   -2.49853637819205      1.19772140347805      0.26921746092906
