15

C	-0.548115	0.017426	-1.407279
C	0.0	0.0	0.0
F	-1.987327	0.108458	-1.325966
H	1.092677	0.0	0.0
H	-0.341159	0.922179	0.480343
C	-0.183071	1.250468	-2.141935
N	0.032315	2.234111	-2.744228
N	-0.173029	-1.104244	-2.176812
H	-0.721236	-1.168433	-3.023831
H	-0.235477	-1.955579	-1.638653
C	-0.478702	-1.213727	0.793639
H	-0.219513	-1.068638	1.844878
H	0.04695	-2.120745	0.480522
H	-1.557842	-1.372836	0.718769
H	2.981425	0.0	0.0
