15

C	-0.52162	-0.042697	-1.41866
C	0.0	0.0	0.0
F	-0.017728	1.067748	-2.128522
H	1.092736	0.0	0.0
H	-0.329806	-0.917929	0.49822
C	-0.048994	-1.237696	-2.157045
N	0.244219	-2.188435	-2.779012
N	-1.953521	-0.048273	-1.481181
H	-2.301111	0.75055	-0.96588
H	-2.252119	0.033899	-2.446671
C	-0.474402	1.23491	0.760502
H	-1.530948	1.203527	1.051459
H	0.121911	1.324598	1.671329
H	-0.29278	2.136139	0.170474
H	2.981884	0.0	0.0
