15

C	-0.30497	-0.146804	-1.48946
C	0.0	0.0	0.0
F	-0.408742	-1.522492	-1.766495
H	1.093298	0.0	0.0
H	-0.409468	-0.849623	0.550697
C	-1.622708	0.421855	-1.875625
N	-2.658558	0.897233	-2.157606
N	0.716065	0.406039	-2.31776
H	1.607517	0.409213	-1.808777
H	0.490392	1.321917	-2.673878
C	-0.450573	1.334486	0.5798
H	-0.037281	2.163062	-0.003899
H	-1.538705	1.44581	0.614414
H	-0.056136	1.436049	1.59428
H	2.975411	0.0	0.0
