15

C	-0.294539	-0.030761	-1.496525
C	0.0	0.0	0.0
F	-0.281752	-1.370971	-1.900811
H	1.093204	0.0	0.0
H	-0.407415	-0.893342	0.479042
C	-1.65288	0.475278	-1.831189
N	-2.730756	0.891813	-2.040654
N	0.683205	0.668668	-2.280783
H	1.58958	0.570254	-1.805802
H	0.454335	1.651408	-2.354116
C	-0.463037	1.28046	0.680127
H	-0.081701	1.303123	1.703914
H	-1.552585	1.383646	0.710263
H	-0.047995	2.155426	0.171379
H	2.9748	0.0	0.0
