14

C	-0.395079	-0.01148	-1.479954
C	0.0	0.0	0.0
Br	0.203082	-1.648004	-2.319152
H	1.09837	0.0	0.0
N	-1.931529	0.048204	-1.673306
O	-2.320311	0.308023	-2.802962
O	-2.619145	-0.186819	-0.689756
C	0.157937	1.136255	-2.184176
N	0.593205	2.063211	-2.763167
C	-0.448713	-1.183146	0.727508
N	-0.750445	-2.138301	1.341022
C	-0.464396	1.231861	0.632671
N	-0.812668	2.239873	1.126015
Br	3.233461	0.0	0.0
