14

C	-0.429693	0.003272	-1.470031
C	0.0	0.0	0.0
Br	-2.361342	-0.021675	-1.68837
H	1.097618	0.0	0.0
N	0.155533	1.313809	-2.10482
O	-0.607378	2.146837	-2.563803
O	1.382891	1.302014	-2.177733
C	0.137297	-1.136048	-2.181285
N	0.590235	-2.064889	-2.743796
C	-0.471739	-1.197377	0.666087
N	-0.832375	-2.179145	1.204567
C	-0.465746	1.203757	0.666393
N	-0.806485	2.196891	1.197129
Br	2.883636	0.0	0.0
