14

C	-0.433349	0.006082	-1.47371
C	0.0	0.0	0.0
Br	-2.352875	0.008365	-1.699595
H	1.097624	0.0	0.0
N	0.178574	1.293595	-2.128105
O	-0.566571	2.146791	-2.574512
O	1.397564	1.317532	-2.078109
C	0.137877	-1.135191	-2.177312
N	0.604189	-2.06429	-2.729438
C	-0.476738	-1.19459	0.668887
N	-0.840844	-2.177527	1.208692
C	-0.466633	1.20527	0.662515
N	-0.814372	2.204253	1.183626
Br	2.738637	0.0	0.0
