14

C	-0.490196	0.015681	-1.458823
C	0.0	0.0	0.0
Br	0.334419	1.482658	-2.41357
H	1.095577	0.0	0.0
N	-0.071589	-1.285024	-2.176623
O	-0.611282	-1.480402	-3.257094
O	0.764372	-1.976953	-1.617673
C	-1.938856	0.120392	-1.565629
N	-3.110194	0.216091	-1.615951
C	-0.522743	-1.172145	0.699346
N	-0.943606	-2.113349	1.262972
C	-0.459269	1.218411	0.668294
N	-0.847816	2.182574	1.21604
Br	3.28002	0.0	0.0
