13

C	0.0	0.0	0.0
C	-0.355828	-0.032501	-1.480013
Br	1.925102	0.0	0.0
H	0.192585	-0.785086	-2.023373
H	-0.361677	0.875377	0.521062
H	-1.454858	-0.178789	-1.505501
N	-0.509513	-1.215424	0.694049
O	-0.539322	-1.160537	1.925203
O	-0.553076	-2.256402	0.020055
N	-0.092331	1.270086	-2.122352
O	0.194998	1.251204	-3.323491
O	-0.255707	2.293636	-1.461593
H	-2.342267	0.0	0.0
