13

C	0.0	0.0	0.0
C	-0.376789	0.01171	-1.471169
Br	1.925512	0.0	0.0
H	-1.481594	-0.089559	-1.449782
H	-0.380628	0.843865	0.555478
H	0.134044	-0.761369	-2.046406
N	-0.482082	-1.254663	0.65476
O	-0.564997	-2.263554	-0.054316
O	-0.520626	-1.249449	1.887121
N	-0.0716	1.31617	-2.088283
O	0.25089	1.313398	-3.279306
O	-0.239802	2.33799	-1.417262
H	-2.36495	0.0	0.0
