14

C	0.0	0.0	0.0
C	-0.526422	0.11693	-1.404794
F	1.393644	0.0	0.0
H	-0.219791	1.042264	-1.890307
H	-0.315519	-0.958547	0.413889
H	-1.621377	0.033672	-1.356691
C	-0.487007	1.14659	0.854193
H	-1.577997	1.129972	0.8875
H	-0.086498	1.043742	1.865392
H	-0.139554	2.097381	0.438972
N	-0.024637	-0.981964	-2.276823
O	0.284938	-0.687758	-3.432022
O	0.019281	-2.117109	-1.809448
Cl	-3.730776	0.0	0.0
