14

C	0.0	0.0	0.0
C	-0.185187	-0.443602	-1.463899
F	1.393865	0.0	0.0
H	0.224084	-1.447069	-1.568619
H	-0.348501	-0.765689	0.694572
H	0.398924	0.257334	-2.060929
C	-0.563427	1.34922	0.333622
H	-1.65559	1.283011	0.282265
H	-0.269359	1.636214	1.346675
H	-0.203108	2.101422	-0.371111
N	-1.524623	-0.473242	-2.105746
O	-2.065253	-1.569278	-2.211673
O	-1.935178	0.589811	-2.562421
Cl	-3.92095	0.0	0.0
