19

C	-0.13374	0.000171	-1.513512
C	0.0	0.0	0.0
Cl	-1.886828	0.001236	-2.099672
H	1.103136	0.0	0.0
N	0.456993	1.229509	-2.008538
H	1.406348	1.233545	-1.621904
H	0.535911	1.167831	-3.017449
N	0.455629	-1.228911	-2.010532
H	1.404865	-1.235392	-1.619168
H	0.539551	-1.164193	-3.021451
C	-0.534378	-1.256913	0.662181
H	-0.129631	-2.15537	0.198174
H	-1.627679	-1.298463	0.596186
H	-0.252602	-1.25621	1.720185
C	-0.533024	1.257663	0.661511
H	-1.626268	1.299931	0.59602
H	-0.127585	2.155392	0.196523
H	-0.250713	1.257543	1.719307
H	2.923496	0.0	0.0
