19

C	-0.296339	0.133712	-1.481879
C	0.0	0.0	0.0
Cl	-0.141949	-1.839551	-2.316231
H	1.096158	0.0	0.0
N	-1.609935	0.475033	-1.836544
H	-2.245873	-0.194399	-1.425236
H	-1.732804	0.441558	-2.841583
N	0.690838	0.86701	-2.088241
H	1.614096	0.636756	-1.693801
H	0.676353	0.845724	-3.097781
C	-0.552389	-1.211464	0.723493
H	-0.169192	-2.136949	0.299258
H	-0.240289	-1.158721	1.770808
H	-1.649888	-1.246529	0.707284
C	-0.429493	1.29707	0.691837
H	-0.10631	2.165842	0.116227
H	-1.515157	1.354682	0.830451
H	0.056169	1.342661	1.672138
H	2.941352	0.0	0.0
