19

C	-0.270197	0.0511	-1.481047
C	0.0	0.0	0.0
Cl	-2.164463	0.628155	-1.778664
H	1.099007	0.0	0.0
N	0.510682	1.077954	-2.061417
H	0.457585	1.0599	-3.072386
H	1.476626	0.930584	-1.741978
N	-0.156668	-1.206588	-2.115132
H	-0.817155	-1.872235	-1.738812
H	-0.309774	-1.119866	-3.112464
C	-0.491755	-1.263833	0.681002
H	-1.574168	-1.399912	0.557883
H	-0.282062	-1.198262	1.75239
H	0.037069	-2.143679	0.30595
C	-0.449241	1.255323	0.732025
H	-0.247013	2.141264	0.129664
H	0.116341	1.338216	1.66553
H	-1.518936	1.227402	0.961429
H	2.905762	0.0	0.0
