19

C	-0.15985	-0.017628	-1.513555
C	0.0	0.0	0.0
Cl	-1.955366	-0.075257	-2.000328
H	1.10253	0.0	0.0
N	0.376111	1.160878	-2.177435
H	1.34137	1.223778	-1.839772
H	-0.116374	1.988608	-1.860035
N	0.484648	-1.193429	-2.020725
H	0.638241	-1.042449	-3.01234
H	1.401789	-1.22506	-1.562764
C	-0.529364	-1.247803	0.68665
H	-0.217185	-2.148417	0.158124
H	-0.138573	-1.294678	1.708752
H	-1.624418	-1.238654	0.731818
C	-0.505102	1.264378	0.670955
H	-0.326774	1.195778	1.748504
H	0.027078	2.152265	0.320768
H	-1.580403	1.406449	0.510996
H	2.914362	0.0	0.0
