19

C	-0.320894	0.119708	-1.499491
C	0.0	0.0	0.0
Cl	-0.209737	-1.62453	-2.259206
H	1.097261	0.0	0.0
N	-1.651173	0.539837	-1.91062
H	-1.80471	1.456	-1.49986
H	-2.33272	-0.107128	-1.528933
N	0.620611	0.992471	-2.062763
H	1.561151	0.778052	-1.718111
H	0.568147	0.983096	-3.071775
C	-0.552943	-1.213742	0.722732
H	-0.367791	-1.106758	1.797942
H	-0.068207	-2.130122	0.388036
H	-1.638449	-1.322948	0.579833
C	-0.429908	1.286383	0.705774
H	0.091598	1.344627	1.66235
H	-0.143388	2.164135	0.125577
H	-1.507861	1.318242	0.901625
H	2.973866	0.0	0.0
