19

C	-0.558725	0.021665	-1.417721
C	0.0	0.0	0.0
Cl	0.185155	1.365751	-2.372413
H	1.094419	0.0	0.0
N	-0.195607	-1.188793	-2.136148
H	-0.491781	-1.107941	-3.103431
H	-0.679599	-1.973011	-1.713658
N	-1.990019	0.338026	-1.392706
H	-2.447438	-0.369593	-0.825631
H	-2.35431	0.263415	-2.338059
C	-0.370521	-1.295506	0.727284
H	-1.452822	-1.475217	0.808708
H	0.112744	-2.157621	0.261497
H	0.027303	-1.234958	1.743795
C	-0.444211	1.21258	0.811008
H	-1.501916	1.173609	1.091823
H	-0.27583	2.135614	0.253764
H	0.167121	1.258662	1.717312
H	3.021898	0.0	0.0
