19

C	-0.343695	0.091667	-1.492398
C	0.0	0.0	0.0
Cl	-0.057363	-1.611004	-2.250879
H	1.09578	0.0	0.0
N	-1.680214	0.513863	-1.747817
H	-1.830386	0.498812	-2.750297
H	-2.332851	-0.128289	-1.311496
N	0.549434	0.945401	-2.228653
H	1.497939	0.726031	-1.918108
H	0.353422	1.894998	-1.930209
C	-0.536359	-1.200604	0.76416
H	-1.635129	-1.231159	0.786897
H	-0.171869	-2.137146	0.347018
H	-0.189089	-1.141951	1.799232
C	-0.413703	1.292075	0.707666
H	0.046522	1.304272	1.699877
H	-1.499851	1.383368	0.815402
H	-0.050546	2.177298	0.181998
H	2.992327	0.0	0.0
