14

C	-0.431389	0.046326	-1.467011
C	0.0	0.0	0.0
F	-0.200086	-1.200358	-2.035484
H	1.093961	0.0	0.0
H	-0.318155	0.921659	0.49767
C	-1.881668	0.308939	-1.594564
N	-3.02486	0.554603	-1.69788
C	0.384439	1.074925	-2.226226
H	0.132592	1.035015	-3.287838
H	0.182212	2.07775	-1.845657
H	1.442085	0.845645	-2.074024
C	-0.558269	-1.145031	0.705081
N	-1.036589	-2.051499	1.276877
Br	3.503175	0.0	0.0
