14

C	-0.431945	0.039715	-1.46607
C	0.0	0.0	0.0
F	-0.15253	-1.194506	-2.042999
H	1.093888	0.0	0.0
H	-0.320688	0.922172	0.49489
C	-1.891411	0.246072	-1.593637
N	-3.045345	0.439755	-1.693167
C	0.343709	1.105321	-2.21539
H	0.098829	1.057775	-3.27767
H	1.408825	0.919127	-2.060423
H	0.096202	2.097957	-1.832715
C	-0.55435	-1.145517	0.70665
N	-1.028448	-2.054663	1.277082
Br	3.513574	0.0	0.0
