14

C	-0.535808	0.027451	-1.434177
C	0.0	0.0	0.0
F	-0.036468	1.148464	-2.077945
H	1.093349	0.0	0.0
H	-0.320154	-0.928552	0.483452
C	-0.063303	-1.171439	-2.157654
N	0.206782	-2.150156	-2.748172
C	-2.05231	0.09397	-1.517468
H	-2.503261	-0.777391	-1.038433
H	-2.395267	0.999869	-1.015744
H	-2.360797	0.125842	-2.563859
C	-0.518262	1.131954	0.759863
N	-0.982011	2.028217	1.359442
Br	3.472735	0.0	0.0
