14

C	-0.42229	0.045948	-1.471758
C	0.0	0.0	0.0
F	-0.082132	-1.185709	-2.024509
H	1.093958	0.0	0.0
H	-0.363023	-0.926377	0.452224
C	-1.888384	0.176232	-1.618254
N	-3.050098	0.281001	-1.751655
C	0.313259	1.133423	-2.227246
H	0.034519	2.11757	-1.845811
H	0.069844	1.074717	-3.289843
H	1.384128	0.980155	-2.07191
C	-0.506171	1.153434	0.730766
N	-0.916319	2.095381	1.299384
Br	3.495438	0.0	0.0
