14

C	-0.54346	-0.015087	-1.42898
C	0.0	0.0	0.0
F	-0.049363	1.118208	-2.063518
H	1.093111	0.0	0.0
H	-0.322766	0.941098	0.458218
C	-0.076266	-1.198425	-2.177803
N	0.194109	-2.15227	-2.806318
C	-2.061058	0.050889	-1.495131
H	-2.379873	0.117897	-2.536856
H	-2.507893	-0.8329	-1.037643
H	-2.396522	0.942911	-0.961182
C	-0.529184	-1.117521	0.770378
N	-0.989953	-2.019361	1.365184
Br	3.473815	0.0	0.0
