14

C	-0.43084	0.050973	-1.466463
C	0.0	0.0	0.0
F	-0.184243	-1.190543	-2.042899
H	1.09393	0.0	0.0
H	-0.31885	0.91979	0.500752
C	-1.884291	0.296719	-1.592528
N	-3.031819	0.52615	-1.691175
C	0.372918	1.093562	-2.219673
H	0.156891	2.092615	-1.834086
H	1.433197	0.875955	-2.068775
H	0.122768	1.055677	-3.281363
C	-0.559302	-1.147392	0.70026
N	-1.044448	-2.053396	1.266275
Br	3.503526	0.0	0.0
