14

C	-0.542267	-0.03021	-1.429061
C	0.0	0.0	0.0
F	-0.051832	1.098828	-2.074112
H	1.093064	0.0	0.0
H	-0.324042	0.945385	0.448045
C	-0.070217	-1.218979	-2.166229
N	0.202254	-2.177729	-2.786261
C	-2.059903	0.030346	-1.49582
H	-2.398999	0.925311	-0.969062
H	-2.503628	-0.851324	-1.031453
H	-2.378331	0.087797	-2.538179
C	-0.52891	-1.110101	0.781133
N	-0.990175	-2.003439	1.387854
Br	3.477553	0.0	0.0
