14

C	0.0	0.0	0.0
C	-0.44562	-0.087654	-1.454362
Br	1.919318	0.0	0.0
H	0.084124	-0.899591	-1.949288
H	-0.381831	0.869937	0.514322
N	-0.425305	-1.218821	0.757999
O	-0.565822	-1.085724	1.965725
O	-0.508897	-2.266689	0.128333
N	0.024193	1.164086	-2.150047
O	0.520876	1.029372	-3.265177
O	-0.14843	2.233215	-1.570408
C	-1.903898	-0.213483	-1.729311
N	-2.652695	-0.367655	-2.638143
F	-2.402809	0.0	0.0
