14

C	0.0	0.0	0.0
C	-0.51339	0.04461	-1.443329
Br	1.916592	0.0	0.0
H	0.33868	0.107348	-2.136785
H	-0.34587	0.861705	0.548162
N	-0.39752	-1.203976	0.79897
O	-0.557446	-1.01409	1.997007
O	-0.393497	-2.291013	0.23446
N	-1.214258	1.371048	-1.675089
O	-2.036024	1.415333	-2.577644
O	-0.785675	2.336139	-1.053294
C	-1.372236	-1.041149	-1.897581
N	-1.899408	-1.902579	-2.49873
F	-2.295159	0.0	0.0
