14

C	0.0	0.0	0.0
C	-0.451298	-0.192487	-1.44292
Br	1.916993	0.0	0.0
H	0.068357	-1.043981	-1.880797
H	-0.380273	0.904998	0.450985
N	-0.425007	-1.15929	0.84748
O	-0.563464	-0.935118	2.041767
O	-0.51211	-2.251227	0.298256
N	0.026769	1.000929	-2.22821
O	-0.154894	2.11127	-1.735336
O	0.540206	0.781161	-3.322333
C	-1.913109	-0.327257	-1.704922
N	-2.655297	-0.549418	-2.604348
F	-2.414013	0.0	0.0
