19

C	-0.431586	-0.08699	-1.466482
C	0.0	0.0	0.0
F	-1.792699	-0.314016	-1.544284
H	1.093429	0.0	0.0
N	-0.225224	1.283004	-2.092918
O	-1.204546	2.015489	-2.21915
O	0.929381	1.572294	-2.38507
C	0.308097	-1.108497	-2.291487
H	1.382122	-0.980259	-2.14971
H	0.048755	-1.002109	-3.347647
H	0.013061	-2.104525	-1.959775
C	-0.475086	-1.235078	0.75724
H	-1.566911	-1.280267	0.794365
H	-0.09302	-2.158622	0.317097
H	-0.091962	-1.158977	1.77491
N	-0.47252	1.200372	0.679099
H	-1.401799	1.451088	0.361406
H	0.155567	1.969868	0.482803
Br	3.608386	0.0	0.0
