19

C	-0.442911	-0.042256	-1.46147
C	0.0	0.0	0.0
F	-1.698927	-0.585768	-1.589333
H	1.097344	0.0	0.0
N	-0.562133	1.379695	-1.989281
O	0.432234	2.082372	-1.842736
O	-1.599211	1.711602	-2.550079
C	0.526206	-0.771767	-2.359907
H	0.180639	-0.723728	-3.395537
H	0.575879	-1.817169	-2.050972
H	1.523036	-0.34018	-2.254303
C	-0.466718	-1.260744	0.713835
H	-0.190287	-2.163709	0.167033
H	-1.551019	-1.245493	0.846788
H	0.020671	-1.309802	1.690919
N	-0.571405	1.17878	0.66521
H	-0.625596	0.982289	1.657707
H	0.092284	1.939241	0.562453
Br	3.641306	0.0	0.0
