19

C	-0.448901	-0.138719	-1.451435
C	0.0	0.0	0.0
F	-1.738082	-0.614066	-1.524791
H	1.099	0.0	0.0
N	-0.485179	1.238003	-2.092067
O	0.543811	1.896959	-1.980809
O	-1.497094	1.574436	-2.695987
C	0.466153	-0.997256	-2.287526
H	1.492922	-0.63633	-2.195639
H	0.136179	-0.984281	-3.329381
H	0.426679	-2.024763	-1.92109
C	-0.473351	-1.200016	0.806321
H	0.0351	-1.192401	1.773152
H	-1.55424	-1.154231	0.959838
H	-0.229514	-2.143575	0.317507
N	-0.553383	1.235152	0.573752
H	0.160053	1.952025	0.49895
H	-0.70926	1.087648	1.562548
Br	3.643052	0.0	0.0
