19

C	-0.36823	0.018893	-1.479065
C	0.0	0.0	0.0
F	0.169975	-1.0842	-2.080857
H	1.096533	0.0	0.0
N	-1.882231	-0.154315	-1.616612
O	-2.573146	0.772523	-1.193856
O	-2.318389	-1.198184	-2.090336
C	0.067257	1.25693	-2.212896
H	-0.166851	1.154901	-3.275535
H	1.147967	1.341442	-2.078756
H	-0.419102	2.13024	-1.788265
C	-0.502972	-1.264009	0.687563
H	-0.218173	-2.159225	0.13194
H	-0.058066	-1.326018	1.683251
H	-1.594514	-1.249589	0.796298
N	-0.392442	1.250682	0.64117
H	-1.340354	1.193993	0.992497
H	0.238172	1.41541	1.415079
Br	3.580212	0.0	0.0
