19

C	-0.326583	0.011908	-1.502697
C	0.0	0.0	0.0
F	0.211454	-1.101334	-2.083266
H	1.096883	0.0	0.0
N	-1.831534	-0.129552	-1.685017
O	-2.285473	-1.195471	-2.084557
O	-2.509	0.84857	-1.35738
C	0.16228	1.231936	-2.238797
H	-0.347934	2.127885	-1.891344
H	1.235898	1.311435	-2.04897
H	-0.011939	1.106851	-3.310352
C	-0.533751	-1.255631	0.66855
H	-1.624164	-1.214618	0.77484
H	-0.267303	-2.151514	0.106195
H	-0.096951	-1.319494	1.66533
N	-0.417654	1.185607	0.732773
H	0.230908	1.942977	0.557105
H	-1.350679	1.475313	0.463727
Br	3.588937	0.0	0.0
