18

C	0.0	0.0	0.0
C	-0.407617	-0.308486	-1.456473
F	1.414571	0.0	0.0
H	0.392434	-0.904848	-1.910893
N	-0.508486	1.254605	0.409341
H	-0.54466	1.342218	1.413944
H	0.010241	2.015773	-0.00586
C	-0.460813	-1.094453	0.936346
H	-0.012099	-0.91353	1.918146
H	-0.134807	-2.067851	0.570692
H	-1.548538	-1.084921	1.01194
N	-0.299042	1.00678	-2.302452
O	0.693269	1.718153	-2.138414
O	-1.171171	1.207453	-3.140198
N	-1.651098	-0.939026	-1.553299
H	-1.936266	-1.059299	-2.514849
H	-2.4145	-0.476794	-1.040326
Cl	-4.333006	0.0	0.0
