18

C	0.0	0.0	0.0
C	-0.411899	-0.102379	-1.482047
F	1.407143	0.0	0.0
H	-1.501908	-0.190827	-1.505035
N	-0.471465	1.218155	0.569744
H	-1.464622	1.086166	0.766103
H	-0.404633	1.94395	-0.136467
C	-0.439724	-1.178385	0.837749
H	-0.177364	-0.953825	1.873398
H	-1.518254	-1.31391	0.75243
H	0.077966	-2.085633	0.527641
N	0.128148	-1.402711	-2.071691
O	-0.524221	-2.426586	-1.881974
O	1.193782	-1.353585	-2.690239
N	0.056619	1.034109	-2.205976
H	-0.372434	1.075613	-3.119725
H	1.060326	0.968127	-2.313494
Cl	-3.678063	0.0	0.0
