18

C	0.0	0.0	0.0
C	-0.581462	-0.107088	-1.432739
F	1.397654	0.0	0.0
H	-1.406409	-0.826068	-1.396929
N	-0.461742	1.213018	0.559654
H	-0.152321	1.999674	0.005774
H	-0.178024	1.293888	1.525526
C	-0.429105	-1.178126	0.848409
H	-0.068876	-2.104468	0.399169
H	0.01151	-1.079215	1.845884
H	-1.517909	-1.179876	0.918025
N	0.449954	-0.735644	-2.323715
O	0.719948	-1.91128	-2.085683
O	0.9511	-0.068978	-3.225587
N	-0.98178	1.182356	-1.943886
H	-1.148465	1.098375	-2.939444
H	-1.881951	1.346508	-1.489054
Cl	-3.793488	0.0	0.0
