13

C	-0.183098	0.100812	-1.491419
C	0.0	0.0	0.0
Br	-2.029474	0.012084	-2.141673
H	1.097114	0.0	0.0
H	0.235382	1.038106	-1.848299
N	0.58495	-0.975667	-2.212588
O	0.540819	-2.107236	-1.756022
O	1.168488	-0.622102	-3.231445
C	-0.572418	-1.166244	0.638605
N	-1.040307	-2.084191	1.204401
C	-0.456044	1.223084	0.630004
N	-0.791175	2.234694	1.127212
F	2.418623	0.0	0.0
