13

C	-0.499165	-0.064962	-1.437961
C	0.0	0.0	0.0
Br	0.472235	-1.386416	-2.463138
H	1.095625	0.0	0.0
H	-1.555752	-0.305756	-1.541651
N	-0.339072	1.270292	-2.117357
O	-1.298221	1.636703	-2.79865
O	0.710311	1.875754	-1.95497
C	-0.439468	-1.194963	0.700022
N	-0.774576	-2.175852	1.255903
C	-0.511634	1.188694	0.660009
N	-0.924264	2.155584	1.188276
F	2.424285	0.0	0.0
