13

C	-0.484906	-0.016456	-1.442192
C	0.0	0.0	0.0
Br	0.301436	-1.476253	-2.443876
H	1.095371	0.0	0.0
H	-1.565725	-0.085844	-1.57509
N	-0.106049	1.274327	-2.136419
O	-0.941382	1.701227	-2.936264
O	0.979622	1.773659	-1.88259
C	-0.493037	-1.178032	0.684054
N	-0.886869	-2.134981	1.24289
C	-0.489451	1.202751	0.651647
N	-0.897847	2.180802	1.162016
F	2.426251	0.0	0.0
