13

C	-0.203418	0.119909	-1.488178
C	0.0	0.0	0.0
Br	-2.060076	0.097921	-2.104605
H	1.09711	0.0	0.0
H	0.24136	1.046269	-1.843267
N	0.512445	-0.975071	-2.234632
O	0.423011	-2.110564	-1.792809
O	1.097635	-0.633979	-3.257497
C	-0.578019	-1.164346	0.635862
N	-1.055178	-2.083307	1.192464
C	-0.438462	1.221599	0.645707
N	-0.765488	2.226022	1.16254
F	2.417991	0.0	0.0
