13

C	-0.232163	0.029697	-1.492375
C	0.0	0.0	0.0
Br	0.224145	1.736923	-2.265204
H	1.097892	0.0	0.0
H	0.396672	-0.720497	-1.969557
N	-1.651392	-0.281894	-1.910807
O	-2.560094	0.179742	-1.230067
O	-1.782174	-0.981932	-2.914101
C	-0.439197	-1.277784	0.529661
N	-0.761624	-2.335847	0.929866
C	-0.534342	1.119463	0.745933
N	-0.90578	2.037409	1.379758
F	2.431303	0.0	0.0
