13

C	-0.495284	-0.035285	-1.438862
C	0.0	0.0	0.0
Br	0.429716	-1.388639	-2.470621
H	1.095466	0.0	0.0
H	-1.560929	-0.232861	-1.547677
N	-0.278779	1.296904	-2.115786
O	0.749615	1.909157	-1.870012
O	-1.172858	1.650654	-2.88555
C	-0.449294	-1.203024	0.680368
N	-0.795897	-2.187036	1.224327
C	-0.510491	1.18015	0.677606
N	-0.921438	2.135745	1.228204
F	2.42568	0.0	0.0
