13

C	-0.229705	0.039218	-1.492736
C	0.0	0.0	0.0
Br	0.215024	1.753941	-2.253053
H	1.097901	0.0	0.0
H	0.405006	-0.704043	-1.974145
N	-1.64652	-0.275708	-1.915714
O	-1.773875	-0.952819	-2.936895
O	-2.557165	0.162063	-1.221883
C	-0.438843	-1.281721	0.51933
N	-0.762772	-2.34167	0.911806
C	-0.538672	1.113137	0.751966
N	-0.909413	2.027423	1.391412
F	2.432072	0.0	0.0
