13

C	-0.500678	-0.050463	-1.437705
C	0.0	0.0	0.0
Br	0.459593	-1.3716	-2.473425
H	1.095419	0.0	0.0
H	-1.559179	-0.281288	-1.541429
N	-0.332557	1.287763	-2.110041
O	-1.279404	1.651264	-2.809009
O	0.710665	1.896153	-1.926434
C	-0.438854	-1.201998	0.688973
N	-0.774696	-2.186677	1.237469
C	-0.511372	1.181657	0.673089
N	-0.924188	2.141635	1.213326
F	2.425158	0.0	0.0
