17
Coordinates from ORCA-job run
  C   -0.77408553195778      0.10552180619146     -0.43111978052447
  C   0.75069802715354      0.12729811800395     -0.22567208643261
  F   -0.99291052971155      0.91157239539174     -1.54812096369813
  H   1.18973820795210     -0.19456837576599     -1.17156070222894
  C   -1.48437020314499      0.72545691244546      0.69953726612070
  N   -2.07917454352856      1.22011051790843      1.58291530928282
  C   -1.32286526952252     -1.27647804127935     -0.72382837049241
  H   -1.26543784203271     -1.91571105422309      0.15793331525913
  H   -2.36769943200513     -1.18512539898468     -1.02269829508302
  H   -0.75394467447701     -1.73222726951418     -1.53563306001452
  N   1.10186941242121     -0.94606239787429      0.75603973255697
  O   1.61185292321817     -1.97161431373018      0.30767827962820
  O   0.82344187645483     -0.73445068028994      1.93476830888480
  C   1.28928370857893      1.46712027353790      0.22665154536653
  H   0.90487732403162      1.72494073551914      1.21333777232634
  H   2.37981108369781      1.44074195322923      0.26729824415400
  H   0.98691546287204      2.23347481943437     -0.48852651510540
