17
Coordinates from ORCA-job run
  C   -0.66401384076799     -0.05585806496669     -0.73486715607509
  C   0.77972097486528      0.24241642008591     -0.28624640530641
  F   -0.64356034183777     -0.54030067216197     -2.03382899310892
  H   1.27557280986999      0.73144711017554     -1.13188648070321
  C   -1.38020802206079      1.23575916936172     -0.79063887880714
  N   -1.96276714525159      2.25454933280362     -0.83550507375500
  C   -1.43181895727882     -1.02806146349561      0.14358067368693
  H   -0.94471497652847     -2.00111920066463      0.12850615678754
  H   -2.44163329559345     -1.13480561677329     -0.25434839064603
  H   -1.49970987588323     -0.65827471831136      1.16790738155402
  N   1.56584967447320     -1.04263448305537     -0.09587083194292
  O   2.50582644767601     -1.00359279145379      0.69280553819281
  O   1.25270796558471     -2.01309081708884     -0.77777605708713
  C   0.87508375606583      1.09359743706607      0.96737890406477
  H   1.91745940938189      1.30729710903909      1.19139515454277
  H   0.34976831214064      2.03768264538403      0.82303848717362
  H   0.44643710514455      0.57598860405560      1.82735597142948
