17
Coordinates from ORCA-job run
  C   -0.69573108887788     -0.05656424384686     -0.68901790985168
  C   0.76565235118946      0.25300107685948     -0.31510320660558
  F   -0.74974860255457     -0.52081795574604     -2.00089022228592
  H   1.24567706918170      0.67784602414149     -1.20519731849648
  C   -1.45175186121989      1.21392538509656     -0.68688484332605
  N   -2.07552306840848      2.20632743286501     -0.76834506108910
  C   -1.35115940816515     -1.10173017384907      0.19674213993903
  H   -0.93361629466791     -2.06418108307464     -0.09018955937271
  H   -2.42696786744380     -1.13150985624690      0.02587739072611
  H   -1.16657271830352     -0.91658533223752      1.25388672571754
  N   1.50796398570444     -1.04118572164981     -0.06906175496704
  O   1.39768280532516     -1.91241305762534     -0.92431811379170
  O   2.19289194715466     -1.13248129771730      0.94686100483542
  C   0.90576940229406      1.19932175789628      0.86432575746764
  H   1.95403833145885      1.31692377607573      1.13171721217822
  H   0.50951188930460      2.17597645658825      0.58547425348033
  H   0.37488312802827      0.83414681247068      1.74512350544196
