17
Coordinates from ORCA-job run
  C   -0.64903964151190     -0.28187385278960     -0.47878799966354
  C   0.61386538829560      0.39296792835452      0.08049498661935
  F   -0.39515415773918     -1.63787062365982     -0.62929880158701
  H   0.43536147584558      1.46940106873998      0.12337562307864
  C   -0.98067164558638      0.26055694243834     -1.80942342916410
  N   -1.30414283433960      0.69576691472016     -2.85098105883673
  C   -1.84010099487310     -0.12214703028472      0.45032169282304
  H   -2.71775817794377     -0.57294463056989     -0.01420923857127
  H   -1.64211534497223     -0.63702957347284      1.39032456273373
  H   -2.04524948179675      0.93247406156048      0.64373273720445
  N   1.71408565258303      0.23323498268755     -0.93365461763394
  O   2.38039021937253     -0.79651739475314     -0.88411185231057
  O   1.84481154284059      1.14522895739220     -1.74854647252286
  C   1.05779273750294     -0.17087846050657      1.41558674964931
  H   2.04461567510528      0.21785515657677      1.67071155274400
  H   0.36481748080233      0.12866612573246      2.20267297919391
  H   1.11749210641503     -1.25689057216587      1.37179258624358
