17
Coordinates from ORCA-job run
  C   -0.76178794048386      0.14537575261082     -0.44082322183423
  C   0.75869235427005      0.10036782980694     -0.20992382749954
  F   -0.92820468606881      0.98298336769203     -1.54361257891921
  H   1.20043664017217     -0.22171724007947     -1.15447750530358
  C   -1.46562517944776      0.77003144025819      0.69112398289986
  N   -2.05340707518994      1.27023798695122      1.57604669245897
  C   -1.36101974820348     -1.20642003112743     -0.77284282075975
  H   -0.80023805801095     -1.66455018205567     -1.58926419723588
  H   -1.33960948639794     -1.86829041473285      0.09388793478001
  H   -2.39774247027312     -1.06669487933763     -1.08173439598994
  N   1.04914132309691     -1.00449274991090      0.75659710520663
  O   0.76259977894812     -0.80258026342545      1.93508639340731
  O   1.52185439812875     -2.04258466084495      0.29636847111186
  C   1.34358858440910      1.40846124529931      0.27668665864066
  H   0.95407053614693      1.66290800272351      1.26224642480567
  H   2.43147653201843      1.33695827840247      0.33333448209891
  H   1.08377449688542      2.20000651776987     -0.42769959786776
