17

C	-0.362395	-0.016655	-1.466092
C	0.0	0.0	0.0
Cl	-2.17936	0.040169	-1.721433
H	1.098611	0.0	0.0
H	-0.078819	-0.997697	-1.848239
C	0.299741	1.084649	-2.26424
H	0.1461	0.941312	-3.336807
H	1.370691	1.050126	-2.031895
H	-0.092741	2.066209	-1.991286
N	-0.422516	-1.250683	0.63368
H	0.280134	-1.490339	1.325339
H	-1.306474	-1.119241	1.11347
C	-0.449415	1.246095	0.750691
H	-0.043459	1.20426	1.765609
H	-1.541903	1.313422	0.809558
H	-0.067249	2.160235	0.288618
H	2.961738	0.0	0.0
