17

C	-0.28333	0.029438	-1.490563
C	0.0	0.0	0.0
Cl	-2.084313	-0.037085	-1.858687
H	1.099035	0.0	0.0
H	0.098875	-0.902727	-1.914226
C	0.3394	1.207943	-2.204974
H	0.253139	1.103703	-3.289599
H	-0.13444	2.145848	-1.910488
H	1.39713	1.227963	-1.916277
N	-0.427702	-1.236323	0.656394
H	-1.294066	-1.568955	0.24659
H	0.290807	-1.934417	0.494683
C	-0.514167	1.205818	0.763414
H	-0.183336	1.110317	1.79892
H	-1.608459	1.255651	0.751765
H	-0.11182	2.14065	0.364922
H	2.962442	0.0	0.0
