18
Coordinates from ORCA-job run
  C   -0.64778911941466     -0.06215110974780      0.59506574851706
  C   0.46109772407239     -0.64671989634129     -0.28313868789337
  H   -0.71190020114468     -0.65682598146793      1.50789453827684
  H   0.05516424335704     -1.55119967901601     -0.74605429799002
  C   -1.98878288624038      0.01775694078703     -0.10215183455377
  H   -1.93619232788731      0.59458299098506     -1.02449022660321
  H   -2.33092664283933     -0.99442405464281     -0.32970002093272
  H   -2.72623095794972      0.49125519172024      0.54640772988300
  N   -0.17928808764619      1.29297177669071      1.04701818252881
  O   -0.72640440690466      2.28993213188355      0.58302008824579
  O   0.77465569678268      1.29148544397954      1.82283056803921
  N   1.56286093965550     -1.18168382517514      0.60989578745631
  O   2.70769260130407     -0.78354138135840      0.42771407579107
  O   1.21491883743764     -2.01312358235224      1.44302408536715
  C   1.01335611336046      0.30152205069601     -1.32549298451967
  H   1.72623222470691     -0.21441437929372     -1.96776794340336
  H   1.52976365108499      1.14061724463759     -0.86031561811665
  H   0.20077259826526      0.68396011801562     -1.94575919009248
