18
Coordinates from ORCA-job run
  C   0.69118038502216      0.20638778530722      0.43663422683339
  C   -0.72835541484164     -0.35844129042077      0.34453191798548
  H   0.71001383463835      0.87701026870001      1.30096445062203
  H   -0.84111796000387     -1.12931950639741      1.10875598978688
  C   1.17854225047283      0.90868988354934     -0.81232768681191
  H   0.47546862828289      1.69481271620657     -1.09335750834306
  H   1.28032679625383      0.21035831808891     -1.64245930764278
  H   2.15332863793010      1.36228520701668     -0.63642184429244
  N   1.63612047630820     -0.90668844120517      0.84376213465546
  O   1.35464611398025     -1.48740467741585      1.88779161528400
  O   2.61376107075019     -1.13016456751947      0.13904752340493
  N   -0.82304013388603     -1.09260106182484     -0.96395841047761
  O   -0.14503570961312     -2.11497101330709     -1.04739444147969
  O   -1.50793417683882     -0.60947772998382     -1.86177641521867
  C   -1.80562375729129      0.69747355231461      0.46825129240098
  H   -2.79176228514740      0.25056024917734      0.33996249603272
  H   -1.69559980555408      1.48306457750788     -0.27803460014445
  H   -1.75591895046252      1.13942573020585      1.46602856740475
