18
Coordinates from ORCA-job run
  C   0.65409613404562      0.39011101552914      0.07110715835929
  C   -0.65220443842691     -0.38951672604043     -0.07036665319723
  H   0.44183432726025      1.45899022110366      0.10840684298725
  H   -0.44001159158923     -1.45846233511139     -0.10726177390548
  C   1.68186152446180      0.05196768698883     -0.99221865502923
  H   2.62343074106391      0.56461138159296     -0.78523155002842
  H   1.32702803213790      0.38380006285561     -1.96958174231899
  H   1.86352011051261     -1.02293010046983     -1.02390803680045
  N   1.20149818840994      0.04399983865746      1.42130236912955
  O   1.49740519939660     -1.13460729908310      1.61041702808140
  O   1.30199114541613      0.95164623017270      2.24394421449401
  N   -1.20102777288874     -0.04505490176351     -1.42080937162802
  O   -1.48576968281585      1.13540154926436     -1.61534223797991
  O   -1.31744206665558     -0.95674730748402     -2.23675657646705
  C   -1.68150584986593     -0.05088186327748      0.99143395902307
  H   -1.86562709864640      1.02370983453109      1.01934936078900
  H   -1.32671896302925     -0.37810772633297      1.97038174790006
  H   -2.62135793878686     -0.56692956113308      0.78513391659114
