17

C	0.0	0.0	0.0
C	-0.400082	0.009932	-1.494574
Br	1.962919	0.0	0.0
H	0.089097	-0.820792	-2.018502
C	-0.464935	1.202032	0.654938
N	-0.785584	2.219749	1.185382
C	-0.40637	-1.280274	0.799563
H	0.051872	-1.251723	1.788627
H	-0.10688	-2.170709	0.249549
H	-1.49578	-1.344596	0.9429
N	-0.16601	1.252693	-2.122934
H	-0.80177	1.946831	-1.741405
H	-0.323002	1.180249	-3.118156
N	-1.908028	-0.360364	-1.393257
O	-2.13804	-1.567627	-1.667925
O	-2.824486	0.595938	-1.579955
H	-1.5659	0.0	0.0
