17

C	0.0	0.0	0.0
C	-0.5604	0.035253	-1.430971
Br	1.962988	0.0	0.0
H	-1.663745	0.142307	-1.231457
C	-0.377377	1.174671	0.791976
N	-0.585564	2.063675	1.533339
C	-0.493838	-1.254411	0.703464
H	-0.166607	-1.253332	1.7447
H	-0.102404	-2.143833	0.206552
H	-1.595397	-1.196401	0.643265
N	-0.280607	-1.09671	-2.24767
H	0.684418	-1.395429	-2.167595
H	-0.912115	-1.84894	-2.011025
N	-0.065485	1.269688	-2.124778
O	0.815738	1.145687	-2.975908
O	-0.561312	2.339489	-1.770537
H	-3.063759	0.0	0.0
