16
Coordinates from ORCA-job run
  C   -0.65666818434594     -0.20895313451963     -0.02159724008755
  C   0.79219195589411     -0.66406441765623      0.12284202809181
  Cl  -1.09555689296604     -0.36955110346521     -1.82856474088426
  H   0.85568538854356     -1.69539048040130     -0.24101288239384
  H   0.98881632064959     -0.69180618640753      1.20011134224861
  N   -1.48825309882893     -1.03908975996617      0.78007087166482
  H   -2.46545437345935     -0.80006533276727      0.66230713264142
  H   -1.36637724477601     -2.01583149674972      0.54057469539375
  C   -0.88311589771913      1.24633089535955      0.33732454598856
  H   -0.56412071739319      1.40857606138771      1.37009510344863
  H   -0.33145193729961      1.91108938476491     -0.32511125131276
  H   -1.94374638148304      1.49428786256622      0.25538252209523
  C   1.83292498247999      0.19605622651211     -0.58100679646799
  H   2.82185516924801     -0.25550126392431     -0.47506376191741
  H   1.61762298913887      0.28783954839849     -1.64633057095230
  H   1.88464792231711      1.19807319686839     -0.15102099755672
