16
Coordinates from ORCA-job run
  C   -0.64824466996228     -0.27744830623749     -0.15104183399877
  C   0.80464255126399     -0.68544972006466      0.07273548886854
  Cl  -1.02059190948823     -0.39976174225151     -1.91830822577399
  H   0.95283407418564     -0.74411767391553      1.15946119854836
  H   0.90990104153397     -1.70131156371884     -0.31556157550001
  N   -1.49028360300399     -1.26313233082120      0.50123794453916
  H   -1.29955012640309     -1.24956399759775      1.49787239606907
  H   -2.46774701028660     -1.02930050663278      0.36434024189833
  C   -0.93654160059227      1.16035783731279      0.26184226646545
  H   -0.36377216492679      1.88073312903417     -0.32298029943409
  H   -0.68676492361174      1.28688320625759      1.32060244007645
  H   -1.99770060919749      1.38056675622939      0.12690654069197
  C   1.85322134355214      0.23828592192302     -0.53336120963857
  H   2.84908979236518     -0.19051520928770     -0.40192147205586
  H   1.68652970851160      0.37247299469214     -1.60333419730662
  H   1.85497810605995      1.22130120507837     -0.05848970344942
