16
Coordinates from ORCA-job run
  C   -0.72276715280332     -0.19846509562141     -0.29886020923193
  C   0.69178149740190     -0.31950304251921     -0.85936216987920
  Cl  -1.85931328266225     -0.56856986256277     -1.65461124521943
  H   0.80573822695953      0.41426367193849     -1.66290695302112
  H   0.77329227097910     -1.31206292512480     -1.30860841877508
  N   -0.93788521012425     -1.23169909557416      0.70162109134985
  H   -1.91893357087181     -1.25446303177504      0.95838957483952
  H   -0.41163798241412     -0.99336536395354      1.53583828922809
  C   -1.05741787005535      1.21077136944338      0.17692833760204
  H   -0.90480366948152      1.94660558687552     -0.61547728877967
  H   -0.42540994035104      1.47519628523466      1.02915738067904
  H   -2.10010305469944      1.26005026809121      0.49741911503112
  C   1.79353231463010     -0.13741273141504      0.18193502273319
  H   2.77142297945932     -0.21826109782960     -0.29786452630419
  H   1.75048493397238     -0.91401620949374      0.94862315988501
  H   1.75201951006076      0.83993127428606      0.66777883986278
