13
Coordinates from ORCA-job run
  C   0.46203888949864      0.26679276227197      0.33048121790977
  C   -0.30779317448542     -0.54574680026618     -0.70747485903348
  Br  0.28253404037722     -0.69288721839378      2.09554835766681
  H   -0.34962754521402      0.02744803848879     -1.63606196591635
  H   0.18174110297122     -1.50548124879049     -0.86551211386484
  N   1.80356786507501      0.37524017685287     -0.12101372989843
  H   2.34993150679436      0.99761175075649      0.46136050325908
  H   2.25585282241673     -0.53021590821831     -0.16454225065971
  C   -0.07740580638917      1.60872715132370      0.54492303875479
  N   -0.41571251845580      2.72232562921134      0.70665318514363
  N   -1.71166524505202     -0.83871619280731     -0.30562796866547
  O   -2.40336215103667      0.12482657674198      0.00820073890787
  O   -2.06909978650007     -2.01192471717108     -0.34793415360369
