13
Coordinates from ORCA-job run
  C   0.47562321300944      0.19329997619334      0.51317636447827
  C   -0.57209380088481     -0.86215331464503      0.16892241490800
  Br  1.40349345407128     -0.58998182049801      2.15586987020001
  H   -0.09118978538693     -1.81925460709531     -0.02575624480561
  H   -1.31488153665277     -0.94640886229913      0.95983889646950
  N   1.32051433334629      0.43200157162570     -0.58046054636498
  H   1.74456098213526     -0.40958848005846     -0.94932072710254
  H   2.01435102011738      1.14718650824436     -0.40932329855374
  C   -0.10953045352175      1.44645102139787      0.98630233366595
  N   -0.55065107830145      2.46467494797556      1.37296365166678
  N   -1.27275535623802     -0.45763790456711     -1.08749034887389
  O   -0.94537039260956     -1.04107076545646     -2.11752491334402
  O   -2.10107059908436      0.44248172918266     -0.98719745234372
