13
Coordinates from ORCA-job run
  C   0.45040032815804      0.17516168359786      0.54057058372791
  C   -0.57946200016501     -0.86715991665398      0.11218424985356
  Br  1.30444949858773     -0.66707382384063      2.19512880613893
  H   -1.35905972801765     -0.97629810193459      0.86370916474116
  H   -0.08969151470145     -1.81799145238727     -0.09088490984161
  N   1.34385851044457      0.45202515308961     -0.50447602051282
  H   2.02687216285494      1.16179992376179     -0.27658895038420
  H   1.78847191690669     -0.37636733651420     -0.87942995168864
  C   -0.15701841906765      1.41011450390594      1.03229056246460
  N   -0.62004619002494      2.41265823405592      1.43435877296944
  N   -1.21920475723738     -0.41916865840697     -1.16201923543506
  O   -2.04799556995825      0.48106351070817     -1.07072571995573
  O   -0.84357423777964     -0.96876371938168     -2.19411735207754
