13
Coordinates from ORCA-job run
  C   0.44926627729405      0.19966865809742      0.53415048455667
  C   -0.56252394484557     -0.87354760725130      0.14100312446490
  Br  1.32102776057585     -0.57485844554404      2.21176164332664
  H   -0.05606517009408     -1.82097097639006     -0.03518739713549
  H   -1.33717248083864     -0.97436442327402      0.89874417960744
  N   1.33530130958398      0.46023741001879     -0.52118103412415
  H   1.79074391077454     -0.37098434515745     -0.87589421696512
  H   2.00745640730376      1.18726035821516     -0.31666996839674
  C   -0.17908983065787      1.43898812053247      0.98766233731661
  N   -0.65516425955864      2.44869374228795      1.35471896133408
  N   -1.21599569981506     -0.47688836312244     -1.14303593509894
  O   -2.06589536153172      0.40591085522097     -1.07499633205114
  O   -0.83288891819059     -1.04914498363343     -2.16007584683475
