13
Coordinates from ORCA-job run
  C   0.45944902503354      0.24364588402689      0.47695156292508
  C   -0.27343164598741     -0.56804087903027     -0.59946821682645
  Br  0.04914789919273     -0.57574370671726      2.21644870841361
  H   0.12490433310420     -1.58117460656244     -0.62401763314270
  H   -0.14429313193712     -0.07427273480957     -1.56648999585164
  N   1.89007653858922      0.22369501663438      0.30840644237745
  H   2.23913544810766     -0.72390472918045      0.22875317657916
  H   2.17186341769778      0.77625261054180     -0.49335979386024
  C   0.03023310390314      1.64276859459179      0.51190972853714
  N   -0.22907213753573      2.78867658847648      0.50057214536233
  N   -1.74263534876051     -0.68984994717045     -0.37134975811151
  O   -2.20854009118745     -1.82474665372243     -0.33144024582087
  O   -2.36683741022004      0.36069456292154     -0.25591612058136
