13
Coordinates from ORCA-job run
  C   0.53740180182389      0.06547699533015      0.56220754240344
  C   -0.49889878381213     -0.92417650990432      0.04153726130574
  Br  1.34223684734160     -0.82306811448043      2.12211433423307
  H   -1.20861413796783     -1.21130706402582      0.81595067975088
  H   0.01389419019324     -1.80665503749086     -0.34440907605463
  N   1.58551373476077      0.28018478829412     -0.40013463939107
  H   2.32538520324997      0.84295481795676      0.00357838166651
  H   1.19404020625580      0.77031156665579     -1.19773795198062
  C   -0.11119968825598      1.28420610857249      1.07201908576459
  N   -0.60161207946007      2.28444477421905      1.44898727645696
  N   -1.32151713504493     -0.37838920928195     -1.09037668618822
  O   -0.94648558106190      0.65213584742148     -1.64753522188265
  O   -2.31014457802240     -1.03611896326645     -1.38620098608400
