13
Coordinates from ORCA-job run
  C   0.39417585926049      0.21395412704595      0.54406861313141
  C   -0.98250075642115     -0.00751350489911     -0.09338386311919
  Br  0.64518972453841     -0.97568418540957      2.08761408384109
  H   -1.75783993657976     -0.06481826935439      0.66783531002342
  H   -1.18599408754076      0.79654833310495     -0.80240203254073
  N   1.43029375169986     -0.06817033278517     -0.40385167248673
  H   2.34316813807259      0.16950167495519     -0.03722118449586
  H   1.26895381350912      0.40902656522319     -1.28410362276918
  C   0.39993092874246      1.58341392327218      1.08769224516941
  N   0.42757665123963      2.70138851749802      1.45308879061728
  N   -0.99628286159993     -1.27428924983563     -0.87721358637061
  O   -0.70140610644190     -1.17991831282257     -2.06701581697152
  O   -1.28526511847901     -2.30343928599306     -0.27610726402880
