13
Coordinates from ORCA-job run
  C   0.53742627628502      0.04699433642501      0.56456423964955
  C   -0.64084890517524     -0.82094060229522      0.13697472194057
  Br  1.17776798056807     -0.76298374531942      2.23897158962202
  H   -1.39343222370591     -0.89610551913552      0.92043682121890
  H   -0.27376143792350     -1.81369250694456     -0.12833373945798
  N   1.61329104197013     -0.02548029665438     -0.38850150513622
  H   2.43187171896005      0.45533597192811     -0.03379616532588
  H   1.31226515596334      0.42219935209655     -1.24790819253823
  C   0.08881914746677      1.40553739325924      0.90952160074348
  N   -0.24589928872407      2.50610105928888      1.15405787022735
  N   -1.35615525871967     -0.29222148956068     -1.07322097507011
  O   -2.43534239098596     -0.81559121969064     -1.31610919535682
  O   -0.81600181597904      0.59084726660265     -1.73765707051661
