13
Coordinates from ORCA-job run
  C   0.42076654037207      0.36753377350086      0.39487108734153
  C   -0.95670274914389     -0.07380755726460     -0.10261035212308
  Br  1.03859649373378     -1.07591894738659      1.69551321911441
  H   -1.66942373326630     -0.12539622127797      0.71651279584024
  H   -1.28930115894758      0.62710292066184     -0.87271481864246
  N   1.31983924689643      0.64852363564200     -0.64737558476372
  H   1.41868127580346     -0.13718664146663     -1.27759143592276
  H   2.21762441840355      0.96994095036904     -0.31032489504234
  C   0.23721401967619      1.55225527083984      1.23403848976330
  N   0.08064240809097      2.52326203979153      1.87717725159629
  N   -0.93614943579275     -1.42695845292980     -0.73425199589104
  O   -0.06144986949245     -1.64270954578049     -1.57170192171287
  O   -1.81933745633351     -2.20764122469908     -0.40254183955752
