13
Coordinates from ORCA-job run
  C   0.52546964475163      0.14879210880310      0.62395733407917
  C   -0.52424295185187     -0.86300827702278      0.12159372758856
  Br  1.22344561237129     -0.65561157457454      2.28109209018631
  H   -1.28790665429605     -1.05478446758461      0.87224085979620
  H   -0.02382903322274     -1.78169087150487     -0.18593072132227
  N   1.64243229450907      0.43011888667506     -0.22951183838094
  H   2.12752951196077     -0.42731661116212     -0.46852423122682
  H   1.32408394447969      0.87339550454102     -1.08487833949532
  C   -0.14257955216384      1.40469723840419      0.97621461920236
  N   -0.70521034049640      2.40730762158888      1.21964704625330
  N   -1.21962911147426     -0.30732118940461     -1.07719574279646
  O   -0.54920606038190     -0.20897792426215     -2.10564265373805
  O   -2.39135730418537      0.03439955550348     -0.94306215014600
