13
Coordinates from ORCA-job run
  C   0.45961842771382      0.30130783212492      0.49912661454124
  C   -0.90430516543565     -0.04990678928652     -0.13250929785564
  Br  0.80355115487657     -1.06257252288088      1.89312603172964
  H   -1.70743464945763     -0.00320991075236      0.60008895678288
  H   -1.09222702068530      0.63336823312018     -0.96503509185899
  N   1.59702316707369      0.38854625527245     -0.35930105342438
  H   1.62270158225942      1.27382591632760     -0.85011237746299
  H   1.61149976731482     -0.38429100902408     -1.01282403298905
  C   0.27586905096262      1.58097801317485      1.18720038172001
  N   0.10773481389169      2.63474852560835      1.67944702698891
  N   -0.92082553111161     -1.42892857249739     -0.69894028924848
  O   -1.81348209211465     -2.18044489721367     -0.32514151927067
  O   -0.04172350528779     -1.70442107397343     -1.51512534965250
