13
Coordinates from ORCA-job run
  C   0.45225981669973      0.18710935159476      0.53573456938807
  C   -0.58461034021254     -0.85974016594589      0.13682655881999
  Br  1.29920748446726     -0.61275483827983      2.21411251051859
  H   -0.10041481400989     -1.81825444094546     -0.04207276186687
  H   -1.36365263781165     -0.94434200043465      0.89199936007811
  N   1.34822606085391      0.42740471665902     -0.51630011368778
  H   1.78485392427065     -0.41479108601235     -0.86900162937376
  H   2.03826382384233      1.13633689993807     -0.30705086887765
  C   -0.14606069820924      1.44091139600377      0.98983785981955
  N   -0.59808838822890      2.46107298203973      1.35838065878409
  N   -1.22486888422612     -0.44282100011736     -1.14781908413492
  O   -2.05361432236598      0.45980631249993     -1.07853194420415
  O   -0.85250102506955     -1.01993812699974     -2.16611511526327
