13
Coordinates from ORCA-job run
  C   0.44750258921398      0.30110152937796      0.45561507851013
  C   -0.29353532214396     -0.66195301608154     -0.48123530056221
  Br  -0.19564636159879     -0.03927761508315      2.28194051802444
  H   -0.02893700586017     -0.42589460287942     -1.51562420163368
  H   -0.02381410939688     -1.68796576676611     -0.23569733373845
  N   1.87345693806150      0.09599865820422      0.44619730389176
  H   2.28247937493961      0.41112713439801     -0.42613475009569
  H   2.10773118660417     -0.87421927701340      0.61918936510853
  C   0.19291091192450      1.70538396615185      0.12993306924406
  N   0.07901053348268      2.83688419855659     -0.16561206798964
  N   -1.78013050142555     -0.57556623215656     -0.38742060063698
  O   -2.27623113957212      0.53150504066612     -0.57393718296831
  O   -2.38479709422896     -1.61612401737458     -0.14621389715395
