13
Coordinates from ORCA-job run
  C   0.44740489918080      0.18836431720846      0.40870662309444
  C   -0.37498862740501     -0.75006878162207     -0.47182863583409
  Br  -0.11624821994416     -0.03477920555706      2.26793569399642
  H   -0.10563504200350     -0.59640030284109     -1.52049203189579
  H   -0.18414755737129     -1.77417397380522     -0.16115945173877
  N   1.82478392292925     -0.25449213957232      0.31009298076201
  H   2.39750240868430      0.24936197910749      0.97852709333814
  H   2.17605845003083     -0.04677371416005     -0.62101108879064
  C   0.27291372821818      1.60729649621497      0.06874342212525
  N   0.27137896542789      2.74640259252451     -0.22447325915049
  N   -1.84033624621432     -0.50585197760387     -0.36692756782955
  O   -2.23621615067492      0.60720055947033     -0.70264084047246
  O   -2.53347053085811     -1.43608584936410      0.03452706239561
