13
Coordinates from ORCA-job run
  C   0.48344561810215      0.27398781974867      0.29360298546199
  C   -0.37100578886732     -0.69715988784590     -0.51669655536784
  Br  -0.08936361469188      0.11123206273785      2.22103459416060
  H   -0.18402095076799     -0.52255857355724     -1.57841811201261
  H   -0.12722467730684     -1.72283650588219     -0.24416820987733
  N   1.84349845079837     -0.07058072096316      0.07695508871479
  H   2.05311404604229     -0.99671699264516      0.42995452835975
  H   2.47525263090458      0.60085530471049      0.49535071288868
  C   0.28429454720140      1.67632760282421     -0.06897898823582
  N   0.22184446579484      2.81145272781077     -0.36611696629373
  N   -1.83375631409555     -0.52839672260807     -0.29265234815480
  O   -2.28446019477280      0.60258085891129     -0.44365904940848
  O   -2.47161821834120     -1.53718697324149     -0.00720768023520
