13
Coordinates from ORCA-job run
  C   0.53302067749033      0.15110097592968      0.61327543469865
  C   -0.52140588502532     -0.88307235781963      0.18063722051526
  Br  1.34155027932721     -0.65657315896656      2.24045645258745
  H   -0.02887799354706     -1.82421737140219     -0.06074827188927
  H   -1.28918401176384     -1.01473341533999      0.94051439371932
  N   1.55987402670613      0.43812172062095     -0.33022767048121
  H   1.86149698869396     -0.38956869052962     -0.82776073366168
  H   1.29009407055279      1.16183541478596     -0.98352115947611
  C   -0.10929674020470      1.39932919595552      1.02622515635042
  N   -0.60901253081709      2.42153549782365      1.31977859563233
  N   -1.18682894772189     -0.39975479967625     -1.06316164219439
  O   -2.22770616060829      0.24043246218877     -0.93083484773773
  O   -0.61272377308223     -0.64343547357034     -2.12463292806305
