13
Coordinates from ORCA-job run
  C   0.38697844926313      0.39879425519884      0.39859031014726
  C   -0.94330940573153     -0.19080641828260     -0.07292493946568
  Br  1.24104874790091     -1.02074085694751      1.58825262766960
  H   -1.60742290819354     -0.37698702960236      0.76725183667042
  H   -1.39562846070334      0.50074106059776     -0.78857104554490
  N   1.19598066004691      0.84937200035758     -0.65763372034314
  H   1.36641912049033      0.11794122114202     -1.33621560632817
  H   2.05969533894970      1.26543572817299     -0.33532760762201
  C   0.09141474129242      1.50167626772938      1.31386105858735
  N   -0.16934638632776      2.40157812294632      2.02321043695098
  N   -0.77629441006655     -1.49456653686420     -0.78100192149393
  O   0.07949310938672     -1.54850770943568     -1.66289298793919
  O   -1.52902859630740     -2.40393010501251     -0.45559844128858
