13
Coordinates from ORCA-job run
  C   0.38337385922883      0.21532191167995      0.55278143750276
  C   -0.97833688931728     -0.02588271750545     -0.10935536398223
  Br  0.63414890381407     -0.98688695434378      2.08636944165011
  H   -1.18579638037821      0.78223737678192     -0.81256918927850
  H   -1.76462667131106     -0.10658263864179      0.63841626440469
  N   1.43962113817304     -0.03491193193388     -0.38185201705307
  H   1.28338315049397      0.45072252016112     -1.25846455091474
  H   2.34196737115498      0.21489791663470      0.00244871828874
  C   0.35060835670881      1.57816288967518      1.11170097856199
  N   0.33242772807226      2.69214795803864      1.48941762028975
  N   -0.95540893392860     -1.28382297112208     -0.90705770471265
  O   -0.64530554516223     -1.17041752737591     -2.09135621878715
  O   -1.23305608754861     -2.32498583204857     -0.32147941596962
