13
Coordinates from ORCA-job run
  C   0.44488075963861      0.35677814868154      0.47550508691375
  C   -0.88832740081273     -0.21195256647304     -0.05552258351913
  Br  1.17208517669120     -0.98961863872445      1.73252582944214
  H   -1.60877125730427     -0.35584202636063      0.74707724261476
  H   -1.28000150340024      0.46657574945907     -0.81804460159647
  N   1.45505480914787      0.70305433960623     -0.47198173692292
  H   1.26579984004485      1.59966971599012     -0.90285154435688
  H   1.54768030871129     -0.01901130151598     -1.17527666617711
  C   0.10030429167117      1.53997818567406      1.26689207423320
  N   -0.20778766960243      2.51085824094346      1.85302703172725
  N   -0.70968575557940     -1.53776249981992     -0.71363838905220
  O   0.12086419860742     -1.60020514536138     -1.61979456246215
  O   -1.41109579781330     -2.46152220209908     -0.31891718084431
