13
Coordinates from ORCA-job run
  C   0.46995055009505      0.32850419047553      0.41141873159905
  C   -0.32974369770421     -0.69579403026687     -0.40453558501392
  Br  -0.13329540459224      0.19766887698551      2.27790611955851
  H   -0.08622001411686     -0.57504786786225     -1.46366067986639
  H   -0.08795648645891     -1.70081011502695     -0.06220158013381
  N   1.88730197381279      0.07057946283981      0.38872391917519
  H   2.28275831734686      0.28083575358801     -0.52067524279235
  H   2.09261948608731     -0.88520698944718      0.65421866978540
  C   0.25556766269713      1.70140853159275     -0.04924450171583
  N   0.17321446149250      2.80062144228254     -0.45595723802691
  N   -1.80904442549517     -0.54540895243877     -0.28352094478106
  O   -2.44211346062960     -1.53278909328256      0.07835173981607
  O   -2.27203896253464      0.55443879056039     -0.57082340760388
