13
Coordinates from ORCA-job run
  C   0.44797729070619      0.32693063957659      0.49596344807187
  C   -0.89347551367748     -0.17106229630521     -0.08318135736202
  Br  1.08285841538302     -1.07605512733592      1.73915099999104
  H   -1.23494471410628      0.54053659012477     -0.83978334226315
  H   -1.64140810344242     -0.30071305593758      0.69634484891974
  N   1.49795985076187      0.64995577720384     -0.41676025730430
  H   1.58206518720223     -0.06372604224732     -1.12979787805323
  H   1.35279529528842      1.55957547414073     -0.83779107018685
  C   0.13162865779149      1.50653844741824      1.30437791519563
  N   -0.16448185457633      2.47390906920094      1.90236062972292
  N   -0.75407455675865     -1.48869305119539     -0.76681994386491
  O   0.09705349427565     -1.56799453074745     -1.65214554361675
  O   -1.50494142320945     -2.38921211508143     -0.41089225607005
