13
Coordinates from ORCA-job run
  C   0.47914236134130      0.30993682632894      0.26187689166199
  C   -0.36448770209988     -0.75985508440737     -0.42671854151287
  Br  -0.12300308393189      0.40363488856695      2.18470209607490
  H   -0.16150862963957     -0.72543129322247     -1.49919230918256
  H   -0.12657737937622     -1.74072191120090     -0.01804883893577
  N   1.84190772703399     -0.05970073973120      0.11334545451805
  H   2.04378626187703     -0.93197075834185      0.58745289945942
  H   2.46802985183096      0.66043199690269      0.45169836588261
  C   0.28792547982730      1.65210096689236     -0.28571231000976
  N   0.23298005674252      2.73937992458004     -0.72788063957735
  N   -1.82978655247198     -0.56240463387122     -0.24807326144935
  O   -2.27658377097422      0.53563517813653     -0.56426882011098
  O   -2.47282462015936     -1.52003536063247      0.17081901318170
