16

C	0.0	0.0	0.0
C	-0.489602	0.03211	-1.477989
Cl	1.765391	0.0	0.0
H	0.286045	-0.499815	-2.038799
H	-0.374236	0.813161	0.618009
N	-0.400588	-1.265738	0.705815
O	-0.780979	-1.16071	1.866607
O	-0.265526	-2.313906	0.080804
C	-0.523048	1.494294	-1.909385
H	-0.685367	1.540147	-2.987396
H	0.399102	2.025197	-1.660159
H	-1.365034	1.992274	-1.420429
N	-1.745748	-0.5857	-1.79002
H	-1.712907	-1.580447	-1.614912
H	-2.543339	-0.2098	-1.268501
Cl	-4.335716	0.0	0.0
