16

C	0.0	0.0	0.0
C	-0.447808	-0.116973	-1.509999
Cl	1.770081	0.0	0.0
H	0.458955	-0.422546	-2.039635
H	-0.377907	0.875519	0.521329
N	-0.390516	-1.176106	0.852136
O	-0.8325	-0.928336	1.968225
O	-0.184337	-2.295804	0.390071
C	-0.840696	1.286228	-1.957563
H	-0.994347	1.282461	-3.037958
H	-1.779462	1.560988	-1.471735
H	-0.066535	2.020685	-1.71205
N	-1.478895	-1.048574	-1.875027
H	-1.207674	-1.985345	-1.607132
H	-2.351679	-0.811788	-1.397308
Cl	-3.819984	0.0	0.0
