16

C	0.0	0.0	0.0
C	-0.530778	-0.409461	-1.36727
Cl	1.765248	0.0	0.0
H	-0.159675	0.409073	-2.013256
H	-0.32826	1.012827	0.217546
N	-0.467017	-0.805906	1.187387
O	-0.743425	-1.986278	1.036289
O	-0.506661	-0.180763	2.244725
C	-2.050033	-0.365171	-1.385581
H	-2.446185	0.612075	-1.108512
H	-2.512934	-1.086482	-0.713328
H	-2.418384	-0.579818	-2.396962
N	-0.030938	-1.709357	-1.795078
H	-0.522466	-1.971746	-2.638467
H	0.954782	-1.658758	-2.006802
Cl	-5.148938	0.0	0.0
