16

C	0.0	0.0	0.0
C	-0.530357	-0.179693	-1.44816
Cl	1.769985	0.0	0.0
H	0.231929	-0.780723	-1.954976
H	-0.369	0.888376	0.508662
N	-0.404447	-1.161708	0.86867
O	-0.138478	-2.284471	0.450271
O	-0.955981	-0.895393	1.930116
C	-0.602969	1.202917	-2.083506
H	-1.40476	1.774929	-1.611311
H	0.336587	1.751282	-1.983973
H	-0.846586	1.094865	-3.140742
N	-1.788139	-0.849614	-1.605123
H	-1.740721	-1.801481	-1.268768
H	-2.5804	-0.395198	-1.139549
Cl	-4.438518	0.0	0.0
