16

C	0.0	0.0	0.0
C	-0.630755	0.059412	-1.384804
Cl	1.765495	0.0	0.0
H	-1.688179	-0.178767	-1.195888
H	-0.331688	0.85593	0.580485
N	-0.400145	-1.211226	0.808773
O	-0.486945	-2.291999	0.232955
O	-0.544697	-1.031303	2.013067
C	-0.039938	-0.880765	-2.420857
H	-0.053004	-1.912781	-2.080588
H	0.990803	-0.605181	-2.665368
H	-0.629065	-0.799179	-3.337521
N	-0.555088	1.466928	-1.792018
H	0.111807	1.576427	-2.543639
H	-1.465867	1.766688	-2.109077
Cl	-3.739268	0.0	0.0
