16

C	0.0	0.0	0.0
C	-0.608163	-0.075773	-1.405871
Cl	1.763953	0.0	0.0
H	-1.659662	-0.319881	-1.221974
H	-0.336909	0.90305	0.504916
N	-0.42069	-1.114895	0.924279
O	-0.486451	-2.249962	0.466834
O	-0.624524	-0.788434	2.089123
C	0.028174	-1.096444	-2.332673
H	1.047455	-0.815835	-2.599913
H	0.040573	-2.084109	-1.88035
H	-0.561135	-1.12751	-3.247789
N	-0.592471	1.236266	-2.036709
H	0.328442	1.656704	-1.960903
H	-1.265094	1.831188	-1.567836
Cl	-3.656116	0.0	0.0
