16

C	0.0	0.0	0.0
C	-0.531574	-0.093752	-1.467598
Cl	1.764873	0.0	0.0
H	0.301197	-0.51639	-2.039197
H	-0.360795	0.861914	0.557798
N	-0.39245	-1.200268	0.820543
O	-0.913703	-0.981948	1.909507
O	-0.13418	-2.30465	0.348343
C	-0.806726	1.332147	-1.928145
H	0.043611	1.994722	-1.743113
H	-1.684825	1.710713	-1.39825
H	-1.031686	1.326194	-2.995629
N	-1.687413	-0.906109	-1.715891
H	-1.519692	-1.862444	-1.435778
H	-2.525072	-0.568227	-1.230476
Cl	-4.247052	0.0	0.0
