15

C	-0.567977	0.067658	-1.410633
C	0.0	0.0	0.0
Cl	0.20681	1.328007	-2.374471
H	1.094339	0.0	0.0
H	-1.641833	0.254563	-1.411778
N	-0.417161	-1.245994	-2.138624
O	0.687782	-1.766314	-2.147861
O	-1.441998	-1.681548	-2.666254
C	-0.508375	-1.211336	0.640269
N	-0.975389	-2.155032	1.161942
C	-0.428834	1.232512	0.805718
H	-1.518297	1.329367	0.856706
H	-0.001507	2.128025	0.353636
H	-0.030856	1.150393	1.818221
Br	3.452075	0.0	0.0
