15

C	-0.370489	0.030706	-1.474254
C	0.0	0.0	0.0
Cl	0.020141	-1.463678	-2.310503
H	1.096196	0.0	0.0
H	0.152463	0.850571	-1.963461
N	-1.840342	0.336777	-1.639705
O	-2.112536	1.496671	-1.953589
O	-2.64923	-0.547927	-1.384866
C	-0.505137	-1.185394	0.681857
N	-0.893513	-2.115788	1.284518
C	-0.442905	1.278813	0.717265
H	-1.52925	1.35117	0.810036
H	0.000127	1.287434	1.714004
H	-0.070383	2.151448	0.176749
Br	3.415294	0.0	0.0
