15

C	-0.483086	-0.097177	-1.444515
C	0.0	0.0	0.0
F	-1.851897	-0.527266	-1.397704
H	1.092302	0.0	0.0
H	-0.326457	-0.901933	0.524977
N	-0.386391	1.151871	-2.10543
H	-0.720658	1.073162	-3.056754
H	-0.915894	1.864186	-1.619416
C	0.288386	-1.164995	-2.185526
H	0.128724	-2.133231	-1.708478
H	-0.062144	-1.227855	-3.220093
H	1.352404	-0.925817	-2.1584
C	-0.547095	1.165112	0.682183
N	-0.989498	2.124225	1.195296
Br	3.562447	0.0	0.0
