15

C	-0.400862	-0.025787	-1.476014
C	0.0	0.0	0.0
F	-0.160438	1.280143	-1.982618
H	1.094395	0.0	0.0
H	-0.317399	-0.933137	0.473626
N	0.42155	-0.988972	-2.115428
H	1.398873	-0.830119	-1.873841
H	0.310897	-0.931501	-3.12015
C	-1.871678	-0.285899	-1.726236
H	-2.147425	-1.270387	-1.345837
H	-2.073653	-0.251143	-2.800487
H	-2.475485	0.481301	-1.238404
C	-0.569535	1.129083	0.717575
N	-1.075754	2.014282	1.29904
Br	3.542277	0.0	0.0
