15

C	-0.417451	0.155051	-1.473187
C	0.0	0.0	0.0
F	-0.22936	1.498233	-1.798816
H	1.092074	0.0	0.0
H	-0.304192	-0.993413	0.348038
N	0.436979	-0.599112	-2.353324
H	0.253824	-1.58863	-2.234544
H	1.406801	-0.439392	-2.077918
C	-1.876168	-0.161228	-1.728312
H	-2.095685	-1.20608	-1.491376
H	-2.094902	0.021731	-2.781488
H	-2.507874	0.479779	-1.110416
C	-0.581082	1.005268	0.875968
N	-1.100591	1.797515	1.569793
Br	3.532881	0.0	0.0
