17

C	0.0	0.0	0.0
C	-0.150943	-0.021867	-1.587379
F	1.390814	0.0	0.0
H	0.544156	-0.790496	-1.929089
N	-0.511911	1.125486	0.674833
H	-1.527686	1.010451	0.742059
H	-0.312258	1.983803	0.173487
C	-0.483846	-1.283725	0.624365
H	-1.572674	-1.328834	0.576658
H	-0.159064	-1.279283	1.666932
H	-0.051769	-2.142442	0.109587
C	0.263952	1.270508	-2.121201
N	0.62454	2.328006	-2.483348
N	-1.461235	-0.431749	-2.207733
O	-1.696544	-1.632885	-2.148243
O	-2.123627	0.420837	-2.781626
Cl	-3.667877	0.0	0.0
