17

C	0.0	0.0	0.0
C	-0.260879	-0.128711	-1.532021
F	1.409758	0.0	0.0
H	0.001323	0.840468	-1.949668
N	-0.468154	1.278848	0.385974
H	-0.872206	1.326153	1.307011
H	0.218183	2.001672	0.229271
C	-0.571557	-1.119714	0.816728
H	-0.177613	-2.075537	0.475449
H	-1.661822	-1.090514	0.698058
H	-0.31453	-0.964375	1.867824
C	-1.54978	-0.529152	-2.090604
N	-2.356594	-0.862413	-2.882059
N	0.733528	-1.0838	-2.159271
O	0.698429	-2.259793	-1.813048
O	1.496909	-0.606963	-2.995407
Cl	-3.776182	0.0	0.0
