17

C	0.0	0.0	0.0
C	-0.45866	-0.618002	-1.337767
F	1.407875	0.0	0.0
H	-1.55496	-0.573215	-1.368505
N	-0.435878	1.361137	0.034665
H	-0.230204	1.733028	0.958337
H	-1.45673	1.347543	-0.057056
C	-0.425627	-0.878405	1.161511
H	0.047283	-1.86037	1.10329
H	-0.103226	-0.389844	2.089495
H	-1.511996	-0.969024	1.16035
C	0.045773	-1.977128	-1.483717
N	0.438655	-3.079264	-1.573731
N	0.080611	0.213687	-2.476992
O	-0.633625	1.118685	-2.885986
O	1.202549	-0.079657	-2.89042
Cl	-3.564675	0.0	0.0
