17

C	0.0	0.0	0.0
C	-0.499672	0.140379	-1.45061
F	1.391625	0.0	0.0
H	-1.599973	0.146498	-1.412418
N	-0.443749	1.162192	0.709651
H	-1.464161	1.188873	0.639582
H	-0.213361	1.040673	1.690584
C	-0.425553	-1.340006	0.572453
H	0.012245	-2.165675	0.006683
H	-1.514088	-1.404021	0.570219
H	-0.0593	-1.395034	1.601678
C	0.006078	-0.92226	-2.308464
N	0.375664	-1.790381	-3.00707
N	-0.053842	1.463879	-2.012209
O	-0.877468	2.370443	-2.005666
O	1.10407	1.539514	-2.415593
Cl	-3.593255	0.0	0.0
