17

C	0.0	0.0	0.0
C	-0.277603	0.276663	-1.542864
F	1.381893	0.0	0.0
H	0.637793	0.760754	-1.891719
N	-0.484374	1.035224	0.843555
H	-1.502854	0.928334	0.89266
H	-0.282416	1.949193	0.452297
C	-0.484424	-1.349632	0.464985
H	0.029905	-2.139711	-0.083069
H	-0.241658	-1.433541	1.525487
H	-1.564758	-1.416578	0.331129
C	-1.379403	1.160761	-1.907221
N	-2.017498	2.044831	-2.345514
N	-0.323644	-1.000891	-2.333655
O	0.762473	-1.564052	-2.476181
O	-1.403344	-1.40651	-2.744706
Cl	-3.574115	0.0	0.0
