17

C	0.0	0.0	0.0
C	-0.384799	-0.144494	-1.521674
F	1.38278	0.0	0.0
H	-0.582331	0.853997	-1.919471
N	-0.496843	1.260511	0.453519
H	-0.378547	1.294351	1.460222
H	-1.511088	1.223842	0.297054
C	-0.396393	-1.228271	0.800014
H	-1.481017	-1.304644	0.850789
H	0.027352	-2.125963	0.338921
H	0.014062	-1.128206	1.809045
C	-1.430909	-1.091963	-1.898779
N	-2.058936	-1.940751	-2.420896
N	0.860346	-0.637518	-2.245713
O	1.506495	0.187392	-2.8845
O	1.14157	-1.826654	-2.117542
Cl	-3.516864	0.0	0.0
