17

C	0.0	0.0	0.0
C	-0.501338	0.018002	-1.457058
F	1.388357	0.0	0.0
H	-1.601345	0.023803	-1.418603
N	-0.449652	1.214679	0.610174
H	-0.224656	1.174139	1.598686
H	-1.469847	1.233523	0.533595
C	-0.422618	-1.289709	0.681721
H	0.018973	-2.157687	0.186523
H	-1.511025	-1.357128	0.685283
H	-0.055594	-1.257381	1.711761
C	0.009508	-1.109741	-2.224083
N	0.396902	-2.034289	-2.834968
N	-0.059803	1.29237	-2.12554
O	1.099254	1.34015	-2.529274
O	-0.887153	2.1931	-2.196373
Cl	-3.588286	0.0	0.0
