15
Coordinates from ORCA-job run
  C   -0.50431414913286     -0.20176384599082     -0.05377727803350
  C   0.82437968140608      0.50880520457046     -0.32039152441420
  Cl  -1.11705887367464     -0.72424354473049     -1.70746247670532
  H   0.65852326928035      1.33622733908607     -1.02319221312067
  H   1.14936986021574      0.93180819912154      0.63688581109658
  N   -0.36507148217687     -1.36761459045949      0.75865656437772
  H   0.55530168720641     -1.76648174343370      0.60854831936880
  H   -0.49883642618041     -1.14416923799339      1.73560945955275
  C   -1.54410724731425      0.73832200469281      0.51982874266480
  H   -2.48528300398625      0.20490618780753      0.65945899418795
  H   -1.71622975844761      1.58410166530208     -0.14624876099952
  H   -1.20163623419486      1.11750923436902      1.48835700055972
  N   1.83104320893769     -0.45546392669378     -0.74850302154775
  H   1.66019389388938     -0.71758299920429     -1.71164480361245
  H   2.75372557417210     -0.04435994644356     -0.69712481337491
