15
Coordinates from ORCA-job run
  C   -0.42063915853017     -0.37037512575648     -0.13203898192601
  C   1.07324687297678     -0.11503954350214     -0.29918195896705
  Cl  -1.18128810012082     -0.27001391303242     -1.77213226252485
  H   1.53240034933027     -0.25754584501438      0.68676571203714
  H   1.45760320620662     -0.90002961023673     -0.96263219901934
  N   -0.58536045358469     -1.74494232774285      0.30517454050781
  H   -0.21423109994423     -1.82965735327537      1.24659025038619
  H   -1.57246059320499     -1.97506096435997      0.34213928763501
  C   -1.09603225519625      0.66954168294561      0.74579211688024
  H   -2.16512918766873      0.46011354519120      0.82371009804732
  H   -0.94580082858316      1.67328239629777      0.35270540365688
  H   -0.65596849413607      0.62310378560036      1.74753882542027
  N   1.34337828732683      1.24988926329775     -0.73005361447648
  H   2.33326863823107      1.44285083026244     -0.64750549047297
  H   1.09701281689754      1.34488317932522     -1.70787172718415
