15
Coordinates from ORCA-job run
  C   -0.56149650868363     -0.35023438217667     -0.28641102349868
  C   0.76900092887867      0.11900590608726     -0.87400578429409
  Cl  -1.66026307667050     -0.66806848035233     -1.69096538362429
  H   1.13594626899405     -0.68687412106481     -1.51232077036473
  H   0.58859823307627      0.99687928096646     -1.50544421898206
  N   -0.32732435915324     -1.59520679446698      0.39499919935270
  H   0.47076452108680     -1.44908606510055      1.00545551055189
  H   -1.13226691750546     -1.85751579761794      0.95134160092040
  C   -1.22302544016708      0.72737267647886      0.56145268047740
  H   -1.38532161036189      1.64598059101619     -0.00757039494680
  H   -0.58664897640466      0.94050329629051      1.42457656743670
  H   -2.19183470783598      0.37854323193863      0.92580904273459
  N   1.72409900782072      0.34973241690162      0.21124692281991
  H   1.71749193408000      1.32048235104739      0.49469287553101
  H   2.66228070284594      0.12748589005236     -0.09185682411395
