15
Coordinates from ORCA-job run
  C   -0.55936826736616     -0.35209526877913     -0.28923420853525
  C   0.76780206151236      0.13018320292109     -0.87364342181968
  Cl  -1.65652512558930     -0.66352878687779     -1.69646855658462
  H   1.13991768973377     -0.66805356272571     -1.51852868435815
  H   0.58164176203908      1.01182226444560     -1.49825930937666
  N   -0.31746118668501     -1.60094067443646      0.38164848505536
  H   -1.11691550275968     -1.86894000534448      0.94307156735125
  H   0.48571389150808     -1.45855284846861      0.98619285621728
  C   -1.22733309467283      0.71410262640464      0.56815812234295
  H   -0.59340164234159      0.92278711781799      1.43415451090574
  H   -1.39443624648644      1.63701370169663      0.00758955988026
  H   -2.19446640699556      0.35639560502750      0.92832709492298
  N   1.72274666357754      0.35758064933488      0.21256690159166
  H   1.69840599496552      1.32268871485867      0.51401482745616
  H   2.66367940956023      0.16053726412516     -0.09958974504928
