15
Coordinates from ORCA-job run
  C   -0.39827642136143     -0.39273804411117     -0.13883813777530
  C   1.09364355478607     -0.08923522906272     -0.22061733399541
  Cl  -1.04925567392701     -0.40752860917288     -1.82844722793699
  H   1.48887367038802     -0.16017264525540      0.80017895201382
  H   1.54998945889930     -0.89322737133036     -0.81177999452981
  N   -0.54401557236282     -1.74758968046654      0.36108428389715
  H   -1.52388983188260     -2.00935018971655      0.35726033365592
  H   -0.22221903901659     -1.77204228022720      1.32385853444493
  C   -1.16734547015020      0.66532455977583      0.63399365330947
  H   -2.23171114746995      0.42079910356560      0.65086989133289
  H   -0.79650659550012      0.68694374066815      1.66415004387543
  H   -1.02434302821901      1.65221008462623      0.19792111146610
  N   1.34507301097681      1.25997971953959     -0.70868545631831
  H   1.15813539987671      1.29361978571457     -1.70359252755662
  H   2.32084768496282      1.49300705545284     -0.57635612588328
