15
Coordinates from ORCA-job run
  C   -0.48523983330526     -0.14283512626473     -0.04954484057916
  C   0.83533444253960      0.56803718009722     -0.40039362081162
  Cl  -1.17873209512799     -0.74933403632327     -1.60870361561796
  H   0.61697896859813      1.38351620458900     -1.09566738406795
  H   1.20468634419783      1.02149757689337      0.52763240729527
  N   -0.35233389535881     -1.29460212352814      0.81412330771737
  H   0.32293748717050     -1.94855791937886      0.43673919190296
  H   -0.04432097443662     -0.99561742638909      1.73310153572913
  C   -1.47659978774632      0.82646188968060      0.56272806658729
  H   -2.41895185649129      0.31512147549554      0.75887187958697
  H   -1.65731022841516      1.66976153611889     -0.10508811644355
  H   -1.07993969962465      1.21125606103287      1.50816007935756
  N   1.90370271125966     -0.23317247666714     -0.96339945334106
  H   1.59157948960020     -0.69333328417515     -1.80895124521646
  H   2.21920892714017     -0.93719953118112     -0.30960819209880
