15
Coordinates from ORCA-job run
  C   -0.36356828866981     -0.41052322520129     -0.13452788675498
  C   1.12820870285788     -0.14188596081231     -0.37868157097243
  Cl  -1.20351667551592     -0.38125273601672     -1.73555517037417
  H   1.63796502082043     -0.26011921243609      0.58614571671339
  H   1.48877014534976     -0.93818170531714     -1.03319490423508
  N   -0.48407725951467     -1.76263463978032      0.36966723267820
  H   -1.45730977086850     -1.98883631604164      0.54232624295240
  H   0.01806361073405     -1.83416306101961      1.24860256246108
  C   -1.02110248497505      0.65321258164136      0.73224551016737
  H   -2.07504176250751      0.41465304044553      0.88901135507999
  H   -0.96545913876635      1.64301335584976      0.27704894463774
  H   -0.52212393065283      0.68156752812418      1.70670336949032
  N   1.51004949464184      1.13890602094449     -0.93509440566002
  H   1.26471943569223      1.89884196152640     -0.31506669975163
  H   1.04542290137446      1.28740236809339     -1.82163029643218
