14
Coordinates from ORCA-job run
  C   0.78238046065303     -0.28543303744782     -0.63503747542178
  C   -0.54729112645975      0.17181894298746     -0.06684479489522
  F   0.87052655271545     -0.00089301697364     -1.95941663583896
  H   -0.83393789640077      1.11252815736815     -0.55382187867309
  H   0.99044647994875     -1.33662666182663     -0.44998556589932
  N   1.87087825494535      0.50464543580380      0.04192182784017
  O   2.86371583163780     -0.11100476118882      0.41313837894007
  O   1.68455393625919      1.71821507897988      0.12315612827943
  N   -0.48689797174963      0.18973396861697      1.37272094038292
  H   -1.42792003365176      0.11459305007421      1.74042365495907
  H   -0.09997566591816      1.07343381090254      1.67982434877075
  N   -1.61775076227986     -0.81910275996454     -0.46749361793381
  O   -1.35607482621283     -1.62864123969130     -1.34986304416500
  O   -2.69265323348679     -0.70226696764027      0.11127773365477
