14
Coordinates from ORCA-job run
  C   0.87961344873436      0.20381352884477      0.33569205803979
  C   -0.57782630185798      0.37494636954222     -0.09425151302492
  F   0.95991634833189     -0.61128999121305      1.41186668402780
  H   -0.60499018611997      0.94983727086282     -1.01937311193087
  H   1.32654323836919      1.17221362175467      0.56680116248357
  N   1.69946985145548     -0.36715646286969     -0.79595552247950
  O   2.10432601565611     -1.51462360131492     -0.69798715724915
  O   1.85972739746810      0.41337614169639     -1.72789526050874
  N   -1.43221126235591      0.94182931579618      0.89088147943456
  H   -1.29403193757749      0.53043241298156      1.80330840535111
  H   -1.35501151959733      1.94770186555547      0.92613061386259
  N   -1.08304874716717     -1.00943885928706     -0.44784917644330
  O   -1.64828990856286     -1.63797707948271      0.43699954024997
  O   -0.83518643677641     -1.39566453286666     -1.58736820181291
