14
Coordinates from ORCA-job run
  C   0.70901914972382     -0.22294804379075     -0.63657656285249
  C   -0.60497675071312      0.19497491090286      0.01086783969894
  F   0.65463352618923     -0.01301187672339     -1.97273217618687
  H   -0.85977897899353      1.20064033655830     -0.32498226642261
  H   0.98169303000574     -1.25560848652799     -0.42247657704267
  N   1.77584584980596      0.65207372119628     -0.04328985858962
  O   1.87189360831704      1.78831352278498     -0.49114951807311
  O   2.41309949131500      0.16224568725110      0.88588053783687
  N   -0.66512690759106      0.08894735219330      1.42756274806272
  H   -0.14726861671179     -0.69784775103887      1.79276690929973
  H   -0.39751775902456      0.94237498709941      1.89277804293910
  N   -1.65689523679384     -0.71853740831668     -0.57682649162771
  O   -1.47619572072182     -1.91770949215756     -0.38027102645634
  O   -2.60042468480707     -0.20290745943099     -1.16255160058595
