14
Coordinates from ORCA-job run
  C   0.96492651765758      0.20168809584334      0.26865017262094
  C   -0.50319821988555      0.42222098181733     -0.05049151644456
  F   1.08432320633571     -0.65113232488839      1.31454754645052
  H   -0.59011243189288      0.92380702211009     -1.01462126015370
  H   1.43856200748309      1.15385693291259      0.50890198735389
  N   1.71890248128252     -0.34628412239954     -0.92018432459037
  O   2.29102834513876     -1.41633656933264     -0.80176666294048
  O   1.69905520733160      0.39316764281033     -1.89688772723548
  N   -1.10858972469535      1.16584802249339      0.98711058799455
  H   -1.11699386222647      0.63938907460113      1.85161443952933
  H   -2.05957129431300      1.41700185120237      0.75536914334323
  N   -1.12706831375715     -0.97101306341923     -0.27550249120375
  O   -2.01324417639532     -1.32504172321059      0.49224220655950
  O   -0.67701974206355     -1.60917182054018     -1.22098210128362
