14
Coordinates from ORCA-job run
  C   0.57274287820565      0.43065391221528     -0.86338422087630
  C   -0.69445826353323      0.22224821748228     -0.04897780250299
  F   0.76552917042204      1.76631055894376     -1.01364505303812
  H   -1.50093508166075      0.75630800174716     -0.57280822013816
  H   0.54320385562254     -0.06139497919154     -1.83365380690215
  N   1.73239933775143     -0.15298904306152     -0.09747323049824
  O   1.67637628036491     -1.37075120438617      0.01991887139862
  O   2.58813121432773      0.60392442696964      0.32969222789363
  N   -0.45127134801095      0.58332699291126      1.31137649570736
  H   -0.25045014361230      1.57337260035153      1.37730599900088
  H   -1.23895049203569      0.35138323537074      1.90059200691175
  N   -1.12187455210895     -1.22597805293797     -0.13761753057404
  O   -1.42646469577759     -1.79490371237384      0.90115618457088
  O   -1.19497815995484     -1.68251095404061     -1.27248192095310
