14
Coordinates from ORCA-job run
  C   0.92961688015354      0.28948477453699      0.23554600462490
  C   -0.58098423243629      0.37612421494597      0.02553952660701
  F   1.25293236043722     -0.38048052702940      1.36330004167142
  H   -0.79765091845431      1.12062292880062     -0.73771140044632
  H   1.34862143641127      1.29762034112035      0.29050000864770
  N   1.59898514681020     -0.36065892387713     -0.94988679996222
  O   1.23719183998795      0.10359363539868     -2.02815197801692
  O   2.43517793742196     -1.22430268682296     -0.75113179316463
  N   -1.30564133704081      0.63402489240674      1.22220375477115
  H   -0.85129780981831      0.27529616152411      2.04848594958177
  H   -1.57994748706780      1.59674493800620      1.32796388179110
  N   -1.09275547912347     -0.92640604894534     -0.55804329951203
  O   -2.02929232090405     -0.84473293782920     -1.34164498069929
  O   -0.56395601637710     -1.95593076223563     -0.14396891589366
