14
Coordinates from ORCA-job run
  C   0.68875928795547     -0.12778854481020     -0.78081917242333
  C   -0.55437966742237      0.15799989273636      0.04107349580923
  F   0.58550541645775      0.40471068591758     -2.02438922407353
  H   -0.92431583403905      1.15802592025264     -0.21882597592298
  H   0.93732444282784     -1.18546457648883     -0.82965443819842
  N   1.84861469663829      0.56530310317778     -0.11622412411117
  O   1.66017858763141      1.73667459682568      0.20968908861223
  O   2.88874042314607     -0.07150463816185      0.00654602696173
  N   -0.28745705020710     -0.08202575833013      1.43644624232438
  H   0.11232813959266      0.75185990713071      1.84826386608541
  H   -1.16278170055514     -0.27779045843270      1.90738467016548
  N   -1.65224783600025     -0.79010332574721     -0.38778906857707
  O   -1.51630996632683     -1.38593287996142     -1.45030460888620
  O   -2.62395893969874     -0.85396392410842      0.35760322223425
