14
Coordinates from ORCA-job run
  C   0.57245894428443      0.37847458714238     -0.81210602104809
  C   -0.77671403713939      0.20729506028085     -0.10464663958550
  F   0.80203140654254      1.71453943874184     -0.92639630515750
  H   -1.52654643930508      0.64058166334471     -0.76792232021600
  H   0.59655846437862     -0.09246916166299     -1.79540240702248
  N   1.72138487395792     -0.21316979327116     -0.04261198529490
  O   2.30029773641826     -1.15985902818094     -0.56285417742503
  O   1.98933313699537      0.31549946768202      1.03261663302630
  N   -0.90808313077505      0.73566244662967      1.20651019175501
  H   -0.04968697408747      0.67544808197025      1.73640802173323
  H   -1.24662597200225      1.68541780411996      1.19076805595115
  N   -1.08479557190489     -1.27047629723500     -0.07024260478419
  O   -2.06788078962922     -1.66297404988007     -0.69022691696299
  O   -0.31973164773379     -1.95397021968152      0.60510647503098
