14
Coordinates from ORCA-job run
  C   0.89324857400508      0.29962705659326      0.19926354435999
  C   -0.61836428247421      0.31578171389297     -0.03024521143315
  F   1.19534811594824     -0.44017770312087      1.29036774281829
  H   -0.82506769686133      0.82676348945649     -0.97006740996378
  H   1.27321018780759      1.31539476625150      0.32085523691827
  N   1.60443703867044     -0.26227502685847     -1.00826931154585
  O   1.55888763258977      0.47175402916261     -1.98932299125856
  O   2.13119233527925     -1.35930161023852     -0.91378459117000
  N   -1.38217319376199      0.86585605030187      1.03510798766811
  H   -1.08265879438813      0.52873463315468      1.93919127609248
  H   -1.40241355866189      1.87461357622258      1.00655231723066
  N   -1.03193656177563     -1.12744802340708     -0.24058472360910
  O   -1.41377971785372     -1.74608730382146      0.74368996609894
  O   -0.89893007852348     -1.56223564758955     -1.38175383220632
