14
Coordinates from ORCA-job run
  C   0.71362726679508     -0.29795457015553     -0.59997805893768
  C   -0.59738507083191      0.21292472427458     -0.01760417062319
  F   0.69205179795404     -0.19652789064510     -1.94960768252190
  H   -0.81170101580172      1.19584626788106     -0.43830235727209
  H   0.94754000190975     -1.31768290513096     -0.29679316278034
  N   1.79793344878505      0.58827656946288     -0.05646229914921
  O   2.40019931074508      0.15580290046703      0.92314020719728
  O   1.94176840143038      1.67980502780191     -0.59356486201422
  N   -0.68631959075641      0.22199936909016      1.40082322349546
  H   -0.42577777499807      1.10876689006443      1.80281528110352
  H   -0.18563414259795     -0.53616982288160      1.84197667263919
  N   -1.66901609988372     -0.70967804261336     -0.55557007016655
  O   -1.52900044820032     -1.89647606011409     -0.27104930213299
  O   -2.58828608454926     -0.20893245750139     -1.19082341883728
