14
Coordinates from ORCA-job run
  C   0.57939819691421      0.44294183794675     -0.85123632716339
  C   -0.69317222211966      0.22882618212996     -0.04675692038474
  F   0.78588351952259      1.77931019162195     -0.97266686947716
  H   -1.49300717459522      0.78065993221487     -0.56218164052028
  H   0.54884130835118     -0.02847315040923     -1.83159341771127
  N   1.73010504218438     -0.16779468094833     -0.09234858166908
  O   2.58589083311868      0.57275632297083      0.36261598028278
  O   1.66660726899030     -1.38788746513805     -0.00787163448151
  N   -0.45208437518699      0.55773676981489      1.32197986595437
  H   -1.25334157187385      0.34337668585342      1.89942619955529
  H   -0.21924217973051      1.53945425637439      1.40662358488290
  N   -1.13309243234836     -1.21383132767111     -0.16860909709160
  O   -1.20586492222712     -1.64462620699398     -1.31357688379484
  O   -1.44692129099963     -1.80244934776635      0.85619574161852
