14
Coordinates from ORCA-job run
  C   0.76390900063969     -0.23508180054296     -0.56600957752367
  C   -0.61389627233440      0.15400529412697     -0.04619690644583
  F   0.78948222019009     -0.15280521382297     -1.91676640764180
  H   -0.90411355322680      1.10499219012224     -0.49390750121920
  H   1.08222160142685     -1.22342689999376     -0.23690210694977
  N   1.73357049851981      0.75888285227582      0.00693967922729
  O   1.79650162748551      1.85163041348635     -0.54323040086868
  O   2.32901091092039      0.40109186062399      1.02027641766457
  N   -0.76455711629120      0.17612473489666      1.36707316233677
  H   -0.59710166656521      1.08792949646220      1.76281870832397
  H   -0.21831610678459     -0.52886452759288      1.84137884244808
  N   -1.56751536940237     -0.87635347122489     -0.60872535906573
  O   -2.50454254146496     -0.47748294367905     -1.28858767448427
  O   -1.32465323311280     -2.03964198513773     -0.29716087580173
