14
Coordinates from ORCA-job run
  C   0.91821092903173      0.26077624945488      0.13317153461104
  C   -0.60836207002273      0.32992887870996      0.06597274042428
  F   1.30775872205370     -0.59143062058594      1.10816774527251
  H   -0.89417296787303      0.93849247422835     -0.79136572455925
  H   1.33730211391166      1.25204709315632      0.31404107321137
  N   1.48391655294060     -0.19015939402829     -1.19131724051627
  O   1.98197133414477     -1.30241384353522     -1.26194060682121
  O   1.36116736787018      0.64033687117143     -2.08504605705361
  N   -1.24221863909316      0.78253499397229      1.25493872676824
  H   -1.23127131652369      1.78873879851708      1.33323764279964
  H   -0.86739936008495      0.34345334938901      2.08399723394615
  N   -1.08435966221193     -1.07541817009150     -0.24296389158879
  O   -1.08615499412745     -1.39246469810278     -1.42976253374655
  O   -1.37938801001570     -1.78442198225560      0.70986935725245
