14
Coordinates from ORCA-job run
  C   0.71049740138448     -0.12652920433346     -0.66190966161186
  C   -0.61083487397227      0.16480291636845      0.03670748648660
  F   0.62964473544743      0.21903801013328     -1.96811303308691
  H   -0.91080863668914      1.18875270766481     -0.18829697317901
  H   1.02913127942122     -1.16304652463789     -0.55960081593998
  N   1.74759494878361      0.72708569406216      0.01054749211499
  O   1.79281820266206      1.90610227608134     -0.31886022644131
  O   2.41486169785236      0.17129276406703      0.87966290684613
  N   -0.64652965558846     -0.09436738679312      1.43355473873511
  H   -0.07269109297886     -0.87650298208419      1.71469462549912
  H   -0.44116140402449      0.72193464167459      1.98782800384040
  N   -1.63349467862050     -0.72313300529130     -0.63806659702511
  O   -1.39360654987933     -1.92708392782815     -0.59198125315391
  O   -2.61542137379810     -0.18734597908354     -1.13616669308426
