14
Coordinates from ORCA-job run
  C   0.98654593847382      0.25814214852976      0.06379137788892
  C   -0.52630996900815      0.38648761038473      0.08971379896206
  F   1.38739333223438     -0.63594105132778      0.99941353555985
  H   -0.85587986207197      0.93031810973921     -0.79592966852212
  H   1.44411648419123      1.22879391261892      0.25643161043772
  N   1.48745744426493     -0.17181651356078     -1.29510843668120
  O   2.13364819671358     -1.20253715776783     -1.37577881794118
  O   1.20725869465012      0.61372958105157     -2.19255656653081
  N   -0.92822900550344      1.02842594052129      1.28241309979733
  H   -0.71398410186841      0.45729256041808      2.09017927663131
  H   -1.91981347077641      1.22312627880212      1.28110127403731
  N   -1.09975634601761     -1.03504386904333     -0.08625873753690
  O   -0.83794572539365     -1.58649131930699     -1.14978309491740
  O   -1.76550160988842     -1.49448623105897      0.83337134881512
