14
Coordinates from ORCA-job run
  C   0.62096992317993      0.02401467754802     -0.81939717253775
  C   -0.64343999881443      0.15840039678451      0.05713089870503
  F   0.51748511993628      0.79042317980335     -1.92584748633772
  H   -1.09503086330494      1.11652892969199     -0.21284151718012
  H   0.87443015864497     -0.99960894545398     -1.09066416574959
  N   1.76791088773029      0.54241055605678      0.00663053680278
  O   1.97594827928501      1.74806051446245     -0.00824186415814
  O   2.35067840651263     -0.30325240246153      0.68047132864004
  N   -0.51849058248244      0.05622053995891      1.45554660443426
  H   -0.35411034919531      0.93927239663523      1.91080997812583
  H   0.12552219135772     -0.65209271129125      1.77448249941794
  N   -1.63525375171057     -0.89852417388398     -0.47051991688158
  O   -2.39463747987502     -1.42951299006998      0.32234718849136
  O   -1.58998194126412     -1.09233996778051     -1.68290691177235
