14
Coordinates from ORCA-job run
  C   0.90371637965268      0.30362753125396      0.13685106371266
  C   -0.61927656164363      0.31633956232661     -0.00000426716813
  F   1.27185469442097     -0.40947018328322      1.22541832105895
  H   -0.88331333510860      0.80664627175271     -0.93645050021211
  H   1.28991818643451      1.32170247019874      0.20970241122201
  N   1.53956323550982     -0.28920717704725     -1.09734556759325
  O   2.06814765234818     -1.38593031065885     -1.00861071969719
  O   1.43635016447321      0.42132869435074     -2.09128996425480
  N   -1.31624351509391      0.89108191151146      1.09768383510716
  H   -0.96274407755725      0.57262888924230      1.98894490820050
  H   -1.33656664417247      1.89906978736988      1.04885839844841
  N   -1.04493620249328     -1.13069459218235     -0.15203662549035
  O   -1.36431469809156     -1.72669400163907      0.86785368102587
  O   -0.98415527867867     -1.59042885319565     -1.28957497435972
