14
Coordinates from ORCA-job run
  C   0.79103484993230     -0.26957082478646     -0.63157839497063
  C   -0.54788867027796      0.16814370125401     -0.06950780261071
  F   0.88947865782009      0.03544322135644     -1.95040748088026
  H   -0.83705835970431      1.11395849247171     -0.54495570352891
  H   1.00629110437876     -1.32149514387914     -0.45943128369155
  N   1.86620731706666      0.51941605227260      0.06812578437690
  O   1.66836707663430      1.72994014363877      0.16622782856928
  O   2.86077729780755     -0.09341443628920      0.43934588260172
  N   -0.50200657570152      0.16434028861867      1.37073651714870
  H   -1.44609164220751      0.07542474158720      1.72739379703897
  H   -0.12629666918031      1.04682880318704      1.69478873447224
  N   -1.60624118782522     -0.82473420290479     -0.49642177817084
  O   -1.32870618044936     -1.61937682303754     -1.38752602738791
  O   -2.68786701829347     -0.72590401348929      0.07320992703298
