14
Coordinates from ORCA-job run
  C   0.72259129467501     -0.20550180120084     -0.62860834959880
  C   -0.60650686662864      0.18802209245345      0.00263509491760
  F   0.69013138694543      0.02866792941569     -1.96135961626169
  H   -0.86476966497281      1.19710446065632     -0.31980220564709
  H   1.00262400177150     -1.23892030247981     -0.42840163219353
  N   1.76934727431115      0.66959808195408      0.00021628179733
  O   2.39882969121890      0.16772846021600      0.92820416813230
  O   1.85634226125689      1.81677804370289     -0.42071722769217
  N   -0.68924960520088      0.05651170836646      1.41613314213624
  H   -0.16526816709861     -0.72798369083920      1.77756286569033
  H   -0.44343784362494      0.90580033535656      1.90054684128322
  N   -1.63942032157184     -0.72443188537706     -0.61829978732673
  O   -2.58423642671643     -0.20665262146787     -1.20025552285818
  O   -1.44697701436474     -1.92572081075667     -0.44785405237883
