14
Coordinates from ORCA-job run
  C   0.92018140289097      0.28776026802299      0.03536945820790
  C   -0.60785348579031      0.32695241725747      0.08026097501464
  F   1.40322577805033     -0.45183269025047      1.05934105779059
  H   -0.97053517359376      0.84533534885258     -0.80676447933449
  H   1.32961013746550      1.29836431245403      0.07968812234949
  N   1.39246179564540     -0.29153859613821     -1.27601873147781
  O   1.90038455837934     -1.40159337595315     -1.27068294174236
  O   1.18961629355765      0.44162141287278     -2.23769965675694
  N   -1.15962359653065      0.88423333386359      1.26608219164328
  H   -1.17004594749081      1.89327052367305      1.24252787071878
  H   -0.70701013399592      0.54001085696001      2.10118353418609
  N   -1.07578569778129     -1.10823237462710     -0.05430237167911
  O   -1.26958811622049     -1.72849005122400      0.98271098217143
  O   -1.17403781458597     -1.53586138576357     -1.20169601109149
