14
Coordinates from ORCA-job run
  C   0.61813007432607      0.36424261556226     -0.89794796904848
  C   -0.65893190576959      0.34462107674378     -0.06535078750990
  F   0.89166868520459      1.62845576661149     -1.28249269155816
  H   -1.37613925260083      0.97318570966869     -0.59867447068385
  H   0.55909980130499     -0.28673798014888     -1.76970228970802
  N   1.76030241792012     -0.14675769292422     -0.05643466412230
  O   2.79564286543633      0.49463082525341     -0.01530732053763
  O   1.51860476676353     -1.21382246926243      0.50480945480037
  N   -0.46035032619863      0.81660583595260      1.24692510070555
  H   -1.32922828119706      1.09030089180589      1.68197037391696
  H   -0.00885764258098      0.12079310291121      1.82666120329712
  N   -1.27646144117264     -1.06592239069968     -0.16173545355419
  O   -1.42231928024302     -1.51056840355015     -1.29563878786755
  O   -1.61016048119288     -1.60702688792397      0.88291830187009
