14
Coordinates from ORCA-job run
  C   0.56948848738172      0.38198193145398     -0.83344481374166
  C   -0.76575627740131      0.30379973562917     -0.07669769355044
  F   0.94978715857415      1.68265029521146     -0.87599153144376
  H   -1.51400779344583      0.78629270681969     -0.70771413302966
  H   0.51967520198867     -0.03747809467743     -1.83737177939001
  N   1.61181789443914     -0.40270299497191     -0.08794586072582
  O   2.14421050843847      0.14774521702779      0.87065648513305
  O   1.79681067700716     -1.54993951684804     -0.48361264294860
  N   -0.80817073969963      0.84252860802973      1.23330691520478
  H   -0.85457191779786      1.85108591226754      1.20334115742578
  H   -0.02304118086267      0.55294391085702      1.80095250309885
  N   -1.13591575845668     -1.16285455302467     -0.06043787187541
  O   -1.57511966336953     -1.61313771613003     -1.11518465424398
  O   -0.91420659679580     -1.78391544164430      0.97114392008687
