14
Coordinates from ORCA-job run
  C   0.55883066123590      0.38924990459025     -0.85434834571040
  C   -0.76406185441536      0.25801634657362     -0.08708305893218
  F   0.78995887336121      1.70995896138918     -1.05484398347707
  H   -1.50016486978997      0.81429731400741     -0.67217085114633
  H   0.56815291606278     -0.14725322157795     -1.80263437281649
  N   1.66397645351729     -0.17405310774732     -0.00695413708138
  O   1.62605032833662     -1.39639709189805      0.10423163784755
  O   2.44560623568557      0.59895184666180      0.52739848315891
  N   -0.77456771091574      0.70456398220922      1.26245656492138
  H   -0.16507760893733      0.15924410991208      1.85760897521655
  H   -0.54044665158651      1.68663451334911      1.31931032262322
  N   -1.20229128177163     -1.18470041309523     -0.16636041365286
  O   -1.23797773507911     -1.83325818601791      0.86962617976119
  O   -1.46698775570374     -1.58425495835618     -1.29623700071209
