16

C	-0.557222	-0.047843	-1.423547
C	0.0	0.0	0.0
Cl	-0.150961	1.484	-2.252527
H	1.090604	0.0	0.0
H	-1.65075	-0.079419	-1.374948
C	0.00383	-1.21119	-2.222576
H	-0.308514	-1.135831	-3.265522
H	-0.352357	-2.163549	-1.824807
H	1.094377	-1.195764	-2.166258
N	-0.437494	-1.338375	0.610494
O	0.350052	-2.27744	0.618061
O	-1.60034	-1.391503	1.030252
N	-0.49459	1.0934	0.7617
H	-1.441406	0.918452	1.071906
H	0.111432	1.257672	1.554099
Br	3.536006	0.0	0.0
