16

C	-0.387673	0.006178	-1.472556
C	0.0	0.0	0.0
Cl	-2.188808	0.099598	-1.644566
H	1.093229	0.0	0.0
H	-0.103903	-0.948879	-1.909609
C	0.269523	1.158481	-2.198634
H	0.041417	1.122796	-3.265598
H	-0.07562	2.114328	-1.800737
H	1.350786	1.082409	-2.049164
N	-0.461088	-1.327876	0.584713
O	-0.081951	-2.333571	-0.014027
O	-1.176308	-1.329457	1.580186
N	-0.443597	1.084529	0.794981
H	-1.31554	1.489685	0.490062
H	0.285722	1.772014	0.902847
Br	3.465897	0.0	0.0
