16

C	-0.516394	-0.025891	-1.441409
C	0.0	0.0	0.0
Cl	-0.093315	1.534644	-2.219132
H	1.090574	0.0	0.0
H	-1.608408	-0.059477	-1.429964
C	0.076165	-1.164727	-2.245597
H	-0.223025	-1.092963	-3.293034
H	1.163587	-1.135813	-2.170053
H	-0.274629	-2.119266	-1.850358
N	-0.499526	-1.30774	0.571146
O	-1.717707	-1.376357	0.759762
O	0.296703	-2.217496	0.775015
N	-0.473713	1.055074	0.84236
H	0.210644	1.7988	0.84609
H	-1.372207	1.409755	0.544321
Br	3.562579	0.0	0.0
