16

C	-0.504837	0.012702	-1.447652
C	0.0	0.0	0.0
Cl	0.151671	-1.382661	-2.363518
H	1.090022	0.0	0.0
H	-0.042009	0.897039	-1.894042
C	-2.01364	0.042195	-1.636118
H	-2.244689	0.163095	-2.696264
H	-2.468262	0.874878	-1.091721
H	-2.466477	-0.883778	-1.281805
N	-0.527803	-1.232814	0.683237
O	-1.697088	-1.177276	1.075712
O	0.200463	-2.213036	0.778376
N	-0.395624	1.141663	0.771028
H	0.34158	1.829382	0.755937
H	-1.284577	1.537615	0.511474
Br	3.507295	0.0	0.0
