16

C	-0.481219	0.039192	-1.453726
C	0.0	0.0	0.0
Cl	-0.113455	1.655251	-2.139179
H	1.093205	0.0	0.0
H	-1.570462	-0.050664	-1.476801
C	0.196916	-1.03463	-2.282184
H	-0.104266	-2.025197	-1.933199
H	1.279809	-0.94487	-2.174488
H	-0.0791	-0.941745	-3.33371
N	-0.493196	-1.336271	0.514188
O	0.321678	-2.202245	0.811452
O	-1.719163	-1.463287	0.584001
N	-0.497379	1.008421	0.882204
H	0.232475	1.68989	1.043057
H	-1.324254	1.463628	0.519774
Br	3.550457	0.0	0.0
