16

C	-0.519004	-0.017349	-1.442934
C	0.0	0.0	0.0
Cl	-0.098218	1.5527	-2.201462
H	1.090576	0.0	0.0
H	-1.613358	-0.054919	-1.425398
C	0.07477	-1.157965	-2.249016
H	1.165459	-1.132434	-2.167804
H	-0.218159	-1.080159	-3.297772
H	-0.285059	-2.116033	-1.862479
N	-0.498044	-1.296125	0.59369
O	0.294167	-2.205836	0.807639
O	-1.714811	-1.351845	0.797887
N	-0.468728	1.057976	0.844955
H	-1.390531	1.380417	0.578035
H	0.192288	1.823917	0.805579
Br	3.541349	0.0	0.0
