16

C	-0.52086	-0.01424	-1.441603
C	0.0	0.0	0.0
Cl	-0.085524	1.545833	-2.21326
H	1.090553	0.0	0.0
H	-1.614644	-0.038537	-1.422619
C	0.054091	-1.164243	-2.246035
H	-0.318919	-2.114886	-1.856781
H	1.143562	-1.156178	-2.167642
H	-0.24035	-1.084396	-3.294229
N	-0.498517	-1.303756	0.577224
O	-1.717454	-1.370668	0.763121
O	0.296576	-2.212436	0.787109
N	-0.47875	1.047519	0.850471
H	-1.39718	1.367421	0.575569
H	0.179797	1.814071	0.821188
Br	3.531643	0.0	0.0
