16

C	-0.485023	0.035547	-1.4574
C	0.0	0.0	0.0
Cl	0.197858	-1.338968	-2.380901
H	1.090075	0.0	0.0
H	-0.017877	0.929139	-1.878484
C	-1.987378	0.061927	-1.677855
H	-2.196163	0.199596	-2.740784
H	-2.444933	-0.870682	-1.350693
H	-2.454551	0.88456	-1.131023
N	-0.517317	-1.252553	0.647982
O	-1.70043	-1.223361	1.005933
O	0.227751	-2.217968	0.757824
N	-0.426285	1.111441	0.801465
H	-1.36876	1.415784	0.609112
H	0.240239	1.865748	0.717197
Br	3.534596	0.0	0.0
