17

C	0.0	0.0	0.0
C	-0.468088	0.061088	-1.494607
Cl	1.79881	0.0	0.0
H	0.43336	-0.072666	-2.105477
C	-0.423633	1.177833	0.758728
N	-0.576465	2.154062	1.395165
C	-0.407834	-1.27969	0.731135
H	-0.006186	-2.144494	0.197622
H	-1.501431	-1.26177	0.731201
H	0.006703	-1.263915	1.74208
C	-1.133825	1.382271	-1.882465
H	-1.36409	1.375124	-2.952135
H	-0.469786	2.224847	-1.67391
H	-2.046098	1.432462	-1.287342
C	-1.332641	-1.06827	-1.853574
N	-1.854379	-2.00158	-2.342446
F	-2.599926	0.0	0.0
