17

C	0.0	0.0	0.0
C	-0.292881	-0.175005	-1.548815
Cl	1.79702	0.0	0.0
H	0.528267	0.350269	-2.047117
C	-0.410584	1.350802	0.400253
N	-0.63498	2.455778	0.731388
C	-0.641732	-1.040415	0.883539
H	-0.383192	-0.856639	1.928805
H	-1.732687	-0.883211	0.709885
H	-0.310359	-2.039529	0.593911
C	-1.598642	0.374101	-2.130645
H	-1.560162	1.466582	-2.08598
H	-1.654628	0.069227	-3.180624
H	-2.456386	0.054907	-1.511412
C	-0.111666	-1.589012	-1.893727
N	0.038552	-2.710799	-2.212235
F	-3.095486	0.0	0.0
