17

C	0.0	0.0	0.0
C	-0.475378	-0.072643	-1.486509
Cl	1.798683	0.0	0.0
H	0.41916	-0.298058	-2.08044
C	-0.422363	1.230725	0.669365
N	-0.548223	2.236339	1.263956
C	-0.390784	-1.223918	0.834218
H	-1.482626	-1.22281	0.84722
H	0.016183	-2.121839	0.363799
H	0.032628	-1.127706	1.836912
C	-1.066879	1.238778	-1.998889
H	-1.970809	1.412222	-1.414897
H	-1.306645	1.144762	-3.063216
H	-0.345799	2.051697	-1.878966
C	-1.387405	-1.194499	-1.73636
N	-1.92681	-2.152196	-2.154281
F	-2.573426	0.0	0.0
