17

C	0.0	0.0	0.0
C	-0.620842	-0.022617	-1.40171
Cl	1.793891	0.0	0.0
H	-1.719592	0.10921	-1.093893
C	-0.379928	1.25965	0.659664
N	-0.593474	2.268142	1.222835
C	-0.48697	-1.172674	0.845833
H	-0.138501	-1.051344	1.873674
H	-1.582449	-1.115374	0.781218
H	-0.086773	-2.108172	0.450128
C	-0.447661	-1.355338	-2.125594
H	0.595249	-1.686558	-2.14101
H	-1.064811	-2.109653	-1.637149
H	-0.79278	-1.260427	-3.157795
C	-0.144092	1.085699	-2.21319
N	0.215835	1.94854	-2.927528
F	-2.850932	0.0	0.0
