14

C	0.0	0.0	0.0
C	-0.530242	-0.309358	-1.425243
F	1.386049	0.0	0.0
H	-1.431914	-0.905293	-1.306892
H	-0.347171	-0.764759	0.695466
C	-0.409964	1.336037	0.452932
N	-0.548962	2.428362	0.859721
N	0.517726	-1.22106	-2.022003
O	0.544324	-2.36601	-1.571434
O	1.287066	-0.766666	-2.859456
N	-0.811094	0.77743	-2.295555
H	-1.739298	1.109203	-2.049352
H	-0.14018	1.529026	-2.201598
Br	-3.439163	0.0	0.0
