14

C	0.0	0.0	0.0
C	-0.383224	-0.496364	-1.421694
F	1.37308	0.0	0.0
H	0.579198	-0.610556	-1.931563
H	-0.360136	-0.742728	0.711924
C	-0.420414	1.337175	0.445541
N	-0.526287	2.402182	0.929935
N	-1.045697	0.565069	-2.324122
O	-1.754385	0.139871	-3.229368
O	-0.684364	1.729424	-2.187875
N	-1.05174	-1.74424	-1.387872
H	-1.962556	-1.575122	-0.951037
H	-1.211175	-2.059953	-2.336378
Br	-3.373044	0.0	0.0
