14

C	0.0	0.0	0.0
C	-0.392128	-0.205535	-1.487113
F	1.374911	0.0	0.0
H	0.568273	-0.283461	-2.007823
H	-0.359648	-0.866637	0.554714
C	-0.425214	1.222553	0.697306
N	-0.556693	2.162454	1.388839
N	-0.959575	1.06433	-2.152757
O	-1.752197	0.902646	-3.071685
O	-0.447003	2.131813	-1.824329
N	-1.142183	-1.383039	-1.69673
H	-2.054569	-1.258191	-1.245044
H	-1.288557	-1.519124	-2.68871
Br	-3.498549	0.0	0.0
