14

C	0.0	0.0	0.0
C	-0.508838	0.07891	-1.427248
F	1.37207	0.0	0.0
H	-1.608299	0.059297	-1.372872
H	-0.36616	-0.90291	0.485166
C	-0.413472	1.199845	0.75024
N	-0.538126	2.201208	1.349865
N	-0.156924	-1.225668	-2.137181
O	-0.01265	-2.235455	-1.450708
O	-0.143696	-1.196934	-3.361898
N	0.039588	1.17871	-2.157853
H	0.540119	1.818019	-1.555439
H	-0.685613	1.67847	-2.649503
Br	-3.565331	0.0	0.0
