14

C	0.0	0.0	0.0
C	-0.523119	-0.25319	-1.412414
F	1.374678	0.0	0.0
H	-1.554487	-0.616648	-1.314128
H	-0.362239	-0.782319	0.66536
C	-0.419772	1.321249	0.492044
N	-0.553478	2.417285	0.889307
N	0.254718	-1.403162	-1.981405
O	0.603271	-1.34743	-3.159195
O	0.420909	-2.371103	-1.243055
N	-0.364358	0.911532	-2.249183
H	-1.135626	1.528428	-2.010925
H	-0.487759	0.628485	-3.214771
Br	-3.497444	0.0	0.0
