14

C	0.0	0.0	0.0
C	-0.392101	-0.455823	-1.430482
F	1.373008	0.0	0.0
H	0.567693	-0.591025	-1.939227
H	-0.362743	-0.756522	0.695955
C	-0.425508	1.325335	0.47143
N	-0.562915	2.377211	0.97425
N	-0.999012	0.665981	-2.299315
O	-1.789233	0.322653	-3.169276
O	-0.519238	1.789049	-2.169921
N	-1.113739	-1.670943	-1.432619
H	-2.02294	-1.484026	-0.99629
H	-1.277572	-1.961667	-2.388484
Br	-3.468548	0.0	0.0
