16
Coordinates from ORCA-job run
  C   0.45656648297524     -0.22807773373367     -0.46851267572970
  C   -0.91732856079150      0.33813297527934     -0.07970962710322
  Br  0.79038933692149      0.26521116019289     -2.30473448338429
  H   -1.64806666600315     -0.05140957767380     -0.79234039811850
  N   1.55167459898785      0.34737674288633      0.44628910185655
  O   1.37836697365950      0.07576780528573      1.62863741720315
  O   2.48614428040620      0.95846165947490     -0.03986057068193
  C   0.48526400485230     -1.73799650613337     -0.30962336192856
  H   0.29971513347142     -2.00417411862519      0.73209653091942
  H   1.46397023615064     -2.11693217467448     -0.60846467163754
  H   -0.27289087096877     -2.19398442094244     -0.94812434593263
  N   -0.96619209599413      1.84371441104711     -0.24946045864717
  O   -0.09622998202994      2.48013256622439      0.33117352945559
  O   -1.87710419302420      2.28042446965473     -0.94061304965360
  C   -1.34886389275737      0.01174077861386      1.27549578435112
  N   -1.78641478585560     -0.27038803687634      2.32875127903131
