16
Coordinates from ORCA-job run
  C   0.53845457401430     -0.05338675651926     -0.27884456566181
  C   -0.69021156558086      0.47716630510598      0.48568659695932
  Br  0.93214133487431      1.08642003019824     -1.77984029136240
  H   -0.88929012233091     -0.18984783441207      1.32556357020423
  N   1.71234227123497     -0.00599556647701      0.72127089103327
  O   1.40129897032861     -0.19186278137477      1.89492680992201
  O   2.84009079587100      0.10896433554493      0.27417097445058
  C   0.42859281134272     -1.50344217225222     -0.71367760815603
  H   0.18685770030253     -2.12920117200645      0.14919675005673
  H   1.38555946472847     -1.81369608342005     -1.13593859083233
  H   -0.34668536313963     -1.62343125441177     -1.46760455482283
  N   -1.91987833429781      0.39101616137910     -0.39612178170397
  O   -2.41971829317164     -0.72794250235691     -0.46902312157724
  O   -2.30314421085997      1.40883934890878     -0.95558667855414
  C   -0.50630170405768      1.83999978634893      0.96185644664445
  N   -0.35110832925840      2.92540015574457      1.38296515340016
