16
Coordinates from ORCA-job run
  C   0.53961068567687     -0.12745542046906     -0.25598480055272
  C   -0.64235509640316      0.55349678661464      0.46256596483275
  Br  1.19501525886283      0.99744957950536     -1.67161480342267
  H   -1.00318266012437     -0.11832924040335      1.24297213284102
  N   1.62834308741891     -0.29869908049323      0.82480870666843
  O   2.79733307820884     -0.16564038387881      0.50863900578750
  O   1.19699536672479     -0.65193428448180      1.91941384591036
  C   0.24174330519843     -1.52570684437889     -0.76688147085959
  H   -0.48259756314728     -1.49377499290066     -1.57809475611593
  H   -0.15680064337973     -2.13720935283246      0.04577341269964
  H   1.16874195435802     -1.96684493115457     -1.13733888351339
  N   -1.80422190925517      0.72046135631921     -0.49497003122928
  O   -1.99498827417251      1.82414929657041     -0.98648639879634
  O   -2.45559483097216     -0.30137218564281     -0.69178077470835
  C   -0.27211170151607      1.83776214237516      1.03858086014009
  N   0.04206994252178      2.85164755525087      1.54139799031849
