16
Coordinates from ORCA-job run
  C   0.46131312178434     -0.21734723874887     -0.47588115373587
  C   -0.89933158373934      0.36843738454830     -0.08314485082071
  Br  0.80676779705497      0.29453149794270     -2.30612233509901
  H   -1.62573536457830      0.03597351721410     -0.82890786524134
  N   1.57252894392961      0.30437620464343      0.44523729117829
  O   2.61570544929703      0.69964531623736     -0.04187574443359
  O   1.30663596053588      0.18782874364143      1.63561116515654
  C   0.46152276269938     -1.73072942985808     -0.33988130085002
  H   0.28289450256575     -2.00708400052844      0.70117475788712
  H   1.42914967836707     -2.12259992648911     -0.65751942000055
  H   -0.31384982401281     -2.16475538872423     -0.97300320213226
  N   -0.93197215845923      1.88524808456739     -0.17419584610867
  O   0.08900606167979      2.48531965071120      0.13205488637463
  O   -2.00194937976098      2.36371176025337     -0.52579196161211
  C   -1.38605882871458     -0.02062134185679      1.23699586018013
  N   -1.86662713864857     -0.36193483355378      2.25324971925743
