16
Coordinates from ORCA-job run
  C   0.41643153617825     -0.38597159307584     -0.46513060138885
  C   -0.77456286728982      0.57540461853966     -0.39270325611084
  Br  0.29768748120602     -1.25280699948434     -2.20727785706435
  H   -0.75325963802069      1.25529910004403     -1.24670140129176
  N   1.68969276126029      0.45910345847014     -0.52382312838434
  O   1.59041467692274      1.55788086763719     -1.05629534969905
  O   2.70660697596798     -0.04685520460895     -0.07400205547089
  C   0.49150256930153     -1.42738337240638      0.62404934221042
  H   1.33403295066995     -2.09115385497686      0.44169271416561
  H   0.62653394096958     -0.94463385458934      1.59146040534235
  H   -0.42801449561788     -2.01456737875822      0.62592060940997
  N   -0.71361178746265      1.50213526726766      0.82262933721721
  O   0.25932028041571      1.41757210551032      1.56080652230516
  O   -1.65230824103455      2.27738808592854      0.92213313648556
  C   -2.04043592700771     -0.14303292780426     -0.33905785512606
  N   -3.05103021645874     -0.73937831769335     -0.28370056260014
