16
Coordinates from ORCA-job run
  C   0.45337936442285     -0.33324184722238     -0.47157659125540
  C   -0.77801815999124      0.57490909751258     -0.38703246915568
  Br  0.45269255147523     -1.06654749833230     -2.27792180012034
  H   -0.74176154446496      1.32050541153434     -1.18386480386756
  N   1.69129361287350      0.56220999187532     -0.40210476996768
  O   2.69810082626124      0.07369228047870      0.08742809529548
  O   1.57818425486049      1.68398080756216     -0.88171040211988
  C   0.51966364221909     -1.45247130425881      0.53780164863078
  H   1.39620428922838     -2.06840911475860      0.34765220582914
  H   0.58939339042669     -1.04190799203392      1.54465343511023
  H   -0.37431452570999     -2.07166256787948      0.44912332400416
  N   -0.81215284795952      1.40474405463245      0.89817471723604
  O   -1.78976804302070      2.12756687040910      1.01493823395529
  O   0.13256306613759      1.30435671313151      1.67022046165530
  C   -2.01475375183498     -0.19134448399291     -0.45264459972999
  N   -3.00170612492368     -0.82738041865777     -0.49213668549990
