16
Coordinates from ORCA-job run
  C   0.39816202056824     -0.22768566412612     -0.54108843408807
  C   -0.91117171828751      0.37354244886469     -0.02193950519605
  Br  0.54325155000269      0.12319039191542     -2.43748895912787
  H   -1.70491867511074      0.08651305399143     -0.71875526955850
  N   1.58845424723884      0.37584263066225      0.20421238236145
  O   1.34837722084115      0.72150407211263      1.35588772303746
  O   2.67389989187093      0.36437855897351     -0.35035287923418
  C   0.46032299823461     -1.72698781903873     -0.29447570858612
  H   1.37934236552783     -2.12182776967759     -0.72904962090331
  H   0.44773846190100     -1.92786629613687      0.77934913933452
  H   -0.39108284219891     -2.22184919148245     -0.76444469283117
  N   -0.94479233938801      1.90076226278831     -0.03722263579321
  O   0.04543265663875      2.49654361017550     -0.43302467897411
  O   -2.00666498725934      2.38335224835954      0.33030551614950
  C   -1.28943146467457     -0.08364600035716      1.31105481414574
  N   -1.63491938590496     -0.51576653702435      2.34703280926391
