16
Coordinates from ORCA-job run
  C   0.46259866732149     -0.26313204527055     -0.46129142370911
  C   -0.88673649060216      0.39794715196642     -0.10984959342880
  Br  1.00242797640969      0.06461936375691     -2.29243344474587
  H   -1.62654998122262     -0.00851073392525     -0.80695447043595
  N   1.56126628112836      0.31728785939478      0.42650084431058
  O   2.56418956147281     -0.36577256488831      0.57506622828249
  O   1.35205103711751      1.42998324640496      0.89761995131784
  C   0.38578034897549     -1.76237737759610     -0.23442747840433
  H   1.32665400825770     -2.22139887669068     -0.52984230342213
  H   0.20332988840823     -1.97992824613421      0.81982002818086
  H   -0.41977395640290     -2.18312455012648     -0.83882290154125
  N   -0.99539375785756      1.91306954763710     -0.29556531780189
  O   -0.86609834445597      2.30650179751328     -1.44538071102168
  O   -1.26329284076303      2.58234187351017      0.68983991689409
  C   -1.25612245081099      0.06041152824541      1.26056555344276
  N   -1.54232994697605     -0.28891797379744      2.34515512208240
