16
Coordinates from ORCA-job run
  C   0.38870737548853     -0.22746530193897     -0.54806571585596
  C   -0.90501390422406      0.38814166379271     -0.00734525378460
  Br  0.51557186849042      0.14571101707195     -2.44140261870379
  H   -1.71012003808824      0.12336650984442     -0.69989065818478
  N   1.59673129015204      0.34823789494266      0.19054785372947
  O   1.37922036123628      0.65788805523232      1.35675713067231
  O   2.67111751561630      0.35237525775460     -0.38461439354043
  C   0.42951839305527     -1.73041461035799     -0.32002382631951
  H   0.42614144587579     -1.94317450652261      0.75152744162026
  H   1.33681179854460     -2.13515072359947     -0.76998271990104
  H   -0.43538575495560     -2.20602157928668     -0.78526842263484
  N   -0.91270222416598      1.91562531751904     -0.00386450106736
  O   -1.96703126166297      2.41205644657451      0.36663291642395
  O   0.09029502780772      2.49912912018442     -0.38556677044748
  C   -1.28047305439118     -0.07828902093131      1.32317926148416
  N   -1.62138883877892     -0.52101554027959      2.35638027650965
