16
Coordinates from ORCA-job run
  C   0.39861755351281     -0.22764351943004     -0.54153868981272
  C   -0.91402937977758      0.36245688297535     -0.01856541569803
  Br  0.52552345896364      0.11691400764883     -2.43997649786126
  H   -1.70791264204000      0.06325642524318     -0.70980100269035
  N   1.58733535921472      0.39223943358548      0.19384533903245
  O   2.65980331195050      0.43804679924004     -0.38267178746774
  O   1.35880136186171      0.69344546980704      1.36019689570611
  C   0.47693631291631     -1.72483816080670     -0.28652677841300
  H   1.39839268793827     -2.11346832292503     -0.72189167889997
  H   -0.37094076783290     -2.23141767477647     -0.75040786636047
  H   0.46997171669349     -1.91845080740341      0.78861784222515
  N   -0.96204241323921      1.88912508411976     -0.04536210425304
  O   0.03411681591615      2.49195431985854     -0.41526438238556
  O   -2.03741645705475      2.36377709955796      0.29183816845277
  C   -1.28513431391751     -0.08675933979040      1.31900591040696
  N   -1.63202260510566     -0.50963769690413      2.35850204801871
