16
Coordinates from ORCA-job run
  C   0.46608579150080     -0.22561328786575     -0.46010686441233
  C   -0.91448697356546      0.34149949574138     -0.09709341841909
  Br  0.84069790357843      0.27995181333970     -2.28517105884353
  H   -1.63056882220923     -0.04114457406174     -0.82811631684507
  N   1.54273408256398      0.34021598130050      0.48199368151409
  O   1.34254572082442      0.06216158974762      1.65860798935174
  O   2.48984853485201      0.95081139464058      0.02029176613449
  C   0.48753537289263     -1.73670542174626     -0.31155073383584
  H   -0.25781245565917     -2.18613794928577     -0.96948133786354
  H   0.27886140449621     -2.00962788673096      0.72402985216132
  H   1.47148613925541     -2.11608900771414     -0.59202214491838
  N   -0.95624420787347      1.84827896320242     -0.25722409418707
  O   -1.85239056782692      2.29222651442932     -0.96293215244248
  O   -0.09619106546788      2.47845177662372      0.34462960546537
  C   -1.37625794875386      0.00646293611265      1.24598879923369
  N   -1.83684290860790     -0.28374233773327      2.28715642790663
