16
Coordinates from ORCA-job run
  C   0.51210281021791     -0.11562266549899     -0.31158501321978
  C   -0.62126346802546      0.55393558896014      0.49100466172968
  Br  0.89536256673444      0.90332632841791     -1.89748889494324
  H   -0.82701580671538     -0.05700332486650      1.37127372569149
  N   1.73815960873739     -0.10528462892615      0.62620334776367
  O   2.84510805153539      0.05274679872546      0.14245418527994
  O   1.47614797237552     -0.35482081510939      1.80007682885483
  C   0.26471671975524     -1.57464435086150     -0.64998001713699
  H   0.02067761442059     -2.12708883402017      0.26027755679069
  H   -0.55550762941712     -1.67295611912817     -1.35803525417033
  H   1.17019509333066     -1.98727054420971     -1.09824806308058
  N   -1.90334227156694      0.54240345042998     -0.31539970327202
  O   -2.24288447909934      1.57439633252019     -0.87750285474343
  O   -2.49018635139877     -0.53603223468050     -0.32775392669198
  C   -0.28651519813482      1.91255209054531      0.89120453047812
  N   0.00424476725070      2.99136292770209      1.25349889066992
