16
Coordinates from ORCA-job run
  C   0.56239958541673     -0.09055022622661     -0.22193511455585
  C   -0.68735459373967      0.48420575813655      0.47439714191444
  Br  1.32451846412928      1.21885893071232     -1.40686315252181
  H   -1.10632912637523     -0.28868135203139      1.12069824739027
  N   1.55345597213110     -0.40666850019503      0.91817204173215
  O   2.74368996132433     -0.22708112860128      0.73017832914327
  O   1.03216125944131     -0.90980007399878      1.91015170099446
  C   0.32963128865909     -1.40592631034102     -0.94336532761507
  H   1.29144778325207     -1.79071252508808     -1.28696902330976
  H   -0.13002296438891     -2.12359075328302     -0.26012093931106
  H   -0.32128806888851     -1.26402591738556     -1.80353332778586
  N   -1.76250267147691      0.77954306767278     -0.55096976351163
  O   -2.37983551888269     -0.20637796642075     -0.94331397191661
  O   -1.92459321238280      1.94008200795092     -0.90157078015425
  C   -0.38690634864839      1.67794851833125      1.25093148220621
  N   -0.14047180957082      2.61477647076771      1.91511245730112
