16
Coordinates from ORCA-job run
  C   0.45584686053648     -0.22819250962548     -0.47948063920515
  C   -0.90045165301911      0.36400270765015     -0.08324212215158
  Br  0.77073343441423      0.22265256236152     -2.33138353248959
  H   -1.63452238494769      0.01657382276197     -0.81474722771549
  N   1.57888243098317      0.32727518697141      0.40569719835194
  O   2.62640595169869      0.67383565786558     -0.10832402184775
  O   1.31810048919658      0.28469803814721      1.60220599739106
  C   0.46638747603470     -1.73630204983831     -0.29325033697653
  H   0.31077819889082     -1.97827963839828      0.76010062368145
  H   -0.32032662235256     -2.19483713910155     -0.89433866683948
  H   1.42890444561215     -2.13430385776235     -0.61849595150018
  N   -0.94218157669455      1.87995211737267     -0.20078127058630
  O   -2.04049254598514      2.34776215373755     -0.46880770176172
  O   0.09847955194290      2.48922403856303      0.00327566563763
  C   -1.37445884954458     -0.00305985095415      1.24788714010274
  N   -1.84008520676610     -0.33000123975097      2.27568484590893
