16
Coordinates from ORCA-job run
  C   0.52989187950754     -0.02775034455355     -0.30365168148833
  C   -0.73000502162571      0.44313697500150      0.45032484130328
  Br  0.71752558096762      0.93814937039397     -1.95565301205759
  H   -0.81767365356292     -0.13890276496999      1.36893652778233
  N   1.71017336573900      0.30203244151367      0.63544876877187
  O   2.75688291952443      0.69544124180079      0.15199484096145
  O   1.49538201716557      0.04378623592414      1.81697147158218
  C   0.59580252160806     -1.52610957520172     -0.53920485209943
  H   1.57500050425145     -1.77167623857153     -0.95409425543524
  H   -0.17322760336711     -1.84023779904335     -1.24179367732021
  H   0.45478190473767     -2.05362562390315      0.40671495813926
  N   -1.96941445349515      0.11446548743582     -0.35593171258783
  O   -2.32022277422920     -1.06065503997504     -0.29860420928794
  O   -2.50517952134722      1.01520469290055     -0.98668631728981
  C   -0.68878189349608      1.86481154416823      0.75900333320665
  N   -0.62993577237797      3.00192939707968      1.04722497581934
