16
Coordinates from ORCA-job run
  C   0.35582867716648     -0.36411152667608     -0.52738704429987
  C   -0.85668842164188      0.55500921429394     -0.30310881917110
  Br  0.03274816794294     -1.40817396057610     -2.13262522671954
  H   -0.85876261704109      1.32929307364292     -1.07531546554605
  N   1.55777542006465      0.53045490847538     -0.86884988280642
  O   1.35684970229754      1.42806203942432     -1.67365339173869
  O   2.61972919912753      0.24926543354300     -0.33169314705590
  C   0.65430573427110     -1.26478357797645      0.64504184193549
  H   -0.23375292981637     -1.85453477397806      0.88102782167873
  H   0.94532746749633     -0.67144509029059      1.51385222012142
  H   1.47504692870338     -1.93715415640101      0.40383718976537
  N   -0.66234706845977      1.27922406907915      1.02446013339337
  O   0.36835775822016      1.93756750595563      1.10035104759590
  O   -1.51040881074425      1.13422405481724      1.89343886362360
  C   -2.11349140218620     -0.17697030334440     -0.27840050068519
  N   -3.13051780540056     -0.76492690998890     -0.27297564009113
