16
Coordinates from ORCA-job run
  C   0.33315588677130     -0.34301240834219     -0.55761669749085
  C   -0.85297519605754      0.58908242583267     -0.25441460828721
  Br  -0.04726664476176     -1.28941372946740     -2.20911868638394
  H   -0.85495573066343      1.40480609391424     -0.98206987207950
  N   1.54544347212540      0.54805963891787     -0.87331549292123
  O   1.35369466292130      1.47337477244044     -1.64818623664041
  O   2.60437970616215      0.23962092936619     -0.34412283453723
  C   0.63631530278896     -1.31130724284557      0.55822902142947
  H   0.95868129684606     -0.77339701058440      1.45166943769476
  H   -0.26023654849619     -1.89214927357121      0.78380163610465
  H   1.43517423071350     -1.98827850616177      0.26203813836606
  N   -0.60070589316935      1.22880287919358      1.10509287083241
  O   -1.35535492058141      0.94949570136624      2.02644900388833
  O   0.38591742287465      1.95477546516729      1.15086286786082
  C   -2.12500852730421     -0.11488272144815     -0.23537519869598
  N   -3.15725852016946     -0.67557701377784     -0.23292334914014
