16
Coordinates from ORCA-job run
  C   0.37200374045898     -0.36805998818035     -0.51943969751124
  C   -0.84891735787624      0.54797939159252     -0.31730208726935
  Br  0.13924430990615     -1.19358554889259     -2.26665825181470
  H   -0.94943943588876      1.21625759706762     -1.17201094828930
  N   1.58865633777725      0.55496361864310     -0.64702402014288
  O   1.41363624030732      1.60180643750487     -1.26126405870087
  O   2.63639035827751      0.16676563088041     -0.14694982439974
  C   0.60378938906226     -1.43026131189210      0.52562870204941
  H   -0.28496288331997     -2.05858983720258      0.60447631788055
  H   0.80790474020293     -0.97304239137758      1.49291439149576
  H   1.45250929989439     -2.04659647384364      0.23513880353129
  N   -0.65396734151416      1.46878065604503      0.88107522877852
  O   -0.67185646171968      2.66980601175883      0.64288185171971
  O   -0.50826202532337      0.93190479235864      1.97366495298995
  C   -2.05911555523421     -0.23106920540440     -0.10034017260893
  N   -3.03761335501040     -0.85705937905779      0.07420881229183
