16
Coordinates from ORCA-job run
  C   0.45594016762305     -0.23287370620301     -0.46633984766146
  C   -0.91127091634219      0.35204576309619     -0.08310832506381
  Br  0.80337163668492      0.25785137228779     -2.30089156707037
  H   -1.64389367227641     -0.02637608520373     -0.79980694243906
  N   1.55635346765607      0.32392452513386      0.45294009288933
  O   1.36613929684807      0.06760900895660      1.63607509353535
  O   2.51151542282721      0.90402739273040     -0.03083146447338
  C   0.46289963171765     -1.74329481193482     -0.30905053254812
  H   0.27009824934241     -2.00747485326363      0.73194472485457
  H   1.43725470442123     -2.13548566298059     -0.60501658062050
  H   -0.29940567192465     -2.18833844951540     -0.95030800834141
  N   -0.93982388561171      1.85850027701824     -0.25121802016273
  O   -1.85779298782763      2.30910804677277     -0.92380993248122
  O   -0.04967120686691      2.48178211431851      0.31264277422702
  C   -1.35594288128998      0.02993976796591      1.26894609540031
  N   -1.80577135498112     -0.24894469917908      2.31783243995549
