16
Coordinates from ORCA-job run
  C   0.48661888657710     -0.13858852615055     -0.34573196257061
  C   -0.65980628234790      0.57908588795984      0.39595689007601
  Br  0.48505131456024      0.35189469781453     -2.20438787272160
  H   -0.64779262266742      0.25499388407477      1.43814858385751
  N   1.77528139524670      0.36896212992996      0.33648437024344
  O   2.73847283681945      0.66190511185408     -0.34957096984881
  O   1.71985483221933      0.35828596715883      1.56351605277986
  C   0.49389472891556     -1.64777144476149     -0.18123959268825
  H   -0.35751723832962     -2.09456430051080     -0.69012793184806
  H   1.41330712242578     -2.04234984519344     -0.61767167342142
  H   0.45304791317394     -1.90329191349445      0.87946228581965
  N   -1.99732299780913      0.12941605030298     -0.15338963760440
  O   -2.35807940926607     -0.98150195467435      0.22467932618374
  O   -2.59482360781337      0.88194703576275     -0.90993448523040
  C   -0.54073488782529      2.02778519196631      0.31944744695770
  N   -0.41045198387931      3.19479202796102      0.29635917001563
