16
Coordinates from ORCA-job run
  C   0.55133607551166     -0.08061626299849     -0.25883579974596
  C   -0.70928074098554      0.49448122510344      0.41864566259051
  Br  1.04219773091937      0.99643379264896     -1.77327031292784
  H   -0.97824561158635     -0.16042746556261      1.24931164845264
  N   1.64661143675629     -0.00325378774329      0.82687909199678
  O   2.75779632399629      0.39815140265996      0.53019778734915
  O   1.28634663867266     -0.43806039673413      1.91789353697934
  C   0.44430610307103     -1.54494407711035     -0.64420358036224
  H   1.42248809771094     -1.89042109289079     -0.98381371430281
  H   -0.27534830445718     -1.67904693966686     -1.44901916126028
  H   0.12927017890003     -2.13116097392654      0.22123419632734
  N   -1.88486430142590      0.44395376949893     -0.53443166368695
  O   -2.23073620220161      1.48201887482103     -1.08068987809544
  O   -2.38676503713172     -0.66801032039736     -0.66949163953438
  C   -0.50280447949337      1.85314127479540      0.89836920194400
  N   -0.31330790825662      2.92776097750269      1.33322462427614
