12

C	-0.403296	0.117402	-1.466537
C	0.0	0.0	0.0
Cl	-0.174061	-1.525646	-2.288528
H	1.093954	0.0	0.0
H	-1.469918	0.303944	-1.600049
H	-0.309493	0.926164	0.495168
N	0.369337	1.15648	-2.03553
H	0.232243	1.224765	-3.034338
H	1.357184	1.013304	-1.831917
C	-0.581366	-1.128779	0.706516
N	-1.094293	-2.002239	1.29934
Br	3.512903	0.0	0.0
