12

C	-0.324316	-0.041948	-1.493751
C	0.0	0.0	0.0
Cl	-2.083904	-0.361759	-1.74722
H	1.094829	0.0	0.0
H	-0.133781	0.936021	-1.937638
H	-0.340133	-0.92267	0.479659
N	0.445296	-1.023777	-2.212358
H	1.428993	-0.769368	-2.102042
H	0.333651	-1.923951	-1.755995
C	-0.55474	1.151799	0.692495
N	-0.99835	2.086221	1.247725
Br	3.493826	0.0	0.0
