12

C	-0.496187	0.054234	-1.432625
C	0.0	0.0	0.0
Cl	-2.38076	-0.121855	-1.382218
H	1.093132	0.0	0.0
H	-0.374418	1.04529	-1.86564
H	-0.331322	-0.936283	0.460763
N	0.126624	-0.912237	-2.228002
H	-0.219216	-0.938687	-3.176144
H	0.132872	-1.832667	-1.811773
C	-0.503205	1.111459	0.797146
N	-0.909601	2.007253	1.436807
Br	3.54991	0.0	0.0
