12

C	-0.458133	0.022113	-1.445928
C	0.0	0.0	0.0
Cl	-2.265624	0.594388	-1.470111
H	1.094697	0.0	0.0
H	0.046827	0.827709	-1.975281
H	-0.330303	0.906996	0.509375
N	-0.261136	-1.19744	-2.097471
H	-0.511182	-1.173049	-3.074456
H	-0.7052	-1.975898	-1.628111
C	-0.52615	-1.161354	0.704917
N	-0.982335	-2.099731	1.243602
Br	3.524858	0.0	0.0
