12

C	-0.532788	-0.050186	-1.439355
C	0.0	0.0	0.0
Cl	-0.166605	1.525292	-2.206313
H	1.093198	0.0	0.0
H	0.033698	-0.797156	-1.99702
H	-0.348844	0.908824	0.499687
N	-1.942996	-0.323366	-1.606368
H	-2.125978	-1.267249	-1.28404
H	-2.478732	0.311957	-1.024875
C	-0.49006	-1.165757	0.72874
N	-0.917661	-2.124895	1.255
Br	3.521488	0.0	0.0
