12

C	-0.50301	0.006968	-1.434172
C	0.0	0.0	0.0
Cl	-0.184962	1.581308	-2.22037
H	1.092741	0.0	0.0
H	0.108479	-0.708224	-1.995251
H	-0.288228	-0.960396	0.447911
N	-1.930834	-0.236635	-1.487353
H	-2.228759	-0.326143	-2.451678
H	-2.129056	-1.109463	-1.010909
C	-0.563883	1.069759	0.812877
N	-1.008143	1.923593	1.483978
Br	3.530806	0.0	0.0
