12

C	-0.416068	0.135616	-1.473308
C	0.0	0.0	0.0
Cl	-0.297124	-1.458008	-2.289208
H	1.09376	0.0	0.0
H	-1.463546	0.434143	-1.564297
H	-0.296869	0.929029	0.502736
N	0.409542	1.081439	-2.185739
H	0.228603	2.008366	-1.813523
H	1.387101	0.864981	-1.987274
C	-0.592309	-1.11509	0.720545
N	-1.10894	-1.987926	1.31203
Br	3.51436	0.0	0.0
