12

C	-0.541513	-0.0288	-1.4194
C	0.0	0.0	0.0
Cl	0.036894	1.45862	-2.316877
H	1.091203	0.0	0.0
H	-0.08014	-0.858729	-1.953593
H	-0.322987	-0.927177	0.485826
N	-1.962327	-0.167706	-1.436066
H	-2.389238	0.618259	-0.956472
H	-2.302927	-0.173959	-2.390663
C	-0.550108	1.119898	0.75509
N	-1.045865	1.99087	1.367025
Br	3.549765	0.0	0.0
