12

C	-0.457629	0.087926	-1.4453
C	0.0	0.0	0.0
Cl	-2.235569	0.737795	-1.455351
H	1.09123	0.0	0.0
H	0.085429	0.885762	-1.947438
H	-0.32347	0.888863	0.545051
N	-0.31155	-1.118417	-2.136699
H	-0.801073	-1.885983	-1.696936
H	-0.555947	-1.047145	-3.113147
C	-0.538331	-1.183789	0.656115
N	-0.973175	-2.151174	1.159482
Br	3.515709	0.0	0.0
