12

C	-0.307887	-0.018189	-1.497115
C	0.0	0.0	0.0
Cl	-2.090431	0.043024	-1.784177
H	1.095438	0.0	0.0
H	0.094027	0.90009	-1.926928
H	-0.370087	0.906082	0.484922
N	0.257861	-1.132543	-2.209195
H	-0.033511	-1.997248	-1.764233
H	1.269233	-1.063006	-2.103346
C	-0.509012	-1.183159	0.67819
N	-0.911074	-2.152554	1.204738
Br	3.480915	0.0	0.0
