16

C	-0.414231	0.056932	-1.446558
C	0.0	0.0	0.0
Br	-0.003126	-1.539703	-2.490306
H	1.089996	0.0	0.0
H	-0.340687	0.920109	0.478022
N	-1.930605	0.216639	-1.585984
O	-2.352914	0.940251	-2.484393
O	-2.628381	-0.395756	-0.782786
C	0.306994	1.228262	-2.077576
H	-0.01458	2.155729	-1.595326
H	1.376319	1.078495	-1.883556
H	0.102226	1.291999	-3.143941
N	-0.492877	-1.088726	0.844496
O	-0.305836	-2.247802	0.483122
O	-0.976414	-0.768348	1.935404
H	2.650565	0.0	0.0
