15

C	-0.353365	-0.037676	-1.452929
C	0.0	0.0	0.0
Br	-2.52293	-0.707982	-1.575967
H	1.095425	0.0	0.0
H	-0.318675	-0.916362	0.497959
N	-0.249619	1.182306	-2.0758
H	-0.484623	1.163089	-3.057147
H	-0.697787	1.945685	-1.587116
C	0.379153	-1.140456	-2.162819
H	0.114497	-2.110416	-1.745237
H	1.448926	-0.949503	-1.976131
H	0.160512	-1.146329	-3.233371
C	-0.519578	1.161473	0.69206
N	-0.900081	2.134079	1.232445
H	2.670383	0.0	0.0
