15

C	-0.364407	-0.013987	-1.453367
C	0.0	0.0	0.0
Br	-2.570819	-0.184412	-1.605396
H	1.095227	0.0	0.0
H	-0.336025	0.917283	0.492647
N	0.015421	1.163064	-2.074442
H	-0.232989	1.202628	-3.051849
H	-0.271918	1.997182	-1.584042
C	0.149573	-1.235276	-2.164648
H	1.236724	-1.229804	-2.001133
H	-0.279164	-2.14285	-1.742302
H	-0.076851	-1.199487	-3.232948
C	-0.471859	-1.155788	0.736893
N	-0.821755	-2.112005	1.323412
H	2.689504	0.0	0.0
