15

C	-0.220657	0.033956	-1.508023
C	0.0	0.0	0.0
Br	-2.156066	0.39467	-1.933433
H	1.096759	0.0	0.0
H	-0.332899	0.934146	0.461374
N	0.55536	1.098687	-2.107546
H	0.295884	1.973645	-1.661075
H	1.521095	0.910868	-1.800064
C	0.175322	-1.280665	-2.141862
H	-0.439647	-2.103998	-1.774924
H	0.091105	-1.205312	-3.226361
H	1.220417	-1.460708	-1.861706
C	-0.570843	-1.13726	0.691052
N	-1.026246	-2.066881	1.249193
H	2.759392	0.0	0.0
