13
Coordinates from ORCA-job run
  C   -0.64578753828780     -0.01990368159545      0.08159344276334
  C   0.85266998585798      0.07915769624120      0.35545841875938
  H   -0.95811433970947     -1.06250958955417      0.21095805436236
  H   1.05764560072444     -0.16018328493563      1.40163915826898
  H   1.23174971104765      1.07072487643297      0.11980848258270
  C   -0.91784604881554      0.34612879452689     -1.31320045106810
  N   -1.14024993296686      0.64487599349164     -2.42623249848953
  N   -1.31217623644839      0.92959139872715      0.97585433752414
  H   -2.25163225282353      1.11880881044516      0.64883053832230
  H   -1.38687074695826      0.51853972085002      1.89936204444381
  N   1.62594382545500     -0.90506407613638     -0.45847911280416
  O   2.70442935824384     -0.53261097732115     -0.90974253535850
  O   1.13823861468094     -2.02655568117225     -0.58584987930670
