14

C	0.0	0.0	0.0
C	-0.585544	-0.259516	-1.39493
Br	1.944703	0.0	0.0
H	-1.690709	-0.213345	-1.229811
H	-0.304614	1.004977	0.295792
C	-0.483809	-1.032185	1.002657
H	-0.105658	-2.024547	0.745232
H	-1.576432	-1.031676	0.995437
H	-0.128319	-0.773322	2.001841
C	-0.236423	-1.585896	-1.905784
N	0.024477	-2.653445	-2.32051
C	-0.209177	0.771583	-2.36101
N	0.059579	1.612043	-3.136507
Br	-3.752981	0.0	0.0
