14

C	0.0	0.0	0.0
C	-0.335251	-0.098834	-1.52549
Br	1.948207	0.0	0.0
H	0.476913	0.421849	-2.047394
H	-0.315526	0.981355	0.355939
C	-0.561083	-1.110477	0.854213
H	-0.292706	-0.949099	1.899868
H	-0.181663	-2.082265	0.533703
H	-1.652067	-1.075097	0.755391
C	-1.528354	0.575719	-2.070689
N	-2.196708	1.194608	-2.815305
C	-0.259092	-1.48811	-1.991629
N	-0.12085	-2.586124	-2.384404
Br	-3.842369	0.0	0.0
