14

C	0.0	0.0	0.0
C	-0.47883	0.144791	-1.486061
Br	1.948215	0.0	0.0
H	0.415851	0.205667	-2.11722
H	-0.314798	0.879387	0.558882
C	-0.451588	-1.274562	0.690799
H	-0.084123	-1.276756	1.719282
H	-1.542889	-1.296613	0.690662
H	-0.056213	-2.152961	0.17632
C	-1.177988	1.41153	-1.725006
N	-1.524752	2.495854	-2.014192
C	-1.195943	-1.030697	-1.991641
N	-1.549429	-2.032635	-2.49207
Br	-3.581209	0.0	0.0
