14

C	0.0	0.0	0.0
C	-0.478671	-0.018795	-1.492879
Br	1.949054	0.0	0.0
H	0.41637	-0.034135	-2.126927
H	-0.311884	0.93531	0.461232
C	-0.449015	-1.194329	0.823908
H	-0.056794	-2.122288	0.40184
H	-0.078483	-1.089918	1.845786
H	-1.540278	-1.216265	0.828974
C	-1.171053	1.218265	-1.868881
N	-1.509048	2.268593	-2.272113
C	-1.206097	-1.236949	-1.868691
N	-1.573562	-2.270549	-2.289011
Br	-3.579718	0.0	0.0
