12
Coordinates from ORCA-job run
  C   0.68438491314944      0.43732120532304      0.31876997514994
  C   -0.75732677013660      0.44794487615982     -0.25343939559183
  Br  1.22356751660231      2.27991099201752      0.73056021757536
  H   -1.39723493901977      0.91687476702763      0.49923740974931
  H   -0.74688895674001      1.09171255052362     -1.13732557942872
  C   0.72210350602546     -0.34584195504047      1.55050508090605
  N   0.69630212391083     -0.96429642002847      2.54944217794399
  C   1.60749210617246     -0.10869453444861     -0.67194511453655
  N   2.31494233904212     -0.53045565739172     -1.51016428200111
  N   -1.13114477242841     -0.91305646124575     -0.54877835831107
  H   -1.30602339042446     -1.07234584227816     -1.52839669186989
  H   -1.91017367615335     -1.23907352061844      0.00153456041451
