12
Coordinates from ORCA-job run
  C   0.69859750259147      0.45061787008197      0.26490423489698
  C   -0.64924769995765      0.40702977475243     -0.50153592434442
  Br  1.44854450406441      2.26073471128630      0.13844875863890
  H   -1.29768334063632      1.16441317452835     -0.05242234421973
  H   -0.44148728727449      0.70748161431578     -1.53227256619952
  C   0.47861691946057      0.13390977841454      1.67317582990041
  N   0.24791191600933     -0.10160673395669      2.80113150783279
  C   1.64130609156934     -0.48809955402557     -0.33679274218909
  N   2.37176199648055     -1.23800882089612     -0.87070551076561
  N   -1.18116423029047     -0.92899731704362     -0.39616525960446
  H   -2.05987090702176     -0.96858128022879      0.09577260541196
  H   -1.25828546499499     -1.39689321722858     -1.28553858935820
