12
Coordinates from ORCA-job run
  C   0.68046464400903      0.48168802886877      0.25805767715605
  C   -0.68609530139900      0.38345921206376     -0.46919456680672
  Br  1.32207832603754      2.33493767369649      0.16822791725772
  H   -1.36198243719205      1.08938041353328      0.02174315515072
  H   -0.52791120831838      0.72524020973083     -1.49590012319843
  C   0.52232482720650      0.11018155134642      1.66124171503282
  N   0.33955241158210     -0.17321662952913      2.78696930319526
  C   1.65578468690830     -0.38251571181568     -0.40065726798502
  N   2.41100716757243     -1.07203438309393     -0.97954379062948
  N   -1.13715174726839     -0.98377091129328     -0.39134451985494
  H   -1.22538522707759     -1.42460423297162     -1.29338157737534
  H   -1.99068614206051     -1.09074522053591      0.13378207805736
