12
Coordinates from ORCA-job run
  C   0.69450123099853      0.45757549840606      0.26430534170215
  C   -0.70783878045638      0.42288058375097     -0.39758435802944
  Br  1.34091100566665      2.31110232331453      0.29853255843045
  H   -0.60127092901874      0.85341011806609     -1.39739083487265
  H   -1.35466096670812      1.08262453395655      0.18740463693169
  C   0.60730824821784     -0.03184835149896      1.63717165143862
  N   0.48284272935636     -0.40843689450070      2.74335000623261
  C   1.62966129413303     -0.34808864708835     -0.51564302644760
  N   2.34851973357010     -0.98723565902652     -1.19072026664769
  N   -1.16203252222701     -0.94553584022923     -0.41164975653585
  H   -2.00403116752691     -1.08955700545450      0.12326371717675
  H   -1.27290987600536     -1.31689065969595     -1.34203966937904
