12
Coordinates from ORCA-job run
  C   0.68424743132624      0.46399065043490      0.27899593734893
  C   -0.71304319281267      0.41898872822152     -0.39268777910218
  Br  1.29464130426866      2.32831432298353      0.36197477585025
  H   -0.60773143955618      0.87257467233820     -1.38218961961792
  H   -1.37517532248811      1.05433305456073      0.20211937695986
  C   0.59804597677924     -0.05991331031342      1.63913669915846
  N   0.47482617600751     -0.46739284918588      2.73444323709635
  C   1.63979254124990     -0.30474480972078     -0.51342095245216
  N   2.37583401711298     -0.91198075634285     -1.19939349444914
  N   -1.14166250572562     -0.95694564482654     -0.44239329758586
  H   -1.25467542038144     -1.30359709365066     -1.38196900803880
  H   -1.97509956578051     -1.13262696449876      0.09638412483220
