12
Coordinates from ORCA-job run
  C   0.68398912895563      0.30186591794431      0.24366714558132
  C   -0.51134300568253     -0.11684633672520     -0.64520256206565
  Br  0.38010477792649      2.12661861171564      0.90796948693475
  H   -0.26922235691192     -1.11120059909215     -1.03317945179305
  H   -0.53684179701237      0.57956987855765     -1.49249763332904
  C   0.80843928813872     -0.59266620665185      1.39108495691354
  N   0.92009161122292     -1.34797115684903      2.28423449796167
  C   1.91667241151344      0.30729344636205     -0.54074528684215
  N   2.87116813444439      0.28549322990747     -1.22642850108886
  N   -1.71556074652935     -0.17456945295935      0.14677271075333
  H   -2.24221823388456      0.68515778662196      0.09590358103610
  H   -2.30627921218084     -0.94374511883148     -0.13157894406196
