12
Coordinates from ORCA-job run
  C   0.66897551651672      0.38644395709856      0.23914818490947
  C   -0.48802415809049     -0.11533583870039     -0.66618394034827
  Br  0.32585408789954      2.23180738263694      0.79315227214400
  H   -0.55647678290437      0.58121421675165     -1.50484567374278
  H   -0.16615649375671     -1.08790414945648     -1.06091323550752
  C   0.75085362437119     -0.45114523545845      1.43340755826004
  N   0.77819286389956     -1.17355118112789      2.36000348395031
  C   1.93187058607360      0.35380003211190     -0.49549618658725
  N   2.91482243177512      0.30017364790443     -1.13780862980459
  N   -1.71600673421589     -0.16498038379273      0.08517311155650
  H   -2.48996095976014      0.24414614530494     -0.41415281043446
  H   -1.95394398180811     -1.10366859327246      0.36851586560455
