12
Coordinates from ORCA-job run
  C   0.59561639990057      0.24376327569757      0.44514882515593
  C   -0.72426322346965     -0.41321730724931     -0.02138624441653
  Br  0.21763379070254      2.06519432452670      1.07879507853092
  H   -0.46978060573861     -1.43709089510144     -0.31222913192016
  H   -1.38320293599639     -0.46405292916846      0.85444128314694
  C   1.16914275373888     -0.51010290304830      1.55792090687839
  N   1.58505239753074     -1.16043651484216      2.44439844538181
  C   1.54669659080914      0.32719436791793     -0.66016815284059
  N   2.32464963169404      0.34906365106809     -1.54048791229159
  N   -1.25221360963210      0.30316042195648     -1.15760119385712
  H   -1.90929483234014      1.01718972876456     -0.87802534240490
  H   -1.70103635719899     -0.32166522052166     -1.81080656136308
