12
Coordinates from ORCA-job run
  C   0.66130703379769      0.46539053323823      0.32370577547961
  C   -0.75658143682504      0.42030305704441     -0.30270763597480
  Br  1.11865777253938      2.32968947420644      0.73588262409862
  H   -0.72329538580386      1.02622055295111     -1.21131158216831
  H   -1.43578391390387      0.90641509826646      0.40534450864865
  C   0.67231198950415     -0.30240461441570      1.56585168416879
  N   0.61433372212922     -0.91811255495942      2.56523226117549
  C   1.64463669852554     -0.05971440477165     -0.61885001347237
  N   2.41543274886268     -0.46196525543914     -1.40929746857903
  N   -1.07675146892441     -0.95732016368037     -0.58452751091651
  H   -1.38731048609227     -1.10419170300779     -1.53205247835255
  H   -1.74595727380922     -1.34531001943259      0.06272983589242
