12
Coordinates from ORCA-job run
  C   0.70228079055772      0.47553481056039      0.21075046915776
  C   -0.68035236605475      0.37108752128717     -0.48445598107040
  Br  1.41622819417129      2.28520424913156     -0.05264988635803
  H   -0.53028656333002      0.62820880257060     -1.53723973292984
  H   -1.32170674793000      1.13539882999705     -0.03769448532210
  C   0.55781889281751      0.23425057428168      1.64351113089853
  N   0.38405636314077      0.06341544321627      2.79310495597758
  C   1.62760454371534     -0.48288763454918     -0.38712453160652
  N   2.33043405306585     -1.25494642158699     -0.92665237355395
  N   -1.18322392373420     -0.96502125828171     -0.28308661513169
  H   -1.23455693465696     -1.50198014655474     -1.13458546688359
  H   -2.06829630176257     -0.98826477007208      0.19812251682224
