12
Coordinates from ORCA-job run
  C   0.64508397289350      0.48823408750438      0.32829805231270
  C   -0.77640888852118      0.39212388767281     -0.28455453266597
  Br  1.05030937253300      2.37074109443395      0.71204035960306
  H   -0.78128390239467      1.01745968889998     -1.18178659119626
  H   -1.46755753398784      0.83340108842667      0.43894152148884
  C   0.69782668109424     -0.26488713102490      1.57810972062712
  N   0.68033899977035     -0.86412029963038      2.58879945212923
  C   1.63040865959039     -0.01723623643109     -0.62342002628154
  N   2.38526561122923     -0.41400205034217     -1.43200979163678
  N   -1.05397374282646     -0.99613244496338     -0.55770811547786
  H   -1.17938820037391     -1.19020359706830     -1.53875589086979
  H   -1.83262102900667     -1.35637808747759     -0.02895415803274
