12
Coordinates from ORCA-job run
  C   0.68004197772298      0.32057524623277      0.22831363799365
  C   -0.50970156026260     -0.15396505675927     -0.63987269048529
  Br  0.35387532939524      2.17022205270738      0.80697866735246
  H   -0.54367645203475      0.50112139719600     -1.51909556758489
  H   -0.25589557888711     -1.16264967332481     -0.98029374612174
  C   0.81401960462394     -0.51817632911626      1.41622101856836
  N   0.93382257903890     -1.22726591900486      2.34546600538599
  C   1.91409237256209      0.30460182263486     -0.55385795480952
  N   2.87121297396120      0.26483650988987     -1.23512067293672
  N   -1.71320114586936     -0.18755808018711      0.15485055250707
  H   -2.29573009202971     -0.97501972521205     -0.08717520855932
  H   -2.24886000822079      0.66327775494350      0.06358595868995
