12
Coordinates from ORCA-job run
  C   0.61919162501294      0.29759033208893      0.42326688652426
  C   -0.77441123872937     -0.29747932015092      0.08656840664022
  Br  0.45576099077836      2.22318604284523      0.74074563545704
  H   -0.64424301132720     -1.38704828209478      0.06515503820513
  H   -1.43142073550356     -0.05487708226810      0.92498412335979
  C   1.15368751579152     -0.32223143487032      1.63377194245760
  N   1.53084579066793     -0.85877618676558      2.60926248900047
  C   1.52592660523776      0.08729800431249     -0.70249307681432
  N   2.21743010193881     -0.13101450756506     -1.62735245118721
  N   -1.25921999968665      0.25507938309427     -1.15288617710721
  H   -2.20876760038965      0.58530693267730     -1.08193259171271
  H   -1.18378004379089     -0.39803388130346     -1.91809022482310
