12
Coordinates from ORCA-job run
  C   0.70191752465936      0.46519336473433      0.22903649765498
  C   -0.67861104876059      0.39111210533806     -0.47474866661433
  Br  1.41612400486122      2.28479740308841      0.04798490660452
  H   -0.52362435938709      0.68641662029068     -1.51639318071729
  H   -1.31899902417572      1.14082202868116     -0.00199346978741
  C   0.55069448337329      0.16179390622334      1.64927751089155
  N   0.37418368059643     -0.06333715718376      2.78901567283061
  C   1.63097385743470     -0.46632000236757     -0.40438957735224
  N   2.34778794163384     -1.21164017271606     -0.96273819992564
  N   -1.18275996030850     -0.95180844665819     -0.33166365737105
  H   -1.27260659949145     -1.43847360757956     -1.20965432447884
  H   -2.04708050043548     -0.99955604185084      0.18426648826514
