12
Coordinates from ORCA-job run
  C   0.72224180348391     -0.18428512591651      0.24996475804723
  C   -0.50332836565195      0.07673063473643     -0.65828633796538
  Br  0.76595690706314     -2.08783366573361      0.73625524137570
  H   -0.45165419967186      1.13176981342103     -0.94449895927115
  H   -0.36268843084961     -0.52662213819820     -1.56350975612929
  C   1.95699494214009      0.12595670241536     -0.46705340498396
  N   2.91120425593665      0.39864111175856     -1.09704472691662
  C   0.62838234181881      0.60371330656815      1.47581942217184
  N   0.55796664600389      1.27535764849218      2.43736792845066
  N   -1.71937996762023     -0.17912782185727      0.07432782221994
  H   -2.06216127237266     -1.11615432834200     -0.07935834375498
  H   -2.44253466028018      0.48285386265585     -0.16398364324399
