12
Coordinates from ORCA-job run
  C   0.73529527215551     -0.13342029431480      0.23503163571945
  C   -0.51837256606120      0.05653812272295     -0.65112264258262
  Br  0.92860871314398     -2.04014930258163      0.67246731758088
  H   -0.34492937942746     -0.50984911332214     -1.57464751068662
  H   -0.55181874776213      1.11977839706837     -0.90819757241467
  C   1.93384431965387      0.28608540703380     -0.48757176262034
  N   2.86399704954892      0.64714916870322     -1.10944476066980
  C   0.60076942722025      0.61466436663874      1.48196919673111
  N   0.49506229503494      1.25478175886728      2.46186408791635
  N   -1.70166480993464     -0.30756635197669      0.09004626780759
  H   -1.95903022923402     -1.27172901447508     -0.06414409829494
  H   -2.48276134433804      0.28571685563599     -0.14725015848637
