12
Coordinates from ORCA-job run
  C   0.67178736382743      0.30554836262831      0.26096895126744
  C   -0.49204006507311     -0.12531103738857     -0.66165837241420
  Br  0.33206593312054      2.12777881899937      0.91486003050819
  H   -0.23122300974747     -1.11896757979512     -1.03881914530370
  H   -0.49915236791078      0.56848064655003     -1.51173532855266
  C   0.77236698976487     -0.58721430416794      1.41229975450004
  N   0.86527876071022     -1.33837534615806      2.31103386412373
  C   1.92828779715621      0.32283035713689     -0.48507634217894
  N   2.91311686543464      0.30887972139138     -1.12663731796370
  N   -1.71807640404702     -0.19460264598277      0.09643372262370
  H   -2.23185181794482      0.67391548994372      0.05745008733176
  H   -2.31056004529069     -0.94396248315726     -0.22911990394165
