12
Coordinates from ORCA-job run
  C   0.67186862999214      0.32570038374887      0.24027074355759
  C   -0.49435259157461     -0.16332999441891     -0.65127606671717
  Br  0.32367943137379      2.17990825245512      0.79127051063313
  H   -0.22814345989223     -1.17465171889774     -0.97390168176075
  H   -0.50936636066694      0.48189917114268     -1.53834737994416
  C   0.78094912472202     -0.49972740071395      1.43997804360232
  N   0.88308766488137     -1.19832685578189      2.37922884653186
  C   1.92505083488907      0.30710314461674     -0.51071986006424
  N   2.90596663732490      0.26160021874621     -1.15685262093482
  N   -1.71662829098730     -0.19457041227175      0.11463073923274
  H   -2.24999270199022      0.65588905634328      0.00701357482190
  H   -2.29311891807199     -0.98249384496865     -0.14029484895841
