12
Coordinates from ORCA-job run
  C   0.57994084828034      0.24731494977103      0.46391222393632
  C   -0.70778539558944     -0.43881775217814     -0.04897201428242
  Br  0.12355383449623      2.02620283784432      1.16477324648731
  H   -1.37557004234408     -0.54993639013378      0.81448398829083
  H   -0.41058522305989     -1.43970672881697     -0.37695491999426
  C   1.16622727454880     -0.52853156312456      1.55454487602724
  N   1.60084609813527     -1.19592264919760      2.41881202059689
  C   1.54194443289203      0.41205909317240     -0.62243276250201
  N   2.32694045510965      0.49925791022394     -1.49216997650911
  N   -1.24798239996415      0.30338748561010     -1.16225046992593
  H   -1.93899509531294      0.97670654613828     -0.86432511529362
  H   -1.65853478719179     -0.31001373930909     -1.85042109683127
