12
Coordinates from ORCA-job run
  C   0.64430603646442      0.48424430268937      0.20529588331780
  C   -0.68885681422036      0.42667651068903     -0.60820732518807
  Br  1.46004789723210      2.25322463260724     -0.01095181315773
  H   -0.43588735343192      0.64993777792430     -1.64755049531244
  H   -1.32422356579052      1.23267575546063     -0.23303087506343
  C   0.36667427863584      0.26087391339633      1.62110073643813
  N   0.07356264210381      0.06112986406294      2.74205568478302
  C   1.56947982376858     -0.52827155380858     -0.29500069026231
  N   2.25540756869781     -1.37238319593476     -0.74140346264746
  N   -1.38341815241940     -0.82508139808620     -0.52883134895954
  H   -0.85270678709457     -1.59372096424304     -0.91560817278707
  H   -1.68438557394583     -1.04830564475730      0.41013187883906
