12
Coordinates from ORCA-job run
  C   0.61265894463976      0.52738734046626      0.20289273730181
  C   -0.73488960798534      0.38646949750455     -0.57667405294312
  Br  1.28261850949619      2.35924223585414      0.01397231739878
  H   -1.41954160329909      1.13077163163045     -0.16274157690860
  H   -0.52899643753429      0.65550923972806     -1.61560073510316
  C   0.39189405923983      0.24680481898474      1.61854836195723
  N   0.13413034814735     -0.00084518444054      2.73852005111813
  C   1.59831694236290     -0.39680616764542     -0.35020912726566
  N   2.33039370664120     -1.17188917666186     -0.84554138714410
  N   -1.32812475580090     -0.91686539537769     -0.51390650287870
  H   -1.58634428495020     -1.18646354053774      0.42557622412619
  H   -0.75111582095737     -1.63231529950492     -0.93483630965879
