12
Coordinates from ORCA-job run
  C   0.68087462995120      0.50637266407821      0.20509544556970
  C   -0.69001328746454      0.33562003678532     -0.49996654649283
  Br  1.32384361431405      2.33907263781540     -0.07984542827704
  H   -0.53987728576529      0.57556710473823     -1.55652100850398
  H   -1.36368324889337      1.08477457886452     -0.07520527467197
  C   0.53250134107413      0.28095319183316      1.64002201287650
  N   0.35937567165066      0.11419167416058      2.79032698025582
  C   1.65081853729805     -0.42306677681379     -0.36724247274996
  N   2.39974909970907     -1.17266890753408     -0.87534090851524
  N   -1.14157633062157     -1.01605997255024     -0.27892822254509
  H   -2.01402077120467     -1.06533058633943      0.22328526074835
  H   -1.19699197004771     -1.55842564503789     -1.12667983769427
