12
Coordinates from ORCA-job run
  C   0.69047035401993      0.35101499799307      0.23139634052084
  C   -0.50167944231045     -0.09457509352977     -0.65955811550210
  Br  0.43749483416941      2.20938099824295      0.79206259785345
  H   -0.23185103682163     -1.08142721836288     -1.05708023008277
  H   -0.54490585588338      0.60420867376178     -1.49822398139622
  C   0.74948738261233     -0.49133104321041      1.42335705690624
  N   0.75987007271120     -1.21263991874270      2.35116124489022
  C   1.94038655847026      0.26351923780971     -0.52018721712691
  N   2.91002227489307      0.16615990131794     -1.17749929012684
  N   -1.72001365591418     -0.08854971484564      0.10680118685372
  H   -2.47177012620256      0.39162205826656     -0.36150992619608
  H   -2.01651135974400     -1.01638287870058      0.36828033340642
