12
Coordinates from ORCA-job run
  C   0.47618581961440      0.21216873728692      0.52345096491198
  C   -0.76666681509052     -0.52528379324798     -0.08125433066999
  Br  -0.08698616262745      1.94773108459006      1.25169525971052
  H   -1.48568823729936     -0.64417803647487      0.73296548181623
  H   -0.41457211314442     -1.52060494796851     -0.37076498828473
  C   1.05460944428689     -0.57447453435261      1.60679068945938
  N   1.47616896465451     -1.25666685513274      2.46671076750582
  C   1.45993467548303      0.45683618676246     -0.52631559600880
  N   2.20799301767833      0.61585261464811     -1.41924335403038
  N   -1.39363686475392      0.10242279207402     -1.20454715219861
  H   -0.77561430668905      0.16786078112425     -2.00254114128754
  H   -1.75272742211241      1.01933597069089     -0.97694660092383
