12
Coordinates from ORCA-job run
  C   0.51096494717779      0.22775153476593      0.48372498446982
  C   -0.80045378005372     -0.47764503490626     -0.00410743495943
  Br  0.08967153092171      2.05863685304009      1.05890764099877
  H   -1.49212637861967     -0.46927846707823      0.84178453671213
  H   -0.52495976232098     -1.51755310335566     -0.20692763303553
  C   1.07940136182557     -0.49083739094989      1.61821249498614
  N   1.48265806071839     -1.11992025668721      2.52605079591932
  C   1.46490843477668      0.30537872378839     -0.61764557898616
  N   2.18467066973864      0.33062320884358     -1.54687087728790
  N   -1.43047975532158      0.08204624705116     -1.16111983807604
  H   -0.84116681553959      0.03184993298446     -1.98164821800532
  H   -1.72208851330325      1.03794775250367     -1.01036087273580
