12
Coordinates from ORCA-job run
  C   0.68087316858234      0.36912855304207      0.23153526040457
  C   -0.49883785175645     -0.09760006859679     -0.66249518607432
  Br  0.39725836722488      2.22241553732794      0.79299062968174
  H   -0.56098118428602      0.60672150574807     -1.49499517007673
  H   -0.20649804259240     -1.07512806703164     -1.06846919621559
  C   0.75100967544395     -0.47341021596638      1.42319364276703
  N   0.76680015706781     -1.19754505166437      2.34875400692255
  C   1.93513501403507      0.30204030942803     -0.51548731782558
  N   2.90876984317304      0.22331882589983     -1.16933327525221
  N   -1.71905759303792     -0.11676830457939      0.10352209917657
  H   -2.49438646410818      0.28360732382795     -0.40106698568520
  H   -1.96108508974614     -1.04678034743534      0.41185149217719
