12
Coordinates from ORCA-job run
  C   0.61810018336237      0.35154689193973      0.19789173765824
  C   -0.49290255091328     -0.17388077886177     -0.77362866328692
  Br  0.17187642237820      2.17861928028125      0.76874319794526
  H   -0.52058222490990      0.51790425793455     -1.61902629623257
  H   -0.13858957260698     -1.14282349720620     -1.13985381810345
  C   0.67281911475696     -0.49439168361751      1.38542995649462
  N   0.66845289324446     -1.21809943644280      2.31193694466522
  C   1.90925983766160      0.38538768680249     -0.47900239568148
  N   2.92123796257586      0.38119349877062     -1.07769236878807
  N   -1.80316850917767     -0.32562178192483     -0.21781910980294
  H   -2.17930753098230      0.55149832251054      0.11482374174508
  H   -1.82819602538930     -1.01033276018608      0.52619707338702
