12
Coordinates from ORCA-job run
  C   0.62621878816292      0.33641687340028      0.20440787947569
  C   -0.49563811163172     -0.15217361078698     -0.77387601946232
  Br  0.20935456141077      2.15654270183956      0.81570841004520
  H   -0.51410264430956      0.55589502288672     -1.60594258170098
  H   -0.15863109931234     -1.11981866475213     -1.15925342631044
  C   0.67163169560861     -0.53645850147619      1.37303379372618
  N   0.64174056872549     -1.28081552966477      2.28261498518297
  C   1.91527573238728      0.36663786211027     -0.47715603519008
  N   2.92050968171594      0.36984808997667     -1.08684765273008
  N   -1.80714758894345     -0.29235482251561     -0.21774262157593
  H   -1.84128994017589     -0.98874791324509      0.51506884765400
  H   -2.16792164363808      0.58502849222727      0.13098442088578
