12
Coordinates from ORCA-job run
  C   0.68488671204880      0.47830524206290      0.24759772774839
  C   -0.69075984442252      0.38830575258490     -0.46301993126428
  Br  1.36916451839040      2.31074505291953      0.08740519429466
  H   -0.54223152235857      0.72479821878994     -1.49427911271827
  H   -1.35358901907824      1.10118183020168      0.03340615777448
  C   0.54012162937520      0.15460375315614      1.66398240434898
  N   0.38616762538149     -0.08410109130970      2.80419823792326
  C   1.62942948103785     -0.43081211328323     -0.39599151271542
  N   2.35270349879969     -1.16467156802735     -0.96125532460284
  N   -1.16759138535991     -0.96698645491820     -0.34418857821480
  H   -2.10047959810465     -1.02742785939383      0.03201704796143
  H   -1.10682209570950     -1.48394076278279     -1.20787231053559
