12
Coordinates from ORCA-job run
  C   0.70333269121037     -0.12550855072370      0.19020077768836
  C   -0.52077250075951      0.04732141044325     -0.77197106971732
  Br  0.93049361927882     -2.02899152211128      0.61992924679316
  H   -0.53083756840148      1.10354978187406     -1.05962047633846
  H   -0.30216489018023     -0.54450619906635     -1.66416788736560
  C   1.92372562106092      0.34892860990478     -0.45230753044231
  N   2.87003111442942      0.75318339306588     -1.02088890157745
  C   0.45424727043234      0.59532299984768      1.43438814443181
  N   0.18057963263793      1.19821604054332      2.40578817089417
  N   -1.80105041571285     -0.31397843564655     -0.24337698561792
  H   -1.84428642302203     -1.29040227030089      0.01402155131484
  H   -2.06529815097366      0.25786474216977      0.54800495993674
