12
Coordinates from ORCA-job run
  C   0.62935156098615      0.33568741354709      0.19540560947511
  C   -0.50099249352013     -0.16126632066090     -0.76920576978221
  Br  0.23330741151423      2.17246276469292      0.77035056461546
  H   -0.17345569826314     -1.13866440544618     -1.13781903973451
  H   -0.51663969406618      0.53147707932884     -1.61412051951076
  C   0.66985433939624     -0.51284763932252      1.38185188250486
  N   0.64856397114628     -1.23734135127932      2.30748999537730
  C   1.91575804368532      0.33677501791429     -0.49127741493658
  N   2.91670746763765      0.31034414317008     -1.10767246054176
  N   -1.81114273969828     -0.28006658381939     -0.20514729984836
  H   -1.84819445939127     -0.96301663174117      0.54004137004023
  H   -2.16311770942690      0.60645651361625      0.12910308234123
