12
Coordinates from ORCA-job run
  C   0.70560379071121     -0.06325449222296      0.21632182197356
  C   -0.51007284788763     -0.11513147800458     -0.77053093784247
  Br  0.99108578116217     -1.84538108355256      0.99239980623739
  H   -0.25871107292111     -0.85264837261260     -1.53665714916220
  H   -0.55212160277648      0.86910758616825     -1.24796911526562
  C   1.91782280218497      0.32828314002308     -0.49384222481455
  N   2.85397625267040      0.65495935311644     -1.12581757862817
  C   0.41394096432774      0.86533206276629      1.30375385541291
  N   0.10015929263010      1.62823423862715      2.14144566520359
  N   -1.78465012781464     -0.41885451974431     -0.19402112436278
  H   -2.07971257552336      0.28035570766551      0.47471652488276
  H   -1.79732065676336     -1.33100214222972      0.24120045636557
