12
Coordinates from ORCA-job run
  C   0.63955256317686      0.31411609247405      0.19786717948404
  C   -0.50808922369105     -0.13191639983804     -0.77047256026740
  Br  0.29896102720648      2.14966568586853      0.80999208461665
  H   -0.21043879876793     -1.11088400544829     -1.15970439921826
  H   -0.50822051691319      0.57713709280598     -1.60191189983589
  C   0.66070621731130     -0.55860235489692      1.36734748541122
  N   0.61166739105370     -1.30151641423477      2.27723098560326
  C   1.92355047276960      0.29133462412587     -0.49338795183806
  N   2.92799687902636      0.24500004645946     -1.10284437428841
  N   -1.81925375657359     -0.22418545620705     -0.20303419871065
  H   -1.87139311703875     -0.91666902156144      0.53248470100731
  H   -2.14503913755979      0.66652011045265      0.14643294803618
