16

C	0.0	0.0	0.0
C	-0.326759	-0.207645	-1.503871
Cl	1.834351	0.0	0.0
H	0.190986	-1.13974	-1.758186
C	-0.365384	1.35605	0.45035
N	-0.639272	2.439211	0.817501
N	-0.548312	-1.066232	0.774128
H	-1.566713	-1.02975	0.671487
H	-0.339567	-0.921286	1.756447
C	0.286883	0.86306	-2.298143
N	0.73896	1.703378	-2.983008
C	-1.804485	-0.320631	-1.863904
H	-2.262308	-1.202797	-1.422949
H	-1.87598	-0.392798	-2.9526
H	-2.384353	0.532137	-1.519596
Cl	-4.38111	0.0	0.0
