16

C	0.0	0.0	0.0
C	-0.413218	-0.020706	-1.525412
Cl	1.791466	0.0	0.0
H	0.516134	0.156398	-2.074069
C	-0.34114	1.298529	0.62222
N	-0.51403	2.310637	1.195491
N	-0.497887	-1.137876	0.706378
H	-0.245457	-1.047536	1.685778
H	-1.525125	-1.056845	0.641882
C	-1.259585	1.103396	-1.940148
N	-1.757546	2.031233	-2.461969
C	-0.964801	-1.366642	-1.996101
H	-1.944598	-1.542081	-1.557445
H	-0.279399	-2.167171	-1.716059
H	-1.061318	-1.338415	-3.084873
Cl	-3.381368	0.0	0.0
