16

C	0.0	0.0	0.0
C	-0.49696	0.181706	-1.459167
Cl	1.793047	0.0	0.0
H	-1.593323	0.122726	-1.350036
C	-0.383876	1.185675	0.787401
N	-0.606799	2.136111	1.439991
N	-0.481138	-1.176705	0.662525
H	-1.503179	-1.076574	0.69895
H	-0.257764	-1.986855	0.09147
C	-0.052633	-0.95941	-2.254672
N	0.304265	-1.870371	-2.905765
C	-0.113469	1.505068	-2.115831
H	-0.552772	1.55881	-3.114075
H	-0.512679	2.331032	-1.525134
H	0.969255	1.612178	-2.200997
Cl	-3.476366	0.0	0.0
