16

C	0.0	0.0	0.0
C	-0.36432	-0.225579	-1.532328
Cl	1.850187	0.0	0.0
H	0.571298	-0.127248	-2.087653
C	-0.338567	1.367789	0.417531
N	-0.500606	2.476357	0.77097
N	-0.477163	-0.92014	0.970133
H	-1.496845	-0.771241	1.007227
H	-0.301556	-1.867624	0.657164
C	-1.21316	0.81952	-2.110402
N	-1.694459	1.681586	-2.748544
C	-0.916657	-1.623849	-1.798314
H	-1.85856	-1.753721	-1.267422
H	-1.096595	-1.739313	-2.869906
H	-0.187835	-2.383203	-1.499043
Cl	-3.343965	0.0	0.0
