16

C	0.0	0.0	0.0
C	-0.408015	-0.018322	-1.526371
Cl	1.801559	0.0	0.0
H	0.525385	0.144883	-2.072397
C	-0.333283	1.29759	0.627107
N	-0.50237	2.308263	1.204136
N	-0.496881	-1.137314	0.704745
H	-1.52417	-1.059557	0.637331
H	-0.248909	-1.044932	1.684644
C	-1.233765	1.12127	-1.938188
N	-1.713196	2.071706	-2.435351
C	-0.980387	-1.355196	-1.998952
H	-0.319118	-2.169231	-1.701429
H	-1.058392	-1.331931	-3.08908
H	-1.970735	-1.50365	-1.574758
Cl	-3.380958	0.0	0.0
