16

C	0.0	0.0	0.0
C	-0.588522	0.137458	-1.408517
Cl	1.838024	0.0	0.0
H	-1.683253	0.068872	-1.209874
C	-0.343382	1.17915	0.811833
N	-0.527096	2.110243	1.503083
N	-0.489196	-1.165062	0.617927
H	-0.176403	-1.271867	1.571576
H	-0.32196	-1.999038	0.071893
C	-0.179013	-1.011548	-2.211107
N	0.155993	-1.931015	-2.861685
C	-0.253764	1.453564	-2.102518
H	-0.648958	2.282482	-1.513145
H	0.823572	1.578301	-2.230532
H	-0.733828	1.478018	-3.082227
Cl	-3.662228	0.0	0.0
