18

C	0.0	0.0	0.0
C	-0.568618	-0.018485	-1.414922
F	1.347288	0.0	0.0
H	-1.649323	0.140464	-1.33312
N	-0.313139	1.37778	0.676747
O	0.038135	1.449365	1.853887
O	-0.846305	2.268298	0.029352
N	-0.526935	-1.052452	0.755738
H	-1.552729	-0.98624	0.698673
H	-0.236547	-0.929974	1.720632
C	-0.25419	-1.333112	-2.112036
H	0.827009	-1.481913	-2.178068
H	-0.685128	-1.320229	-3.11364
H	-0.690568	-2.152941	-1.544491
N	-0.052835	1.083474	-2.293125
O	-0.718394	1.291772	-3.304148
O	0.997445	1.658422	-2.016062
Cl	-3.5713	0.0	0.0
