18

C	0.0	0.0	0.0
C	-0.270294	0.214397	-1.508545
F	1.375049	0.0	0.0
H	0.397157	1.030286	-1.774895
N	-0.28708	1.342358	0.75702
O	-0.269922	2.387618	0.116109
O	-0.418043	1.244591	1.972286
N	-0.585031	-1.094301	0.598425
H	-1.588834	-1.083738	0.387218
H	-0.465403	-1.046511	1.604047
C	-1.640827	0.449584	-2.088088
H	-2.30271	-0.397236	-1.948758
H	-1.505702	0.651827	-3.156135
H	-2.117412	1.302356	-1.613784
N	0.337256	-0.98	-2.205599
O	1.425192	-0.814381	-2.76214
O	-0.307111	-2.024943	-2.210125
Cl	-3.913216	0.0	0.0
