18

C	0.0	0.0	0.0
C	-0.591599	-0.254931	-1.387361
F	1.37477	0.0	0.0
H	-1.408306	0.458259	-1.515944
N	-0.283327	1.448989	0.477609
O	0.142462	1.686586	1.606319
O	-0.850662	2.240406	-0.256726
N	-0.52834	-0.820416	0.980526
H	-0.634546	-1.788945	0.737087
H	-0.126623	-0.654732	1.889256
C	-1.110978	-1.657074	-1.606184
H	-1.414523	-1.764128	-2.648551
H	-2.004639	-1.76429	-0.987851
H	-0.357088	-2.419002	-1.396904
N	0.477368	0.095819	-2.387485
O	0.719825	1.287953	-2.553582
O	1.057838	-0.825913	-2.958319
Cl	-3.828371	0.0	0.0
