15

C	0.0	0.0	0.0
C	-0.525024	-0.006657	-1.427815
Cl	1.776712	0.0	0.0
H	-1.611619	0.126344	-1.386614
H	-0.022161	0.748446	-2.022379
N	-0.33225	1.421788	0.588967
O	-0.397568	2.365053	-0.188503
O	-0.444591	1.473367	1.805806
N	-0.521135	-1.040325	0.759116
H	-1.54432	-1.033873	0.651497
H	-0.274789	-0.926662	1.734516
N	-0.245047	-1.324525	-2.060827
O	-1.059795	-2.225608	-1.887692
O	0.786054	-1.416263	-2.732406
Br	-3.688864	0.0	0.0
