15

C	0.0	0.0	0.0
C	-0.530095	-0.009298	-1.414887
Cl	1.826226	0.0	0.0
H	-1.629866	-0.074111	-1.339527
H	-0.201906	0.87219	-1.952261
N	-0.291894	1.393831	0.62389
O	-0.335182	1.422231	1.844171
O	-0.396579	2.349412	-0.132901
N	-0.530251	-0.969651	0.79429
H	-0.912503	-1.788176	0.355545
H	-0.226497	-1.027699	1.748154
N	-0.013896	-1.184222	-2.163279
O	0.593927	-0.964605	-3.209921
O	-0.244155	-2.305122	-1.709284
Br	-3.757627	0.0	0.0
