13
Coordinates from ORCA-job run
  C   -0.65303800776355      0.23848152770474     -0.05255162436097
  C   0.86917428700359      0.34692780863157     -0.03606166253238
  F   -1.06979926375231      0.42632731588843      1.29257214114812
  H   1.22081402421862      0.29267955012900     -1.06780214598304
  H   1.13109211158757      1.32969144490286      0.37353466065363
  C   -1.25792422343152      1.34827283591711     -0.81350307414399
  N   -1.71394344686645      2.24132064596105     -1.42285362780014
  N   -1.05302033268360     -1.00117731180322     -0.57695288153360
  H   -2.04680587635556     -1.15714480620176     -0.47663369545701
  H   -0.51040104966643     -1.73145903416757     -0.13009215102273
  N   1.39012297899685     -0.78609153608594      0.71822719538467
  H   2.35825055588665     -0.95379286983904      0.48244222451252
  H   1.33347824282612     -0.59403557103724      1.70967464113495
