13
Coordinates from ORCA-job run
  C   -0.63213241691495      0.11146536770831      0.01322443908061
  C   0.76428496298067     -0.33283059423426      0.41494963373199
  F   -0.98581114466126      1.18140654739446      0.82503316708053
  H   0.67239605839733     -0.71197581094939      1.44181257753105
  H   1.06728323545089     -1.16073309242890     -0.23286843090497
  C   -0.63976063025831      0.62806526692250     -1.37961789160256
  N   -0.70625878021208      0.95260903122101     -2.50602378468258
  N   -1.58681358926403     -0.92909602345818      0.25179677671317
  H   -2.50269510687572     -0.65368748535653     -0.08261401144558
  H   -1.31223500794575     -1.78064303697075     -0.22179073747061
  N   1.68446966550027      0.77480303852364      0.23149253453412
  H   2.64144434630115      0.45549218312455      0.29114884784321
  H   1.53582840750177      1.46612460850353      0.95445687959163
