13
Coordinates from ORCA-job run
  C   -0.74000644839829      0.09842476017933      0.13603794809651
  C   0.65792226109287     -0.00202690998514      0.74028488686075
  F   -1.61086855754046      0.23165867070698      1.24101370562488
  H   0.81601377056070      0.92086879623612      1.31474151292507
  H   0.61414909835338     -0.82782761593439      1.45758871977108
  C   -0.89161448311941      1.34995716022833     -0.64095048269129
  N   -0.95748989835624      2.34367018093796     -1.26210380155713
  N   -1.04989943830512     -0.99640795459828     -0.68631044713083
  H   -0.72449545251402     -1.87159388710014     -0.30194749775477
  H   -2.03040469409631     -1.03231742522087     -0.92893100381476
  N   1.65758042615961     -0.30200292341833     -0.27022508307053
  H   2.57104845597125     -0.34897666958578      0.16339950399433
  H   1.68906496019204      0.43757381755420     -0.96259796125334
