13
Coordinates from ORCA-job run
  C   -0.61949637911276      0.02139647622540     -0.06975002835446
  C   0.83242869119663     -0.36717902027542      0.15362517518936
  F   -1.04911789759809      0.64505687440572      1.12784580259133
  H   0.83256685146140     -1.16376425158050      0.91564187419270
  H   1.20993898099675     -0.79221515484840     -0.77806506918796
  C   -0.74906350382088      1.04043755072104     -1.12823270546333
  N   -0.88461761043646      1.82825849352600     -1.98653541414588
  N   -1.40850070136204     -1.10371291546475     -0.39795191071263
  H   -1.35117133793009     -1.80660414989918      0.32785012753321
  H   -2.37558888154626     -0.85090130295663     -0.55414469223180
  N   1.59995910272506      0.81342176846723      0.49888022501985
  H   2.59061746568634      0.61943238683544      0.45461886552085
  H   1.37204521974041      1.11537324484404      1.43621775004873
