13
Coordinates from ORCA-job run
  C   -0.68103732108081      0.14114859932725     -0.01936547906733
  C   0.80126583380109      0.46993715080930      0.13230545663187
  F   -1.14454185281318     -0.17109372007692      1.28666886412852
  H   1.17336278166023      0.79793420615015     -0.83983812726917
  H   0.89028584893534      1.30134402193098      0.84155170071960
  C   -1.45199793537454      1.32670895354431     -0.44047652316801
  N   -2.05098221610186      2.27733460098036     -0.77859808526633
  N   -0.86112120386408     -0.91538983044482     -0.92682506922858
  H   -1.81755810452300     -1.24209597277796     -0.94947953831595
  H   -0.21481296614960     -1.65923076216049     -0.68932104522755
  N   1.49102104373682     -0.74943809699475      0.53379634646966
  H   1.39200492999411     -0.88896090080599      1.53060163926567
  H   2.47611116177948     -0.68719824948143      0.31797986032760
