13
Coordinates from ORCA-job run
  C   -0.80964740096343      0.06035336353184      0.24579664805500
  C   0.60771692035167      0.07105779356138      0.80984467039376
  F   -1.68593477365279      0.28323719193323      1.29614698884119
  H   0.64095763943859     -0.74923268477393      1.53023236562405
  H   0.75067376652862      1.01458357141765      1.35002413423926
  C   -0.98035769260238      1.20481107389663     -0.69068547448781
  N   -1.05348643765979      2.07627190616548     -1.47507276423673
  N   -1.07846515268956     -1.20516620139758     -0.33863607583054
  H   -0.25552947436061     -1.49668705226389     -0.85445238505566
  H   -1.88546060318613     -1.18449102389728     -0.94799178713490
  N   1.55588718781133     -0.18616308034456     -0.26613209031486
  H   1.77324963487602      0.66945989553599     -0.76240557164350
  H   2.42039638610846     -0.55703475336496      0.10333134155077
