13
Coordinates from ORCA-job run
  C   -0.79803469869259      0.09729572056117      0.26937400849695
  C   0.63335331985549      0.02940837436982      0.79274259062007
  F   -1.63249486288226      0.35131787426928      1.34661624404900
  H   0.64480101334680     -0.80104285214062      1.50203572522614
  H   0.83871371183733      0.95747412467795      1.33967577282691
  C   -0.93592616227611      1.26047082307508     -0.64887336732066
  N   -0.98371781780290      2.14704684504632     -1.41813071670900
  N   -1.14732376063325     -1.14638532617510     -0.31970535759997
  H   -0.35643827212897     -1.47171649327985     -0.86469406213286
  H   -1.97064977271854     -1.07777433310379     -0.90329084835034
  N   1.53628487569909     -0.26074024088079     -0.31322610040598
  H   1.77758191193855      0.58913651333143     -0.80846887254762
  H   2.39385051445733     -0.67349102975088      0.02694498384736
