13
Coordinates from ORCA-job run
  C   -0.63629317051017      0.07921504434001     -0.00671406828353
  C   0.75669976032998     -0.38670252705239      0.38098751368580
  F   -1.09590972405103      0.92058046039747      0.99931740847919
  H   0.62686430243608     -0.99502924454498      1.28635397004526
  H   1.14415460466078     -1.03027159295659     -0.41447195144111
  C   -0.59215111853273      0.90039204449702     -1.24385117631292
  N   -0.61287215715028      1.46427431902666     -2.27350872518441
  N   -1.54385166993312     -1.02604030715508     -0.07526430053787
  H   -2.45191473387003     -0.71990471321860     -0.40403313477606
  H   -1.19382577816514     -1.73749033609185     -0.70456049544334
  N   1.62189999592274      0.77105575104206      0.51693699185796
  H   1.38841647042834      1.27469669849322      1.36226698427335
  H   2.58978321843458      0.48622440322298      0.57554098363771
