13
Coordinates from ORCA-job run
  C   -0.64008037492428      0.05962518320433      0.04253471763860
  C   0.78707770766272     -0.40654474667918      0.27698314042428
  F   -1.05274076601851      0.74129479365669      1.18196499245775
  H   1.13941999156344     -0.92111742713909     -0.62189671573604
  H   0.73039496581890     -1.13672204226443      1.09576975507622
  C   -0.69717112478546      1.04272265275821     -1.06947861467112
  N   -0.78602177215973      1.73582451946189     -2.01302869589523
  N   -1.52035148410138     -1.05569893380470     -0.12249145387032
  H   -2.45168403842600     -0.74490600187011     -0.37105102442129
  H   -1.18075086229577     -1.67971706054756     -0.84312414140696
  N   1.62893521177195      0.75049548156713      0.52142443783787
  H   1.43835666902525      1.12278440386133      1.44222728180908
  H   2.60561587686884      0.49395917779555      0.48016632075718
