13
Coordinates from ORCA-job run
  C   -0.56055851987618      0.20364329284358      0.03031363251231
  C   0.96014518268615      0.39499728036600      0.05598624932066
  F   -1.03984105978254      0.33112390644503      1.32457014269894
  H   1.16306835974068      1.42209841180323      0.36912305007314
  H   1.33818183612059      0.28642897635100     -0.96630843821384
  C   -1.20768422664285      1.27471915703037     -0.76861410367721
  N   -1.68466629199233      2.09466606666713     -1.46184714522307
  N   -0.89163332792442     -1.12504523421717     -0.40107797450160
  H   -1.89504765234420     -1.26504201126733     -0.37040253806841
  H   -0.57354416297980     -1.27864791050088     -1.35059252084960
  N   1.65216052338033     -0.52000112052970      0.93729995732542
  H   1.38214783291750     -1.46956575404579      0.71127898529750
  H   1.35627150669708     -0.34837506094546      1.89027070330576
