13
Coordinates from ORCA-job run
  C   -0.58147439594248      0.02510137363982     -0.07797995381367
  C   0.78011073238375     -0.36435075004262      0.50543985748258
  F   -0.98435577781663      1.20167979402405      0.59927285639189
  H   0.60271050957185     -0.62805421834735      1.55438176859516
  H   1.12421838326092     -1.26277985025353     -0.01064885976746
  C   -0.44507060583866      0.40908292248748     -1.49664014686661
  N   -0.28227604929003      0.70861495225279     -2.61953221586100
  N   -1.51783443112917     -1.02128661209669      0.05055693199508
  H   -1.59635274362208     -1.31923452189752      1.01453801199985
  H   -2.42922962504512     -0.76417770870521     -0.30581632701286
  N   1.80034537090714      0.65716220001380      0.44686120807045
  H   1.45409184923477      1.51840784576154      0.84854500750846
  H   2.07511678332574      0.83983457316345     -0.50997813872186
