13
Coordinates from ORCA-job run
  C   -0.68763200888513      0.08433421492944      0.16685803765875
  C   0.69002010581692      0.04033370706317      0.83640730009540
  F   -1.63766369090320      0.26394295401781      1.18889177777934
  H   0.69535097773696     -0.84525476021690      1.48226801202069
  H   0.77369896117287      0.91281589069703      1.48731873658363
  C   -0.79188834605342      1.25893204959727     -0.72142975636758
  N   -0.84305480795594      2.20531574647182     -1.41352311405409
  N   -0.91653928714946     -1.09343412898591     -0.58507161141399
  H   -1.80279073843446     -1.06722483942576     -1.07318260572268
  H   -0.88432992143947     -1.90657125561645      0.01839811003541
  N   1.81500426953464     -0.00582839605341     -0.07020121784709
  H   1.92300147126401      0.87838525460531     -0.55069744702974
  H   1.66782301529570     -0.72474643708343     -0.76703622173802
