13
Coordinates from ORCA-job run
  C   -0.56129610003967      0.18387692155693     -0.08770972275109
  C   0.89289529643999      0.40691144587078      0.34297988136884
  F   -1.35127242193366      0.12809532498657      1.04949334979231
  H   0.95400112266263      1.38835584770161      0.81963542500450
  H   1.51672143060112      0.44292452174780     -0.55662470245917
  C   -1.05044019984591      1.33520428277752     -0.88728548413365
  N   -1.38706043822300      2.23506046182368     -1.56347564292676
  N   -0.70035462832650     -1.08421072298418     -0.74672381742541
  H   -0.15102224621367     -1.10341742663056     -1.59767159494017
  H   -1.67118765098664     -1.25124996024713     -0.98532727396429
  N   1.39701616276100     -0.59927818041616      1.25193758820262
  H   0.86317694799269     -0.56554020557486      2.11160447198803
  H   1.24982272511160     -1.51673231061199      0.84916752224424
