13
Coordinates from ORCA-job run
  C   -0.68764003712997      0.07100214262750      0.10006133160618
  C   0.74080013832071     -0.30346752064554      0.47832101098063
  F   -1.20453163561460      0.91407647823951      1.05901537814838
  H   1.06352982650072     -1.13518616900569     -0.16474880034883
  H   0.67036317010638     -0.68106980495461      1.50047935370586
  C   -0.68479622315823      0.83206663382981     -1.17913833228836
  N   -0.66944831587448      1.34988587811974     -2.23316713932555
  N   -1.52016729904798     -1.09714740599617      0.07982245011723
  H   -2.47191507315925     -0.84351707277384     -0.15826632847902
  H   -1.18475377906892     -1.76778045391402     -0.60011771895765
  N   1.59524639323343      0.86735047367945      0.42829887718907
  H   2.06000321924566      0.95102325363096     -0.46492459739047
  H   2.29530961564655      0.84176356716288      1.15436451504250
