13
Coordinates from ORCA-job run
  C   -0.60617419331973      0.20490098949433     -0.02757191791461
  C   0.88005664872081      0.51746361782316      0.18630122288486
  F   -1.16116967085001      0.01935122975004      1.26259641026838
  H   0.93134275267221      1.38119616465553      0.85358270502793
  H   1.31017471619432      0.80552244796005     -0.77494645433593
  C   -1.30389920795505      1.36394711152093     -0.61243621063755
  N   -1.84694400324738      2.30489035593299     -1.05641739711749
  N   -0.79490449333288     -0.92836866715412     -0.84927599120777
  H   -1.77658235890052     -1.13732678200388     -0.97810346801295
  H   -0.33067731158786     -1.73058020776060     -0.44409940716842
  N   1.65486224434134     -0.56379863946092      0.75436822387029
  H   1.82259884550347     -1.30943165713184      0.09416625211836
  H   1.22031603176127     -0.92876596362566      1.59083603222491
