13
Coordinates from ORCA-job run
  C   -0.61665341702648      0.00550013102607      0.01249869089395
  C   0.77833701956382     -0.44616696334171      0.45238240514775
  F   -1.17161756849835      0.74408025476627      1.05086477400534
  H   1.23064046275829     -1.03346539959000     -0.35292947104887
  H   0.61673954906913     -1.11042641821441      1.30568940417341
  C   -0.50273553133976      0.94679744931694     -1.13298004375654
  N   -0.37288540791638      1.64463307502736     -2.06895307211673
  N   -1.46585710240795     -1.11467972258728     -0.22447639194842
  H   -2.34012140827111     -0.84048466544168     -0.65451564842227
  H   -1.00896879669061     -1.80787303221439     -0.80200820778166
  N   1.68210936708319      0.61566150116837      0.83092896445046
  H   1.25816847091019      1.19460278201416      1.54383962112479
  H   1.91284436276604      1.20182100807028      0.03865897527878
