13
Coordinates from ORCA-job run
  C   -0.56429615418030      0.19239743100867     -0.04304947392753
  C   0.92325533400841      0.39495658675901      0.26744852704155
  F   -1.26060862083522      0.15493923279955      1.15454065873290
  H   1.03806555327980      1.37807610047952      0.73059009825879
  H   1.47307082097796      0.41645678238745     -0.67968472086174
  C   -1.09903707171563      1.34637710843839     -0.80859405773707
  N   -1.47584418801233      2.24024552474385     -1.47141328195598
  N   -0.77414156043122     -1.07680652003550     -0.68036840007093
  H   -1.76259402827114     -1.23028338403207     -0.84390150543518
  H   -0.29109897072952     -1.11027040116964     -1.57024079769185
  N   1.48346468432801     -0.61375402383685      1.14007047254827
  H   1.02696679527489     -0.56098018111889      2.04226726588944
  H   1.28279740630632     -1.53135425642350      0.76133521520936
