13
Coordinates from ORCA-job run
  C   -0.69732476265640      0.12025057736272      0.09225076432475
  C   0.60266831302513      0.04038091783652      0.89992716126815
  F   -1.73526802725565      0.37850490035986      1.00641084165317
  H   0.66027179026765      0.93095324852696      1.52878189789469
  H   0.50102561996212     -0.82162193757380      1.56922604174173
  C   -0.65570212560757      1.26530582588772     -0.83885015039600
  N   -0.58119088977157      2.19023923552384     -1.55733555240461
  N   -0.90547425895012     -1.07292109601907     -0.64116947777078
  H   -0.97139715234961     -1.86424532529712     -0.01192242300578
  H   -1.73744774790834     -1.02634635589657     -1.21572057852219
  N   1.81007292232034     -0.08622749994069      0.11579171123943
  H   1.70398681032437     -0.82631264846912     -0.56610776647338
  H   2.00477950859963      0.77304015769877     -0.38228246954918
