18

C	-0.477377	0.029969	-1.450146
C	0.0	0.0	0.0
F	0.223146	-0.881492	-2.231896
H	1.095497	0.0	0.0
C	-1.964395	-0.241392	-1.660628
H	-2.191264	-1.247855	-1.313213
H	-2.566897	0.487402	-1.113404
H	-2.200901	-0.16996	-2.724696
C	-0.170785	1.363601	-2.017478
N	-0.000225	2.414326	-2.513965
N	-0.440913	-1.234938	0.665546
O	-0.625941	-1.207835	1.887731
O	-0.543983	-2.2677	-0.006073
C	-0.415262	1.214644	0.810392
H	-1.501172	1.301871	0.947553
H	-0.034348	2.115666	0.326624
H	0.052834	1.146289	1.790699
F	2.500272	0.0	0.0
