18

C	-0.503048	0.020971	-1.439551
C	0.0	0.0	0.0
F	0.18314	-0.89469	-2.233755
H	1.096204	0.0	0.0
C	-1.992932	-0.255241	-1.616573
H	-2.586084	0.467846	-1.051333
H	-2.255512	-0.180905	-2.674127
H	-2.2094	-1.264505	-1.267241
C	-0.201096	1.349271	-2.017513
N	0.013267	2.385962	-2.524041
N	-0.437475	-1.22631	0.686389
O	-0.626387	-1.181191	1.905958
O	-0.534513	-2.268059	0.029464
C	-0.388819	1.226824	0.804375
H	0.07265	1.145985	1.786687
H	0.025917	2.11078	0.321052
H	-1.469295	1.350897	0.937465
F	2.499314	0.0	0.0
