18

C	-0.299161	0.093915	-1.491852
C	0.0	0.0	0.0
F	-1.63845	0.481339	-1.722177
H	1.091965	0.0	0.0
C	0.644583	1.127311	-2.098257
H	0.614979	1.082571	-3.188651
H	0.335641	2.124619	-1.780674
H	1.644892	0.908043	-1.702612
C	-0.13576	-1.165433	-2.245289
N	-0.092066	-2.075289	-2.986612
N	-0.516836	-1.24929	0.60471
O	-1.266614	-1.171509	1.584409
O	-0.136206	-2.315382	0.120794
C	-0.491277	1.211312	0.764384
H	0.019165	2.09579	0.382809
H	-1.571602	1.348539	0.697553
H	-0.215214	1.103112	1.812525
F	2.586881	0.0	0.0
