18

C	-0.270517	-0.104169	-1.521712
C	0.0	0.0	0.0
F	-0.201366	1.209025	-2.016198
H	1.091364	0.0	0.0
C	0.796288	-0.90412	-2.252751
H	0.634625	-1.970045	-2.105291
H	1.747509	-0.614002	-1.790351
H	0.759204	-0.656865	-3.316547
C	-1.644715	-0.561437	-1.81745
N	-2.739623	-0.908829	-2.066846
N	-0.464209	-1.230806	0.66407
O	-0.272896	-2.306373	0.08878
O	-0.987675	-1.146734	1.777425
C	-0.589169	1.231005	0.642744
H	-0.138963	2.107547	0.179036
H	-1.678682	1.280258	0.539599
H	-0.340649	1.235236	1.703059
F	2.581289	0.0	0.0
