13
Coordinates from ORCA-job run
  C   1.10918061028483     -0.18719671554461      0.18711400371271
  C   -0.23660463391503      0.33780122344431     -0.29496632887952
  Cl  1.12736085766815     -0.54353017940958      1.92436340617271
  H   -0.15280420698639      0.73818997061105     -1.30642901216343
  H   1.82241006571643      0.62665826526605      0.03111381897902
  C   1.51786947237898     -1.33503514287387     -0.61413534220252
  N   1.86551213167970     -2.22365359941526     -1.29880044926113
  N   -0.65461034261220      1.48959264477651      0.58675279364011
  O   0.10341793507663      2.44921983708071      0.52678331561296
  O   -1.65452161624578      1.36196144014707      1.27513924892652
  N   -1.34169067476700     -0.67137273470766     -0.32613529363817
  O   -2.31735191023418     -0.32501235812211     -0.98303531992666
  O   -1.18916768804413     -1.71762265125262      0.29223515902740
