11

C	0.0	0.0	0.0
C	-0.375087	0.103041	-1.494628
Cl	1.783919	0.0	0.0
H	-0.219789	-0.884119	-1.941684
H	-0.345278	0.866018	0.551462
H	0.348283	0.772869	-1.970798
C	-0.46736	-1.225031	0.641795
N	-0.591305	-2.271191	1.165429
C	-1.716816	0.582295	-1.859992
N	-2.481824	1.064662	-2.620564
F	-2.357089	0.0	0.0
