11

C	0.0	0.0	0.0
C	-0.536512	-0.146057	-1.420069
Cl	1.781626	0.0	0.0
H	-0.241522	-1.113219	-1.836901
H	-0.360038	0.933942	0.424032
H	-1.661347	-0.097771	-1.166156
C	-0.440149	-1.098657	0.863466
N	-0.648915	-1.947103	1.647301
C	-0.08277	0.922752	-2.287223
N	0.261915	1.792369	-3.000187
F	-2.610607	0.0	0.0
