11

C	0.0	0.0	0.0
C	-0.561276	0.209547	-1.401153
Cl	1.781681	0.0	0.0
H	-0.291069	-0.630028	-2.047249
H	-0.354358	0.797725	0.648389
H	-1.688588	0.196964	-1.109245
C	-0.447405	-1.276938	0.569049
N	-0.641012	-2.313105	1.087846
C	-0.114157	1.455232	-1.988151
N	0.221436	2.472805	-2.473846
F	-2.637781	0.0	0.0
