11

C	0.0	0.0	0.0
C	-0.498957	-0.184805	-1.433469
Cl	1.783047	0.0	0.0
H	-0.144636	0.654634	-2.039634
H	-0.371088	0.951092	0.369133
H	-1.615091	-0.141829	-1.236429
C	-0.457426	-1.068321	0.889746
N	-0.606587	-1.959995	1.639076
C	-0.046447	-1.426169	-2.036864
N	0.308463	-2.418531	-2.557911
F	-2.569189	0.0	0.0
