11

C	0.0	0.0	0.0
C	-0.452923	-0.230559	-1.446849
Cl	1.779243	0.0	0.0
H	-1.562845	-0.161942	-1.3249
H	-0.374111	0.964466	0.325615
H	-0.040942	0.570572	-2.068513
C	-0.474451	-1.044263	0.906385
N	-0.627823	-1.95271	1.635539
C	-0.003475	-1.508824	-1.975909
N	0.363146	-2.536871	-2.411222
F	-2.519552	0.0	0.0
