16

C	-0.533813	-0.078717	-1.420489
C	0.0	0.0	0.0
F	-1.893092	-0.254651	-1.389816
H	1.086922	0.0	0.0
H	-0.407029	0.876063	0.502502
N	-0.294608	1.301402	-2.033571
O	0.877785	1.595668	-2.229046
O	-1.276071	1.995013	-2.283668
C	0.102525	-1.102607	-2.319752
H	1.186171	-1.00121	-2.274021
H	-0.258656	-0.955885	-3.340519
H	-0.179528	-2.095066	-1.973539
N	-0.490649	-1.17221	0.765498
O	-0.07413	-2.282085	0.436651
O	-1.285733	-0.9598	1.682111
Cl	3.334931	0.0	0.0
