16

C	-0.413848	0.01964	-1.461818
C	0.0	0.0	0.0
F	-0.064344	-1.204171	-1.95605
H	1.09032	0.0	0.0
H	-0.405227	-0.887547	0.481827
N	-1.93768	0.089177	-1.565563
O	-2.542469	-0.889673	-1.986604
O	-2.442223	1.150562	-1.201778
C	0.200893	1.098048	-2.310926
H	-0.069202	0.922085	-3.354864
H	1.283789	1.030446	-2.184957
H	-0.136468	2.080739	-1.991358
N	-0.469765	1.173632	0.772534
O	-1.21659	0.952766	1.727753
O	-0.064001	2.282544	0.436296
Cl	3.287262	0.0	0.0
