16

C	-0.673537	0.025514	-1.358701
C	0.0	0.0	0.0
F	-0.298492	1.208796	-1.951735
H	1.089957	0.0	0.0
H	-0.331259	0.886764	0.541455
N	-0.139321	-1.059037	-2.292316
O	-0.935262	-1.904559	-2.698586
O	1.041401	-0.965806	-2.592429
C	-2.178614	-0.029643	-1.307335
H	-2.584528	0.081822	-2.312203
H	-2.528672	0.794936	-0.683372
H	-2.52215	-0.976782	-0.897872
N	-0.453019	-1.163802	0.792266
O	-0.462594	-2.256248	0.224137
O	-0.76671	-0.974108	1.966465
Cl	3.295047	0.0	0.0
