16

C	-0.532927	0.000885	-1.421672
C	0.0	0.0	0.0
F	-0.005951	1.024816	-2.137176
H	1.089514	0.0	0.0
H	-0.388048	-0.864751	0.530714
N	-0.05599	-1.295806	-2.075966
O	0.497397	-1.216134	-3.161482
O	-0.341144	-2.326859	-1.47258
C	-2.038726	0.027311	-1.560839
H	-2.297332	-0.041802	-2.619896
H	-2.48698	-0.801649	-1.01491
H	-2.421746	0.968318	-1.165307
N	-0.538449	1.196434	0.689105
O	-0.01487	2.281845	0.459077
O	-1.520725	1.025746	1.422409
Cl	3.287881	0.0	0.0
