16

C	-0.53891	-0.001412	-1.42357
C	0.0	0.0	0.0
F	-0.116628	1.167875	-1.986737
H	1.089199	0.0	0.0
H	-0.367674	0.916693	0.463149
N	0.092628	-1.13472	-2.218546
O	-0.161024	-2.255738	-1.784534
O	0.730975	-0.861431	-3.223218
C	-2.033428	-0.115222	-1.608193
H	-2.521514	0.696964	-1.068947
H	-2.25316	-0.023859	-2.675088
H	-2.406499	-1.063963	-1.231543
N	-0.543684	-1.111787	0.821994
O	0.192176	-2.046997	1.1085
O	-1.721251	-0.997612	1.184797
Cl	3.34459	0.0	0.0
