15

C	-0.526354	0.042931	-1.447116
C	0.0	0.0	0.0
Cl	0.348821	1.212866	-2.487437
H	1.099444	0.0	0.0
C	-0.316324	-1.283186	-2.043928
N	-0.18627	-2.309092	-2.601112
C	-1.96625	0.332011	-1.500572
N	-3.122291	0.543354	-1.52739
N	-0.414631	-1.213755	0.63023
H	0.364574	-1.564052	1.172589
H	-1.208668	-1.08071	1.242897
N	-0.44975	1.20526	0.744844
O	-0.664578	2.243823	0.117737
O	-0.533942	1.104908	1.970576
F	2.477446	0.0	0.0
