15

C	-0.484801	0.090931	-1.464475
C	0.0	0.0	0.0
Cl	0.006834	-1.422262	-2.298619
H	1.099936	0.0	0.0
C	-1.947809	0.176675	-1.528187
N	-3.121135	0.243521	-1.52332
C	0.117493	1.189766	-2.226457
N	0.576337	2.004357	-2.938358
N	-0.448978	-1.188639	0.636632
H	-1.238647	-1.025785	1.245901
H	0.314688	-1.562751	1.183167
N	-0.448675	1.223556	0.716084
O	-0.657437	2.247411	0.056994
O	-0.553451	1.157062	1.940968
F	2.475441	0.0	0.0
