15

C	-0.486732	0.05099	-1.466347
C	0.0	0.0	0.0
Cl	-0.006771	-1.487505	-2.257844
H	1.090238	0.0	0.0
C	-1.950116	0.14266	-1.530832
N	-3.125096	0.180099	-1.524128
C	0.122236	1.124606	-2.258575
N	0.578513	1.938463	-2.972437
N	-0.448231	-1.170072	0.673379
H	0.318621	-1.513681	1.236025
H	-1.242934	-0.989653	1.271629
N	-0.445514	1.246293	0.682389
O	-0.518252	1.222527	1.911418
O	-0.675692	2.244286	-0.006915
F	2.479064	0.0	0.0
