15

C	-0.382002	-0.082061	-1.490484
C	0.0	0.0	0.0
Cl	0.089063	1.408182	-2.367452
H	1.090649	0.0	0.0
C	0.38288	-1.20052	-2.060921
N	0.882555	-2.14426	-2.551034
C	-1.80328	-0.358011	-1.740178
N	-2.916566	-0.679561	-1.939726
N	-0.420863	-1.134193	0.755192
H	-1.263125	-1.593982	0.435109
H	0.353693	-1.776271	0.848744
N	-0.609576	1.222183	0.607313
O	-1.682735	1.62974	0.144934
O	-0.029004	1.714117	1.567919
F	2.50857	0.0	0.0
