15

C	-0.385745	-0.045307	-1.474341
C	0.0	0.0	0.0
Cl	-2.185958	-0.250787	-1.732126
H	1.096185	0.0	0.0
C	0.052987	1.101527	-2.271543
N	0.384301	1.988122	-2.967889
C	0.237945	-1.252761	-2.030372
N	0.716866	-2.22608	-2.480363
N	-0.389714	-1.137622	0.74821
H	0.38481	-1.778228	0.835647
H	-1.240562	-1.588752	0.447358
N	-0.494072	1.254996	0.636919
O	-0.318033	1.369505	1.843297
O	-1.000959	2.123359	-0.082937
F	2.472762	0.0	0.0
