14
Coordinates from ORCA-job run
  C   0.91695435969518     -0.78146930896059      0.05704797820411
  C   -0.18575064755674      0.24750679807478     -0.26072521909066
  Br  0.76265191806277     -2.42096511449276     -0.99993279672069
  H   -0.04639077803409      0.55399366319750     -1.30301503241044
  H   0.83596306346820     -1.08223854364387      1.10430187213855
  C   2.23431290739152     -0.20344666419165     -0.17748578170912
  N   3.28614162782403      0.26934995699635     -0.39979774394548
  N   0.09175461457735      1.37655647893866      0.62323896651317
  H   0.12878431140165      2.25092103964245      0.11992780794464
  H   -0.60344545708456      1.45036576712933      1.35418448611372
  C   -1.58697768976714     -0.31624768696214     -0.07277269433496
  H   -2.31986670614833      0.47599452027843     -0.24098583995512
  H   -1.80237690387335     -1.13615261242479     -0.75690860105337
  H   -1.71075461995649     -0.68516829358170      0.95092259830563
