14
Coordinates from ORCA-job run
  C   1.21978113703300     -0.15342889078690     -0.36151024907369
  C   -0.10111652653194      0.59917802807125     -0.13135554815962
  Br  2.76487736317818      0.94198535562039      0.09246660690003
  H   0.00391189155589      1.56113415246808     -0.64327259188788
  H   1.33779614069527     -0.39936960483085     -1.41922246875793
  C   1.24702263156726     -1.38288454402419      0.42098175998937
  N   1.19684205078772     -2.36963767386215      1.05691835224487
  N   -0.25325415970586      0.86936362658816      1.28748221186509
  H   -0.90558387758252      1.62782665554250      1.43618682139920
  H   -0.60974977454446      0.05089317827551      1.76847723043936
  C   -1.25101627975571     -0.18921156780509     -0.76255907076188
  H   -2.18482379532866      0.36363633864004     -0.63616729848518
  H   -1.36600594722251     -1.16154653540838     -0.27463190587297
  H   -1.09768085414566     -0.35593851848837     -1.83279384983876
