15

C	-0.187064	0.001274	-1.521597
C	0.0	0.0	0.0
Cl	-0.128581	-1.746594	-2.16315
H	1.094626	0.0	0.0
H	-0.328784	1.00103	0.326925
N	-1.497496	0.472817	-1.961678
H	-1.564607	0.348245	-2.967016
H	-1.481325	1.475779	-1.793828
N	0.905902	0.766364	-2.022224
H	1.035702	0.62965	-3.015985
H	1.769094	0.525083	-1.490955
N	-0.615365	-1.088878	0.728905
H	-1.523927	-0.820763	1.081857
H	-0.018114	-1.319107	1.512672
F	2.765737	0.0	0.0
