15

C	0.040286	0.054313	-1.513925
C	0.0	0.0	0.0
Cl	-1.576883	0.066862	-2.364978
H	1.107454	0.0	0.0
H	-0.43054	-0.947548	0.327416
N	0.697496	1.315881	-1.851031
H	1.615031	1.221014	-1.39461
H	0.841131	1.353847	-2.854912
N	0.74995	-1.143581	-1.932347
H	1.635509	-1.075793	-1.411734
H	0.968877	-1.057718	-2.919123
N	-0.638653	1.158563	0.63213
H	-0.044677	1.422496	1.410222
H	-0.555873	1.916223	-0.037753
F	2.774123	0.0	0.0
