15

C	0.043661	-0.18131	-1.51739
C	0.0	0.0	0.0
Cl	-1.631604	-0.327064	-2.273267
H	1.107245	0.0	0.0
H	-0.422312	0.976891	0.251107
N	0.707165	0.948802	-2.153389
H	0.211401	1.799574	-1.903611
H	1.608901	0.969318	-1.661457
N	0.783818	-1.389227	-1.774609
H	1.012787	-1.392988	-2.763517
H	1.660787	-1.235203	-1.25369
N	-0.581005	-1.062894	0.797036
H	0.026159	-1.865827	0.709534
H	-1.46933	-1.329757	0.379979
F	2.746572	0.0	0.0
