15

C	-0.123877	-0.042156	-1.508756
C	0.0	0.0	0.0
Cl	-1.874471	-0.9703	-1.939869
H	1.094604	0.0	0.0
H	-0.347767	-0.95047	0.415673
N	-0.110984	1.217011	-2.055045
H	-0.700221	1.859693	-1.545351
H	-0.204089	1.219127	-3.057946
N	0.873866	-0.875451	-2.127648
H	1.736853	-0.60723	-1.614196
H	0.678462	-1.83544	-1.866686
N	-0.609972	1.180484	0.59869
H	0.054544	1.587725	1.244549
H	-1.443234	0.927815	1.113739
F	2.719733	0.0	0.0
