15
Coordinates from ORCA-job run
  C   1.04185744175331      0.22206253280898      0.28473616455567
  C   -0.28684726103693      0.21456934199954     -0.47059602463917
  Cl  2.26488657781318      1.16586630703709     -0.70100901292026
  H   -0.07714488076554     -0.13396253073373     -1.48898693185179
  H   0.93437775826521      0.80488935303742      1.20230919777503
  N   1.48878377547190     -1.08985689575103      0.60742579411121
  H   2.34117177581177     -1.05587784351153      1.15173906665759
  H   1.67998741520095     -1.61545927676393     -0.23807590825059
  N   -0.77088543579529      1.58756911786855     -0.57547314244925
  H   -1.28032631671297      1.83104779982857      0.26710664752455
  H   -1.41600773172898      1.67078717221182     -1.35029444556179
  C   -1.28542382934119     -0.73083868270625      0.19735705683416
  H   -2.24333012604095     -0.67436642236587     -0.32664423688340
  H   -1.44823708938549     -0.43142947678526      1.23790605739515
  H   -0.94286207350899     -1.76500049617438      0.20449971770290
