15
Coordinates from ORCA-job run
  C   0.97710560389656     -0.33943383001281      0.10683907803059
  C   -0.41427395368702      0.16614547681259     -0.25617858972036
  Cl  0.93977656808588     -1.46500837462532      1.49282247025000
  H   -0.23209831579206      0.81928886393526     -1.13360154738871
  H   1.36145899972190     -0.93449350976748     -0.73110004078171
  N   1.81927837705649      0.78835218847714      0.46973313699468
  H   1.99662026685044      1.34064346861490     -0.36310979292780
  H   2.71012513813992      0.45938403973744      0.82193850847612
  N   -0.98168609684857      0.87592959771908      0.87564574685624
  H   -0.28704567857584      1.51312800996649      1.24760908503555
  H   -1.79124961380296      1.40813906902549      0.58313228430289
  C   -1.34426794029266     -0.95157577665630     -0.69652890563662
  H   -1.54697848356751     -1.61534636853055      0.14397506755783
  H   -0.91280061325135     -1.52898747249284     -1.51921217359319
  H   -2.29496425793321     -0.53616538220310     -1.04096432745552
