15
Coordinates from ORCA-job run
  C   1.14454489093036      0.01152541324737     -0.26987257183781
  C   -0.34621653482318      0.25789384849579     -0.50892359792575
  Cl  1.76706352797262     -1.18780654493601     -1.45766779456995
  H   -0.46040891506598      0.52320270693009     -1.56963008453499
  H   1.69387632885293      0.92903954450281     -0.52278830253566
  N   1.35835526133732     -0.46727893224061      1.06501701673705
  H   2.34126847258938     -0.44153021332116      1.30413042265821
  H   0.84488876742479      0.15251520127194      1.68362634926584
  N   -0.72632589858088      1.34955460281003      0.39640274647298
  H   -0.41913188965649      2.23998629126368      0.02141930704175
  H   -1.73477219010709      1.39003086531186      0.48096158183300
  C   -1.20172261757757     -0.96169256415502     -0.20993090564769
  H   -1.13067695463776     -1.22804035163607      0.84435081001180
  H   -0.88275767554970     -1.81778435987054     -0.80352351274423
  H   -2.24698457310876     -0.74961550767418     -0.45357146422453
