15
Coordinates from ORCA-job run
  C   1.06714458830263     -0.35698636945561     -0.07588899169502
  C   -0.32784191814014      0.20024228942124     -0.35844188737726
  Cl  0.95418009401916     -1.60382762838238      1.28764777724107
  H   -0.20195426510497      0.76958728594949     -1.28800784169293
  H   1.42575905352491     -0.94157086649002     -0.92462375672850
  N   1.95247814542284      0.70378108296576      0.21057772705840
  H   2.88670870764155      0.37338606086314      0.41138343435964
  H   1.58854130879956      1.21751799647394      1.00566570164685
  N   -0.69554475395494      1.11810294888956      0.72082902204789
  H   -0.83290563677526      2.05564986895914      0.37187664362134
  H   -1.54361418753906      0.82169823643513      1.18291061635758
  C   -1.36990345157207     -0.88333434598580     -0.59283013663382
  H   -0.98331279006482     -1.67569195199405     -1.23842194350279
  H   -1.66328764595317     -1.34503513634116      0.35152751121385
  H   -2.25744724860622     -0.45451947130839     -1.06420387591630
