15
Coordinates from ORCA-job run
  C   1.04745758234930     -0.38271607181857      0.01428454897166
  C   -0.29670629055860      0.22419233349866     -0.37417416712328
  Cl  0.78989900536730     -1.43158805403619      1.53846012217702
  H   -0.07125290386300      0.80294662467946     -1.27746857287182
  H   1.37528283009810     -1.11506292919023     -0.72378729654921
  N   2.00561005969427      0.63116834987952      0.18623256520991
  H   1.63291918375545      1.34499384517593      0.80095876932399
  H   2.89054720733282      0.28227123547665      0.52633090407666
  N   -0.67580276612061      1.18658944003169      0.65867760091092
  H   -1.06684738953759      0.69284061551508      1.45322894222987
  H   -1.38558730562840      1.81478112100721      0.30397635373054
  C   -1.35667846544966     -0.81779987152712     -0.71111969004075
  H   -1.63936806344830     -1.38891210698885      0.17478889647744
  H   -0.99853632104002     -1.52032832361917     -1.46969731955155
  H   -2.24993636295104     -0.32437620808408     -1.10269165697141
