15
Coordinates from ORCA-job run
  C   1.15646385323655     -0.01133984685125     -0.24049916926988
  C   -0.30997365206534      0.27983516439472     -0.55744457472858
  Cl  1.75890000194291     -1.39993026316438     -1.19736854137378
  H   -0.35018995126543      0.59309723935089     -1.60618781642721
  H   1.74998480966091      0.84479355546474     -0.58019113527490
  N   1.30632426573964     -0.30941344238157      1.16931955057345
  H   1.15418761956073      0.56271889174781      1.66592661522933
  H   2.25640394420419     -0.60765664159294      1.35611033566654
  N   -0.66078497372348      1.43794498555255      0.27971306562904
  H   -1.30504003034023      2.04331723165512     -0.21183788811545
  H   -1.13691706763987      1.11238906006844      1.11355801477077
  C   -1.22987377038009     -0.91499629196327     -0.34249100036786
  H   -2.26755782642983     -0.61029144773918     -0.50054061940260
  H   -1.11733525518862     -1.28596103636759      0.67809386235109
  H   -1.00559196731204     -1.73350715817409     -1.02716069925997
