15
Coordinates from ORCA-job run
  C   1.15283375681007      0.25270954803418      0.14034656935775
  C   -0.24781930580612      0.22483584462208     -0.48711072189724
  Cl  2.27744864216945      1.05426206269959     -1.00178758252339
  H   -0.14067009173832     -0.19499977623756     -1.49425079776346
  H   1.12364018037072      0.88845540410479      1.03127751787377
  N   1.72787643895255     -1.01427536347984      0.51465520565798
  H   1.23437964592946     -1.40914480298635      1.30452078182162
  H   1.69688808643483     -1.66559793601336     -0.26064720256545
  N   -0.72651172740918      1.59511369144418     -0.63480535763627
  H   -1.48489514036535      1.63110746172083     -1.30398419486709
  H   -1.09001892155716      1.92789473654883      0.25182205136871
  C   -1.19180629296029     -0.66086324569309      0.32949066335657
  H   -0.89050905367166     -1.71016714199270      0.33420363408406
  H   -1.24342166261544     -0.31198505955171      1.36734806186908
  H   -2.19941455454354     -0.60534542321986     -0.08907862813663
