15
Coordinates from ORCA-job run
  C   1.06814685313710     -0.31583341889240     -0.05487578260582
  C   -0.33522333826986      0.20078675864659     -0.35469039177115
  Cl  0.98156243033983     -1.36198254264684      1.49051096102386
  H   -0.20859350790373      0.78224605956438     -1.27537388916420
  H   1.39178586807295     -1.03419503826499     -0.80838988416325
  N   1.96926015395766      0.75822448429036      0.04424355944058
  H   2.89576738889796      0.46955434978151      0.32491819149991
  H   1.59488581732421      1.45434555147825      0.67792392807883
  N   -0.70347297859404      1.14937839788225      0.69479659689580
  H   -1.47453218697234      1.72724123593936      0.38523757080682
  H   -1.00720704696964      0.64111910052861      1.51790000227072
  C   -1.34737272504915     -0.90941665230095     -0.61038337702090
  H   -2.29420738811945     -0.47778298887011     -0.94496803221562
  H   -1.53366422189774     -1.48568981125681      0.29744060089417
  H   -0.99713511795378     -1.59799548587921     -1.38529005396974
