15
Coordinates from ORCA-job run
  C   1.05438689783326      0.22176673288062     -0.18927271443156
  C   -0.42766012478321      0.26262754597540     -0.58046167462015
  Cl  1.94523348756173     -0.91771188281441     -1.33746973903134
  H   -0.46980666493425      0.42176425155233     -1.66201629445856
  H   1.50711617380910      1.19293900304048     -0.39500884720714
  N   1.23528347017177     -0.09519172400592      1.18203656014660
  H   2.19340590337845      0.04571771038758      1.47354055590317
  H   0.97888459532849     -1.05477171039539      1.37542081295945
  N   -1.11484190228316      1.37862250179711      0.06033456660981
  H   -0.92559046448991      1.34277961892606      1.05642052920058
  H   -0.74954846662630      2.25936661876310     -0.28442214651792
  C   -1.15726897216424     -1.02872120317093     -0.24121656926809
  H   -0.65708698019422     -1.90240787380271     -0.66255935575643
  H   -1.23881591974905     -1.15136396657573      0.84253556466031
  H   -2.17169103285847     -0.97641562255759     -0.63686124818873
