15
Coordinates from ORCA-job run
  C   1.07719458738578      0.05061943507855     -0.26198963807806
  C   -0.40786750109450      0.23905567865394     -0.59503896092486
  Cl  1.79438598046541     -1.22839585286120     -1.29140382104988
  H   -0.45869918494245      0.45588763179367     -1.66801243572129
  H   1.61348992563701      0.96365597047151     -0.55825422105758
  N   1.26650136218375     -0.32179596375026      1.12468324561899
  H   2.24665406937677     -0.50817538730749      1.29956912533969
  H   0.99598858926537      0.46269768548561      1.70686654966347
  N   -0.98572825371091      1.38235127295229      0.10699968675383
  H   -0.41421171654322      2.21378126858528      0.01408858327380
  H   -1.11574350865812      1.17620122512849      1.08975847697863
  C   -1.24431475079089     -0.99419135713262     -0.29785778823813
  H   -0.91072266049023     -1.84992616757031     -0.88395630457404
  H   -1.16968666276658     -1.26079427899185      0.75774366082546
  H   -2.28624027531719     -0.78197116053563     -0.54219615881003
