15
Coordinates from ORCA-job run
  C   1.09879483073682      0.26274631815477      0.16600509616321
  C   -0.31845652787609      0.19557658442770     -0.40370307521260
  Cl  2.10115973600495      1.27440355104154     -0.95374131971956
  H   -0.23717480707009     -0.25061918548712     -1.41067843196817
  H   1.06449936705609      0.81489829600083      1.10763985623246
  N   1.77413919449799     -0.98443664797900      0.36849099199061
  H   1.45679544682834     -1.43309027374992      1.21649038698434
  H   1.64927982863225     -1.60723382749250     -0.41957122120947
  N   -0.89340037176320      1.53593734881251     -0.40831784192125
  H   -0.37445020694160      2.13396053153189     -1.03957146456960
  H   -1.84880332170202      1.49598849558211     -0.74245488863616
  C   -1.19316200080232     -0.69622419590597      0.46711238676620
  H   -2.21901338818218     -0.70185101067362      0.08904172517912
  H   -1.21672695988463     -0.31252124248644      1.49050624394128
  H   -0.84148081953431     -1.72853474177678      0.47375155597960
