15
Coordinates from ORCA-job run
  C   1.12954506562636      0.14888253605003     -0.29397598080088
  C   -0.38106662994035      0.24347385250372     -0.58551829880849
  Cl  1.87131697641220     -1.02397714953808     -1.44373120719922
  H   -0.48516408766051      0.43689216420489     -1.65849510678389
  H   1.58395729566693      1.11404475004609     -0.53531012824318
  N   1.53060849566427     -0.19722671716681      1.04153739779540
  H   1.34991454371327      0.56275633306426      1.68316178738989
  H   1.07651020484264     -1.04168520107996      1.36293090668886
  N   -1.00497069107772      1.36083527116025      0.11643152137450
  H   -0.53946693183063      2.23500597315147     -0.09930862542264
  H   -0.96435837277221      1.21727668879877      1.11872512935185
  C   -1.13937331945515     -1.02913919446290     -0.24488166800920
  H   -1.12581831696953     -1.21874508733795      0.83297659273953
  H   -0.72045652716189     -1.89702455215961     -0.75456354935526
  H   -2.18217770505767     -0.91236966723417     -0.54097877071728
