15

C	0.0	0.0	0.0
C	-0.564921	0.006256	-1.406674
Br	1.973651	0.0	0.0
H	-0.327426	-0.962554	-1.869172
H	-1.660222	0.049288	-1.211798
C	-0.334418	1.256703	0.685955
N	-0.49	2.240477	1.310617
C	-0.541969	-1.183584	0.773608
H	-0.259266	-2.113001	0.277023
H	-0.172638	-1.191287	1.801831
H	-1.642298	-1.052368	0.747923
N	-0.134885	1.16824	-2.169103
H	-0.833045	1.385303	-2.868303
H	0.74629	0.984675	-2.633568
H	-3.252716	0.0	0.0
