15

C	0.0	0.0	0.0
C	-0.419097	0.107878	-1.496316
Br	1.96604	0.0	0.0
H	0.384166	-0.351001	-2.082642
H	-0.417905	1.184057	-1.745917
C	-0.377235	1.198273	0.751603
N	-0.579924	2.208538	1.318111
C	-0.51002	-1.261183	0.67693
H	-1.603384	-1.184357	0.713491
H	-0.228893	-2.134153	0.087364
H	-0.099462	-1.340064	1.686639
N	-1.65128	-0.612024	-1.75213
H	-1.963668	-0.371687	-2.688418
H	-2.418839	-0.309069	-1.090501
H	-3.507989	0.0	0.0
