15

C	0.0	0.0	0.0
C	-0.35562	0.017132	-1.51414
Br	1.965757	0.0	0.0
H	-0.181161	1.051115	-1.860109
H	0.40571	-0.602268	-2.004237
C	-0.392822	1.235742	0.674937
N	-0.615314	2.256675	1.213908
C	-0.522969	-1.23093	0.716194
H	-0.216456	-2.125364	0.171082
H	-0.141051	-1.270118	1.739323
H	-1.61804	-1.156934	0.720382
N	-1.665408	-0.53856	-1.786153
H	-1.986291	-0.171278	-2.676707
H	-2.394541	-0.251735	-1.073626
H	-3.483604	0.0	0.0
