15

C	0.0	0.0	0.0
C	-0.543701	-0.003883	-1.43146
Br	1.971503	0.0	0.0
H	-1.633432	-0.110325	-1.268065
H	-0.156265	-0.897701	-1.929812
C	-0.349363	1.265202	0.657112
N	-0.53837	2.31138	1.159887
C	-0.53514	-1.186658	0.773539
H	-1.634433	-1.053064	0.754113
H	-0.161884	-1.202585	1.799269
H	-0.255729	-2.112633	0.26559
N	-0.296296	1.180901	-2.230317
H	0.653036	1.507219	-2.089467
H	-0.928459	1.90999	-1.917395
H	-3.202569	0.0	0.0
