15

C	0.0	0.0	0.0
C	-0.448094	-0.106001	-1.501224
Br	1.964959	0.0	0.0
H	0.311604	0.403401	-2.1019
H	-0.393698	-1.174154	-1.747528
C	-0.335313	1.335896	0.501447
N	-0.549122	2.426177	0.88592
C	-0.605254	-1.077522	0.873205
H	-0.285805	-0.979858	1.913189
H	-0.317342	-2.061519	0.494121
H	-1.699057	-0.951261	0.803039
N	-1.743829	0.417989	-1.823802
H	-1.720534	1.429878	-1.750165
H	-2.499666	0.120372	-1.154859
H	-3.62495	0.0	0.0
