14

C	-0.488635	-0.009372	-1.419389
C	0.0	0.0	0.0
F	-1.850052	0.286225	-1.489774
H	1.089804	0.0	0.0
H	-0.34758	-1.01611	-1.806559
C	0.2294	0.933034	-2.286178
N	0.744749	1.63663	-3.071343
N	-0.451113	-1.210172	0.723476
O	-0.116313	-1.290491	1.900182
O	-1.058025	-2.086137	0.097588
N	-0.512166	1.213486	0.681647
O	-1.296484	1.108758	1.619204
O	-0.11337	2.271383	0.200674
F	2.442633	0.0	0.0
