14

C	-0.550512	-0.097998	-1.414366
C	0.0	0.0	0.0
F	-0.423704	1.155068	-1.999128
H	1.088032	0.0	0.0
H	-1.612861	-0.355774	-1.414342
C	0.192159	-1.066765	-2.231423
N	0.716306	-1.83791	-2.943767
N	-0.471958	-1.137745	0.800406
O	-0.801243	-2.15965	0.189243
O	-0.454647	-1.017748	2.021476
N	-0.596799	1.222209	0.610515
O	-1.828108	1.239888	0.700053
O	0.15328	2.125622	0.954674
F	2.448984	0.0	0.0
