14

C	-0.579949	-0.027619	-1.400931
C	0.0	0.0	0.0
F	-0.281108	1.191195	-1.99118
H	1.088029	0.0	0.0
H	-1.667729	-0.129967	-1.387969
C	0.003764	-1.100846	-2.219644
N	0.413358	-1.975986	-2.886745
N	-0.497715	-1.14332	0.786553
O	-0.306624	-1.114162	2.001925
O	-1.038729	-2.071498	0.170592
N	-0.534298	1.212712	0.693501
O	-1.728213	1.477338	0.509524
O	0.227094	1.848048	1.411506
F	2.447648	0.0	0.0
