14

C	-0.493084	-0.005416	-1.41831
C	0.0	0.0	0.0
F	-1.852382	-0.277052	-1.527336
H	1.090144	0.0	0.0
H	0.04439	-0.811992	-1.919227
C	-0.20204	1.262218	-2.095518
N	0.03949	2.252408	-2.676353
N	-0.442873	-1.270031	0.629871
O	-1.07292	-1.24402	1.683803
O	-0.123438	-2.289366	0.020077
N	-0.506657	1.129907	0.804244
O	-1.397254	1.841086	0.326437
O	0.018499	1.294687	1.901562
F	2.441346	0.0	0.0
