14

C	0.0	0.0	0.0
C	-0.426593	0.274507	-1.429644
F	1.394618	0.0	0.0
H	-1.504496	0.133487	-1.511025
H	-0.273808	-1.021047	0.297043
H	0.066625	-0.478766	-2.053504
N	-0.465805	1.017345	0.8961
H	-1.466872	1.113558	0.724316
H	-0.375475	0.68482	1.848209
C	-0.010491	1.674679	-1.885368
H	-0.184858	1.802789	-2.958009
H	-0.577132	2.436698	-1.351699
H	1.05012	1.84299	-1.684332
Cl	-3.777007	0.0	0.0
