16

C	0.0	0.0	0.0
C	-0.54904	0.040738	-1.416463
F	1.393096	0.0	0.0
H	-1.65539	0.056323	-1.197593
H	-0.324819	-0.944138	0.445946
C	-0.463335	1.167175	0.843965
H	-0.069895	2.101288	0.430063
H	-1.55851	1.132741	0.815533
H	-0.088077	1.056252	1.86653
C	-0.120393	-1.188554	-2.22042
H	-0.49367	-1.144783	-3.24681
H	0.969721	-1.272826	-2.252096
H	-0.529204	-2.084637	-1.747022
C	-0.122694	1.255832	-2.101711
N	0.255098	2.205868	-2.682128
F	-2.872444	0.0	0.0
