16

C	0.0	0.0	0.0
C	-0.248338	0.229525	-1.521139
F	1.393001	0.0	0.0
H	0.340775	1.133312	-1.729094
H	-0.340984	-0.991854	0.302201
C	-0.615007	1.056258	0.864187
H	-0.33874	2.056669	0.513267
H	-1.708347	0.870255	0.768857
H	-0.281408	0.940148	1.90063
C	-1.652241	0.422433	-2.091735
H	-2.253713	-0.470447	-1.962951
H	-1.549984	0.694554	-3.149615
H	-2.204545	1.167182	-1.529147
C	0.421948	-0.856584	-2.253879
N	0.92276	-1.733203	-2.854619
F	-3.108191	0.0	0.0
