16

C	0.0	0.0	0.0
C	-0.249601	0.272684	-1.513374
F	1.393243	0.0	0.0
H	0.336516	1.185186	-1.695157
H	-0.344214	-0.998759	0.274594
C	-0.61623	1.028962	0.894767
H	-0.338385	2.039291	0.579604
H	-0.291766	0.873802	1.927389
H	-1.708422	0.848766	0.78635
C	-1.651255	0.479109	-2.083357
H	-2.229935	1.158326	-1.46678
H	-2.232228	-0.435369	-2.043636
H	-1.539927	0.840196	-3.110642
C	0.425035	-0.788922	-2.277282
N	0.923689	-1.648221	-2.90353
F	-3.101403	0.0	0.0
