16

C	0.0	0.0	0.0
C	-0.458432	-0.102378	-1.474436
F	1.39586	0.0	0.0
H	0.468185	-0.301976	-2.035542
H	-0.321495	-0.895002	0.531911
C	-0.450487	1.216468	0.772969
H	-0.029446	1.159826	1.781708
H	-1.544894	1.154828	0.786775
H	-0.086321	2.136041	0.304854
C	-1.130967	1.146874	-2.040097
H	-0.459037	2.00435	-1.95941
H	-1.370585	1.000158	-3.097859
H	-2.041568	1.279753	-1.456119
C	-1.281826	-1.296195	-1.69359
N	-1.758781	-2.33	-1.982209
F	-2.735842	0.0	0.0
