17

C	0.0	0.0	0.0
C	-0.444402	0.193927	-1.44122
Cl	1.783696	0.0	0.0
H	0.02472	-0.620714	-2.004716
H	-0.001729	1.12423	-1.802469
N	-0.360196	1.23287	0.841336
O	-0.422228	1.072947	2.055582
O	-0.501411	2.299109	0.253707
C	-0.559073	-1.228489	0.670451
H	-1.643456	-1.122071	0.767414
H	-0.338953	-2.099056	0.049409
H	-0.123625	-1.365123	1.65814
C	-1.951669	0.186161	-1.648217
H	-2.172515	0.412663	-2.694842
H	-2.478164	0.916228	-1.036343
H	-2.410546	-0.773827	-1.417633
Br	-5.054211	0.0	0.0
