12
Coordinates from ORCA-job run
  C   -0.56518919302362      0.03158378618975      0.22100914410553
  C   0.24756103813250      0.17500293740978     -1.07370130305406
  Cl  -2.33222513202906      0.13102150811031     -0.30508178059412
  H   -0.00914434406728     -0.65726807348824     -1.73632005536853
  H   -0.03584759839796      1.09848423094448     -1.58255833803072
  N   -0.23026250197311     -1.16466780670304      0.89070648692067
  H   -0.39159755668471     -1.98010065878239      0.31264234310032
  H   -0.71055871504431     -1.26473598461743      1.77549937904542
  C   -0.34225569400595      1.17760639323563      1.10695230895389
  N   -0.15526382809644      2.09968698729802      1.81009644995547
  C   1.68387031762820      0.17229154289097     -0.80748368705282
  N   2.84091320756175      0.18109513751216     -0.61376094798105
