12
Coordinates from ORCA-job run
  C   -0.46179138029412      0.11227031313502      0.28642010261523
  C   0.76624130178900      0.59779999596360     -0.50072202555003
  Cl  -1.92705743136578      0.34083834938664     -0.80313743598360
  H   0.58867082533308      1.60608271809622     -0.87863269878731
  H   1.61891747020751      0.61793261526493      0.18386573112002
  N   -0.27349159796983     -1.21661816034257      0.73278324237715
  H   -1.04347426488742     -1.53820061020924      1.30534105867907
  H   -0.13616624375834     -1.85332121860299     -0.04401983656983
  C   -0.66864110042765      0.99728182881899      1.43713631033705
  N   -0.80662613792248      1.71194786549583      2.35883131315401
  C   1.05825068787223     -0.30771152769605     -1.60764694131350
  N   1.28416787142380     -1.06830216931036     -2.47221882007826
