12
Coordinates from ORCA-job run
  C   -0.57115177956110      0.20075362596786      0.21388274995169
  C   0.82936636952257      0.48670198479399     -0.38514576486566
  Cl  -1.78779015103667      0.74361722184988     -0.98708211727247
  H   1.58146875302188      0.29954821829429      0.38846591405614
  H   0.90601035876369      1.53287731624297     -0.69064421211644
  N   -0.85138740703622     -1.16849591362928      0.54342947159174
  H   -0.74161359575983     -1.76225577458276     -0.27131170779354
  H   -0.25008992128846     -1.49149965876953      1.29254494294091
  C   -0.70897313437893      1.01971787061844      1.42531547926303
  N   -0.75262353567667      1.67102575067024      2.40151884770720
  C   1.08347554507176     -0.39339921893515     -1.52039195077292
  N   1.26330849835799     -1.13659142252096     -2.41058165268966
