12
Coordinates from ORCA-job run
  C   -0.52918364214400      0.11773099191001      0.13634403939335
  C   0.85243193547990      0.51467924350359     -0.40244515102596
  Cl  -1.77678167563388      0.53362148711291     -1.07456687784045
  H   0.86340818417516      1.58529605489252     -0.61993109210190
  H   1.60017766788245      0.32586003245632      0.37592851518922
  N   -0.57523690203665     -1.30260933593971      0.35562781596421
  H   0.11260463517691     -1.57566364443123      1.04965434717872
  H   -1.49429090196165     -1.58976553945350      0.67133920104122
  C   -0.80303021098172      0.92692299236660      1.34112060187918
  N   -0.97945203975455      1.51858790695047      2.34161684602355
  C   1.20361465352278     -0.23819198787137     -1.60303835502649
  N   1.52473829627527     -0.81646820149661     -2.57164989067464
