12
Coordinates from ORCA-job run
  C   -0.56700687323269      0.02662823900978      0.19860938334218
  C   0.69240181404280     -0.28192301207568     -0.64135863380476
  Cl  -1.84992017420885      0.55745679583662     -0.93510443895822
  H   1.46569381795390     -0.66395381372741      0.03321136290062
  H   0.43698194180785     -1.07284791047803     -1.35263562507104
  N   -1.07034562882601     -1.09466971377973      0.94703935554324
  H   -1.24923225695285     -1.88281910772716      0.33576617296752
  H   -0.42371784746534     -1.36105170353276      1.68042683167119
  C   -0.27711885750892      1.12120943552655      1.13277869684710
  N   0.00413042986127      1.96604232709234      1.89864676020400
  C   1.20977915510344      0.87662584199300     -1.36218643463406
  N   1.63035447942540      1.81030262186249     -1.93519343100774
