12
Coordinates from ORCA-job run
  C   -0.45362844948629      0.15961533154524      0.27517693436714
  C   0.86744178209841      0.51312039615039     -0.42753257811048
  Cl  -1.81722493088848      0.66353768921837     -0.85193490789348
  H   1.68050945630268      0.36562919402617      0.28891672502284
  H   0.85246193775447      1.55864548975901     -0.73984745626979
  N   -0.47488578450921     -1.20871035857963      0.63503443812029
  H   -0.39250299184779     -1.80708635010913     -0.17938984370779
  H   -1.31011601773417     -1.45180107327640      1.15256364990182
  C   -0.59078801177822      0.98955752230141      1.47639342206116
  N   -0.67639818727547      1.65448878047837      2.44066598783446
  C   1.08042878387436     -0.35294212409967     -1.58307931780078
  N   1.23370241348971     -1.08405449741412     -2.48796705352540
