12
Coordinates from ORCA-job run
  C   -0.58061616613830      0.13960856590627      0.23509590901059
  C   0.73788655741382      0.56296237412660     -0.46081191740139
  Cl  -1.91754405412385      0.44416686413213     -0.92141791553965
  H   1.54650131530484      0.52410831053759      0.27664488404383
  H   0.66099933486509      1.58836013653684     -0.83017074154315
  N   -0.66170907054407     -1.23013189626403      0.65839399074383
  H   -0.51618089704714     -1.85622117748773     -0.12591417338037
  H   0.01381967979080     -1.42467307259040      1.38847825759423
  C   -0.76335403183380      1.01043846061845      1.40358553362408
  N   -0.84395273446615      1.71211699188119      2.34182028361569
  C   1.04708357212422     -0.34918017676172     -1.55644454961040
  N   1.27706649465454     -1.11955538063520     -2.41125956115729
