12
Coordinates from ORCA-job run
  C   -0.45319527913769      0.14627807161035      0.28428159898724
  C   0.83868235911621      0.53659298715459     -0.45271724885116
  Cl  -1.85880193581605      0.58860759143676     -0.81722128239296
  H   1.67220661484715      0.42623976859638      0.24663503871082
  H   0.78003917822776      1.57709301621652     -0.77633794710418
  N   -0.41864127758229     -1.21706284274951      0.66079955454061
  H   -0.33093220391076     -1.82269785908112     -0.14764366783273
  H   -1.23371261712500     -1.48321134731738      1.19861580105035
  C   -0.59133123212654      0.98771591328477      1.47744633314319
  N   -0.67414709082533      1.66761981867869      2.43146876780859
  C   1.05570525375819     -0.33520358468453     -1.60298284915973
  N   1.21312823057434     -1.07097153314552     -2.50334409890004
