12
Coordinates from ORCA-job run
  C   -0.52146436510950      0.14449604479811      0.14025133370251
  C   0.84329305034941      0.44146369824467     -0.49677829431553
  Cl  -1.81029424981541      0.42759808154695     -1.06587562636100
  H   0.86221784670777      1.47569093842714     -0.84855508522399
  H   1.61897286048323      0.33680323331634      0.27013683780793
  N   -0.58043124906733     -1.23513849001746      0.54127850881934
  H   0.13255655498153     -1.43174910106620      1.23586711094444
  H   -1.48935754036476     -1.45988320185213      0.92902448247457
  C   -0.73466018537756      1.10588893671945      1.24081297750305
  N   -0.86276858617514      1.82295111941606      2.16360400694194
  C   1.13385057326768     -0.46377028858923     -1.60487599562818
  N   1.40708529012010     -1.16435097094371     -2.50489025666506
