12
Coordinates from ORCA-job run
  C   -0.58170927117121      0.03099671508108      0.17253543333418
  C   0.32667512346928      0.07227009980145     -1.06445289264238
  Cl  -2.30335617589496      0.00202807965701     -0.49389392087570
  H   0.05352085698210      0.92440027791362     -1.69002099116925
  H   0.15215409704816     -0.83505553159193     -1.65093110340918
  N   -0.26218325228419     -1.07438901399736      0.98984096743247
  H   -0.80834475812322     -1.10127649724200      1.84109358264940
  H   -0.35060770267896     -1.95133603106902      0.49167107290040
  C   -0.46858509292798      1.27050627737027      0.94640254462799
  N   -0.36908840923322      2.26446559031530      1.56413611326415
  C   1.73647022957433      0.15851693600045     -0.69167950402627
  N   2.87405435523986      0.23787309776114     -0.41570130208582
