12
Coordinates from ORCA-job run
  C   -0.57540328794600      0.03777505750634      0.19284057240646
  C   0.29136918950402      0.07961817877451     -1.07368014209611
  Cl  -2.31878374143655      0.03767183384838     -0.41580112138493
  H   0.01102724119116      0.94318281444766     -1.68006490578908
  H   0.08286664401044     -0.81792501676877     -1.66411272928372
  N   -0.24324698607581     -1.07922101638974      0.98861852191728
  H   -0.35641576563872     -1.95046405256528      0.48547110361869
  H   -0.76123185854891     -1.10830107817386      1.85718941221681
  C   -0.42018082888827      1.26854357417767      0.97336705275841
  N   -0.28701844418277      2.25704661684540      1.59360142694028
  C   1.71425558003040      0.13893505574540     -0.74796279963288
  N   2.86176225798102      0.19513803255229     -0.51046639167121
