12
Coordinates from ORCA-job run
  C   -0.44962524942313     -0.03514740805624      0.23440497085843
  C   0.78613320557645     -0.27556402028812     -0.64369204173228
  Cl  -1.82526383207668      0.44273098418126     -0.87820986568779
  H   1.60374079980238     -0.58097409626125      0.01500974473053
  H   0.56644403729184     -1.10067801309380     -1.32791092255381
  N   -0.70961661111996     -1.20685804187434      0.99554633071083
  H   -1.47961163290622     -1.07032148692939      1.63901591018492
  H   -0.91989325549104     -1.99101969457185      0.38899827041577
  C   -0.23059878526303      1.09639874493455      1.13985808452652
  N   -0.04165058631515      1.98707868208435      1.88162124821143
  C   1.18021791234855      0.89886349691863     -1.41334721503488
  N   1.51972399757601      1.83649085295621     -2.03129451462966
