12
Coordinates from ORCA-job run
  C   -0.57030975964837      0.04227876364527      0.18812154615612
  C   0.69574882407292     -0.28795834422595     -0.63328354458936
  Cl  -1.80725992441715      0.65327488753825     -0.95599495759610
  H   0.42870944423758     -1.05080367088412     -1.37051492617407
  H   1.44068112298053     -0.71386657712149      0.04680000545981
  N   -1.13057111384818     -1.08147865021806      0.89116287917050
  H   -1.32221714377859     -1.84457634925651      0.25259401335832
  H   -0.51127727415222     -1.39245256522426      1.63071277599967
  C   -0.26125480921072      1.09728593083654      1.16102370925226
  N   0.03401152066442      1.90805540951728      1.95779590164942
  C   1.26826810267538      0.86968806911556     -1.31304402928521
  N   1.73447101042441      1.80055309627748     -1.85437337340137
