12
Coordinates from ORCA-job run
  C   -0.69130682672753      0.05072442936494      0.18402266666124
  C   0.22261535197340      0.16337822040066     -1.05970833743409
  Cl  -2.37544529557417      0.06815188760915     -0.44102706885725
  H   0.03092374252782      1.09793954283739     -1.59306918672818
  H   -0.01184570472581     -0.66571238774322     -1.73373953789744
  N   -0.51815721719801     -1.12805230385303      0.98402763694981
  H   -0.60285922420929     -1.96366457235752      0.41706544438165
  H   0.38081398206213     -1.11741112221472      1.45297296301193
  C   -0.49749565286625      1.23226044330139      1.03379369435948
  N   -0.29553086477535      2.17797302819249      1.69998770878995
  C   1.62403351010187      0.08624702927684     -0.65723308675543
  N   2.73525419941119     -0.00083419481437     -0.28909289648165
