12
Coordinates from ORCA-job run
  C   -0.47053155933225      0.23090616104545      0.19448487951061
  C   0.95159903750233      0.32800156912096     -0.37559976215322
  Cl  -1.58323949926890      1.18471290757961     -0.82901304749091
  H   1.25720995065923      1.37634990300130     -0.41183535047889
  H   1.63719870367274     -0.19495957773547      0.30049817384209
  N   -0.90912055563153     -1.13845997244339      0.17488918333630
  H   -0.30715184134816     -1.71066413601386      0.75752136851371
  H   -1.86271916547763     -1.21722326374554      0.50845317770143
  C   -0.47234724392726      0.84878585760130      1.53587271615343
  N   -0.44855499473727      1.27251649123898      2.63233803612331
  C   1.04352639692436     -0.26037374049000     -1.70850225995304
  N   1.16313077096433     -0.71959219915936     -2.78110711510481
