12
Coordinates from ORCA-job run
  C   -0.56148967959803      0.21867521275835      0.21972149831239
  C   0.77460282693807      0.42958362468599     -0.53674402220294
  Cl  -1.88976091495737      0.48388613319205     -0.95623006615294
  H   0.77977349637669      1.40168291094779     -1.03558552756668
  H   1.59151175479293      0.41413737838126      0.19245419388645
  N   -0.75101523369841     -1.07079509682234      0.82236881560049
  H   -0.67338550311783     -1.80542873071014      0.12788738311743
  H   -0.08182261268729     -1.22465981658895      1.56760730341229
  C   -0.64584009421085      1.24890191880468      1.26318981062910
  N   -0.64881969589857      2.07208320760114      2.10077874708852
  C   0.98108661127628     -0.63947703543586     -1.50775552392780
  N   1.12515904478438     -1.52958970681396     -2.25869261219630
