12
Coordinates from ORCA-job run
  C   -0.48693839842326      0.19244961718200      0.19759660136484
  C   0.89869371421848      0.40102243479010     -0.42939257345962
  Cl  -1.72543632598782      0.95737116431478     -0.84019584281402
  H   1.08894493962259      1.47100846349170     -0.54104365581209
  H   1.65672351888825     -0.00210031474640      0.25143070205513
  N   -0.77779008585482     -1.21347895733356      0.27735737433549
  H   -1.70649297281013     -1.36950268154537      0.65139167269388
  H   -0.10021205137706     -1.68149139441492      0.86987391715103
  C   -0.51324348587784      0.89242150268100      1.49789044563360
  N   -0.49856097520744      1.38934694527862      2.56334247436293
  C   1.01332036070102     -0.26120554626429     -1.72561730080209
  N   1.14999176210803     -0.77584123343365     -2.77063381470909
