12
Coordinates from ORCA-job run
  C   -0.69696058963916      0.09941470347530      0.13532974837957
  C   0.30433569424332      0.12247877477260     -1.04431520249677
  Cl  -2.32998680020700      0.21513080243586     -0.60423050120856
  H   0.06225287092325     -0.70630796898523     -1.71606203606914
  H   0.21134392910760      1.05391620687903     -1.60869549796218
  N   -0.65891339538518     -1.06994306235291      0.96613668743530
  H   -0.76421518640654     -1.91052340243231      0.41025087941484
  H   0.20490349593234     -1.10969688741067      1.49550536197466
  C   -0.48042316288889      1.28461606827736      0.97463700464940
  N   -0.26217447226785      2.23342210036417      1.63147992237485
  C   1.66726047759761     -0.03363046384607     -0.54375326074122
  N   2.74257713899048     -0.17887687117715     -0.09628310575074
