12
Coordinates from ORCA-job run
  C   -0.44677270374833     -0.01924895782004      0.24106664460034
  C   0.75404349569753     -0.28781580371624     -0.67633615332474
  Cl  -1.80291643207388      0.62610081128260     -0.80972574007581
  H   0.46498338301866     -1.04902173796848     -1.40721625584289
  H   1.55841045104570     -0.69227687234539     -0.05577933329773
  N   -0.77751912785727     -1.21680979668415      0.93081918882378
  H   -1.52403233211689     -1.06892432988248      1.59913945545066
  H   -1.05444694045974     -1.94301062339465      0.28015742491073
  C   -0.13312396183271      1.03296509551535      1.21185922068753
  N   0.13044747227835      1.85959145883125      2.00347327414811
  C   1.21835505246809      0.90396954042543     -1.37708473768298
  N   1.61257164358050      1.85448121575680     -1.94037298839699
