12
Coordinates from ORCA-job run
  C   -0.66654095992776      0.02895206294961      0.02392657394785
  C   0.38456936100240      0.15808712190805     -1.08790442910492
  Cl  -2.27912828227942      0.12443746759845     -0.74826886161716
  H   0.26185572505844      1.11075353646257     -1.60785010575867
  H   0.21384666030453     -0.65746925500669     -1.79476115903697
  N   -0.54437205778869     -1.26057674565388      0.65114334477032
  H   -1.25719583944887     -1.37791239086552      1.36229444723665
  H   0.36769963844435     -1.34882322937538      1.08883376345098
  C   -0.56332278645061      1.16850195353424      0.95532720629981
  N   -0.44668548239692      2.03682890080368      1.73951792158604
  C   1.73190637328329      0.05880398904884     -0.53239316918429
  N   2.79636765019927     -0.04058341140397     -0.04786553258965
