12
Coordinates from ORCA-job run
  C   -0.44686346272445     -0.02663516640449      0.23919932842407
  C   0.76477413234888     -0.28454562616495     -0.66698320424008
  Cl  -1.81919860619261      0.54236748861699     -0.83535616137240
  H   0.50067720244991     -1.07278565016049     -1.37845284321140
  H   1.57830999176079     -0.64881111381533     -0.03348108936552
  N   -0.74164790393086     -1.21220609354069      0.96470500331933
  H   -0.99170154177871     -1.96714906286150      0.33666823520769
  H   -1.49469515606191     -1.06781224766045      1.62620886277015
  C   -0.17210216598305      1.06481322940192      1.17773718119272
  N   0.05578281489992      1.92296893372542      1.94655299725521
  C   1.19749603749858      0.90158408331809     -1.39692483091664
  N   1.56916865771351      1.84921122554547     -1.97987347906312
