12
Coordinates from ORCA-job run
  C   -0.50170592555051      0.15160707190954      0.19650688927358
  C   0.85326813700227      0.47154477027038     -0.45028272691044
  Cl  -1.81495744490086      0.76352432034916     -0.85094093681676
  H   1.65085815687645      0.16336001583660      0.23494242667185
  H   0.94018778894586      1.55076540788834     -0.59596992399595
  N   -0.65671840874576     -1.27242412108248      0.32064138761767
  H   -1.56264250154528     -1.50485113909876      0.71034620767185
  H   0.06817432707054     -1.65644538507737      0.91753215679221
  C   -0.58551792838289      0.88500442631433      1.47569442332318
  N   -0.61135703506526      1.40985127128044      2.52745222120987
  C   1.02121094185656     -0.21608819902679     -1.72728535729026
  N   1.19819989243888     -0.74584843956339     -2.75863676754679
