12
Coordinates from ORCA-job run
  C   -0.55855735246186      0.02297178826633      0.22132665659388
  C   0.66735005777005     -0.26892761227439     -0.67224789206136
  Cl  -1.88230163905755      0.58072079539172     -0.85071063897313
  H   0.38377568815636     -1.04431255273730     -1.38994971696881
  H   1.46507606484730     -0.66608849729166     -0.03598645275023
  N   -1.03597871106309     -1.11395530341950      0.96328121332734
  H   -1.24155658616697     -1.88713460610970      0.34148807458490
  H   -0.36163706295847     -1.39900986295575      1.66407252870604
  C   -0.23142239258257      1.09669451232339      1.16738908689469
  N   0.07744674422581      1.92742936966149      1.93802650287668
  C   1.15942284677753      0.90392246355381     -1.38770749843105
  N   1.55938234251346      1.84768950559157     -1.95898186379895
