12
Coordinates from ORCA-job run
  C   -0.38086062043670      0.22919380263800      0.33098573857090
  C   0.94846662763310      0.33174558568560     -0.43447044567087
  Cl  -1.61995768373717      1.21775151350555     -0.60339900378120
  H   1.19236029008778      1.38016798063003     -0.61378357462913
  H   1.73021567584128     -0.11604505549438      0.18560207704060
  N   -0.74339986162525     -1.12530316111207      0.51958790168634
  H   -0.86276862634087     -1.60395044967953     -0.36624731581796
  H   -1.58531658022073     -1.21926852037425      1.07355633268599
  C   -0.23341072310528      0.88813925532822      1.63272041142469
  N   -0.09280231673989      1.40930364033021      2.67577284148284
  C   0.86743080156828     -0.38873738422989     -1.70133681192563
  N   0.78104301707545     -1.00199720722748     -2.69798815106657
