12
Coordinates from ORCA-job run
  C   -0.50864759195367      0.26319083963990      0.28981697659531
  C   0.85456164422931      0.39137215986554     -0.43639887833284
  Cl  -1.73566327562593      1.08781328877808     -0.72592923510336
  H   1.63947050294254      0.02550240217759      0.23388373463397
  H   1.06465948883723      1.43788341936194     -0.66976008522810
  N   -0.96708084328776     -1.07364086516148      0.54441412908028
  H   -0.35415420919452     -1.54894287869601      1.19679334923669
  H   -1.03107316920960     -1.60054972872299     -0.31965898661526
  C   -0.39822345536903      0.97952560466275      1.56722428191694
  N   -0.24559406087899      1.53732044946589      2.58932317884784
  C   0.85567436523597     -0.41038285543767     -1.65503741714667
  N   0.82807060427447     -1.08809183593354     -2.61267104788480
