12
Coordinates from ORCA-job run
  C   -0.51678747008306     -0.06065964654454      0.11694702295742
  C   0.75658321297372     -0.26188714164547     -0.71392215576503
  Cl  -1.84581363627504      0.43529729333868     -0.96757382652092
  H   0.53547845637673     -1.02757764977600     -1.46098381006631
  H   1.54781229292543     -0.64041851018923     -0.05774142085346
  N   -0.87227285616957     -1.33203908746226      0.70416987630077
  H   -1.76765539603921     -1.26062546129194      1.17474567023841
  H   -0.17336093522871     -1.59854322550362      1.39060958900708
  C   -0.32211385360719      1.01843725878423      1.10298415824545
  N   -0.14655718049743      1.81705964813243      1.94781008269994
  C   1.21409633475947      0.96429443225470     -1.35842713084556
  N   1.59059103086486      1.94566208990301     -1.87961805539780
