12
Coordinates from ORCA-job run
  C   -0.68859856763479      0.10280733640227      0.17067839793774
  C   0.25319924091788      0.13314645129045     -1.05680032319196
  Cl  -2.35550790459552      0.23595298497068     -0.48569467654760
  H   0.14052068201296      1.07246623529769     -1.60414185292065
  H   -0.02935399258937     -0.68476156568802     -1.72601328127243
  N   -0.61667847987829     -1.07574582043665      0.98622681986376
  H   0.27196304498619     -1.12586834629062      1.47187006287406
  H   -0.75392681300450     -1.90987909656682      0.42752676593175
  C   -0.42420740003600      1.27742434515982      1.01109370679237
  N   -0.16862074958892      2.21735162800690      1.66707180394616
  C   1.63768354958715     -0.04115164650092     -0.62683210909572
  N   2.73252738982321     -0.20074250564478     -0.23498531431749
