12
Coordinates from ORCA-job run
  C   -0.43466772962681     -0.03690285028024      0.26072130146660
  C   0.74245697351990     -0.26610840795850     -0.69720752795344
  Cl  -1.86957327665748      0.48577268023130     -0.75264734224584
  H   1.59534403097189     -0.59666805713881     -0.09807097548218
  H   0.47214797715036     -1.07079978158547     -1.38753321188703
  N   -0.66229182458639     -1.22631887283869      1.00464313344404
  H   -1.39148535479458     -1.09991457670152      1.69597790225598
  H   -0.91726898636558     -1.99157098633280      0.39085235894183
  C   -0.14767670245114      1.06729981190420      1.18076637067201
  N   0.09555647141968      1.93569117048072      1.93308978243584
  C   1.10216207968383      0.92424230342159     -1.45910923534711
  N   1.41329634173631      1.87527756679824     -2.07148255630068
