12
Coordinates from ORCA-job run
  C   -0.66086647334365     -0.08902210651329      0.02727105399806
  C   0.37270517346339      0.02178366000993     -1.10306923296790
  Cl  -2.24612530749385     -0.44004154587443     -0.72760822652109
  H   0.09143279939510      0.82461954780221     -1.78800735689004
  H   0.36665644760028     -0.92688166019700     -1.64514969760590
  N   -0.31714871895554     -1.19273610870466      0.88434204142713
  H   -1.01272514604931     -1.30601814137884      1.61293325732551
  H   0.58539665620615     -1.02740474596837      1.31959137448855
  C   -0.78965841563698      1.20497824267376      0.72450293146203
  N   -0.85318021869872      2.21475685169721      1.32321811414902
  C   1.70410238467839      0.26946461478187     -0.55579189169258
  N   2.75941081883474      0.44650139167160     -0.07323236717279
