12
Coordinates from ORCA-job run
  C   -0.51911438153228     -0.05917333441880      0.10937338824643
  C   0.76736998887706     -0.27418803077148     -0.69748703182861
  Cl  -1.83249013896949      0.41106503353439     -1.00524285432874
  H   0.55969450226871     -1.05471664293812     -1.43291189947669
  H   1.54878930164349     -0.63799260588549     -0.02155068765881
  N   -0.88047777149202     -1.31909830469995      0.71734829394003
  H   -1.78211770016504     -1.23974234902543      1.17462062006273
  H   -0.19016852399172     -1.57051884029094      1.41821524730378
  C   -0.34158160614417      1.04003586802495      1.07625945559803
  N   -0.17863641314423      1.85257723576106      1.91024755930867
  C   1.23294553172506      0.93992117702432     -1.35872603182960
  N   1.61678721092463      1.91183079368548     -1.89214605933721
