12
Coordinates from ORCA-job run
  C   -0.70034152313311      0.05039920905389      0.14437095498074
  C   0.27243550572312      0.05531955770996     -1.05901179254370
  Cl  -2.35076415529370     -0.04468193617405     -0.55886687707397
  H   0.08712669616179      0.92177153987905     -1.69899228157028
  H   0.09088331166832     -0.84710494802503     -1.65008079423590
  N   -0.54155507231753     -1.03169934395394      1.07339603772085
  H   0.33086904641386     -0.94591276644664      1.58286418719465
  H   -0.57806267610665     -1.92495279332362      0.59642509743390
  C   -0.57618270302200      1.32029234170301      0.87084750083279
  N   -0.43220976861006      2.33904631399358      1.43713398572221
  C   1.65317445155509      0.06093549174931     -0.58407876696504
  N   2.74562688696087      0.04858733383447     -0.15500725149625
