12
Coordinates from ORCA-job run
  C   -0.66593711677488     -0.03190506949422      0.02955907916046
  C   0.36583419564903      0.05488312683113     -1.10441790889617
  Cl  -2.28149433334764     -0.19095113393321     -0.72546328261234
  H   0.15227536140236      0.91896331439327     -1.73742042240095
  H   0.27204955889300     -0.85542688095485     -1.70139840673175
  N   -0.41813135347117     -1.21337888468022      0.81327330308269
  H   0.49706980370879     -1.15502635730836      1.24975150784561
  H   -1.11804659244919     -1.30928657410778      1.54023615112377
  C   -0.67158186808146      1.22240542462417      0.80653282162420
  N   -0.63676805512226      2.19431807422699      1.46713885666123
  C   1.71746132636946      0.15265142705978     -0.55905852248917
  N   2.78726907322396      0.21275353334331     -0.07973317636758
