12
Coordinates from ORCA-job run
  C   -0.56383808210750      0.03096681764826      0.20784987836488
  C   0.67877341744272     -0.27930204174185     -0.65613551088308
  Cl  -1.85406250681318      0.60447447065669     -0.89667207781005
  H   0.40116666549922     -1.05170428688079     -1.37936934596202
  H   1.45554459303626     -0.68659259588360     -0.00064307831690
  N   -1.07364432184396     -1.09781333901185      0.94028052272591
  H   -1.26912520459423     -1.87202759670233      0.31653675007022
  H   -0.42349843017840     -1.38607402247105      1.66199090750032
  C   -0.24434949600548      1.10215466113088      1.15932163969041
  N   0.06031630221614      1.93011432864064      1.93465324737900
  C   1.20346662356522      0.88529402117780     -1.36176018085709
  N   1.62925043978318      1.82250958343720     -1.92505275190160
