14
Coordinates from ORCA-job run
  C   -0.34372084355172      0.34510040009124      0.37695227500094
  C   0.83493982475016      0.21514709622616     -0.57008035922561
  H   0.04192804275802      0.49464153273325      1.39339470013430
  H   0.49572840507405      0.11486027917707     -1.60095190214673
  H   1.49551317212280      1.07865792636304     -0.48111576594374
  N   -1.19127813693792     -0.83913795266184      0.24648037302560
  H   -2.03545363872042     -0.69737357720482      0.78967288473868
  H   -0.71593119789074     -1.64361399881912      0.64117760648065
  N   -1.03627566148036      1.55805115350266     -0.01084523764159
  H   -1.59845536158146      1.36070842077310     -0.83193085792279
  H   -1.65828831489181      1.86236662384548      0.72715397944754
  N   1.67848105618886     -0.98859500723327     -0.29789742665336
  O   2.39156912537502     -1.38248623619482     -1.21472377926664
  O   1.63924352878553     -1.47832666059815      0.83171350997277
