14
Coordinates from ORCA-job run
  C   -0.54986393123944      0.21299828155939     -0.17806364316013
  C   0.96476688383448      0.29359087334648     -0.22698507915357
  H   -0.91198909530999     -0.12166097691160     -1.15842619024792
  H   1.36425848686996      0.67126176060691      0.71407201027279
  H   1.28851264467527      0.93361653358660     -1.04886107631322
  N   -1.01626283217523      1.57110684756807      0.02009251163164
  H   -1.99919370189645      1.64524557731499     -0.20903366470894
  H   -0.90456695686507      1.81147862152667      0.99933505994027
  N   -0.94380402169327     -0.67046668086366      0.91834356157680
  H   -0.70819558997772     -1.62910188195063      0.68504220354302
  H   -1.95127524488624     -0.62985412414191      1.02389186275642
  N   1.61782567289583     -1.03318080513889     -0.44570611475768
  O   2.79555083648366     -1.13025127547703     -0.11744212844242
  O   0.95323684928421     -1.92378275102539     -0.97725931293705
