14
Coordinates from ORCA-job run
  C   -0.63130817057430      0.13367628875556     -0.15957307903238
  C   0.88186109216441      0.30755222413465     -0.11881676267855
  H   -0.92516686913803     -0.16189027188917     -1.17579394542983
  H   1.20178520616410      0.59715985306349      0.88270867002553
  H   1.22224100498857      1.05308559659581     -0.84197654867870
  N   -1.32378356228044      1.37340694314821      0.14656712663497
  H   -1.01349769785228      1.72332512353287      1.04610301416286
  H   -1.15186649092820      2.07717134365610     -0.56009969180945
  N   -1.01734624597036     -0.81750422669948      0.86704794819427
  H   -0.74021204029505     -1.75107900894728      0.58970796790114
  H   -2.02780190756164     -0.79631355629888      0.93940966635260
  N   1.64499391139886     -0.93991431021502     -0.44690787654549
  O   1.03955784553095     -1.86214401313481     -0.99356163692312
  O   2.84054392435341     -0.93853198570206     -0.17481485217387
