11
Coordinates from ORCA-job run
  C   -0.85693700430418      0.15030647972816      0.14988311439370
  C   0.56086769575623     -0.20588216716052     -0.25127241272062
  F   -0.82458051654148      1.30710941808059      0.91845520613689
  H   0.52328189867628     -1.09567563780094     -0.88537041095201
  H   -1.27828037304675     -0.64388456380704      0.77058378274106
  H   0.95929169511490      0.62283542402656     -0.85413790362402
  C   -1.71019683009396      0.38326917532956     -1.02454319446990
  N   -2.36932551461248      0.54629546639561     -1.98122983617551
  N   1.31159502651521     -0.50912025070538      0.95808409344528
  H   2.21455829479629     -0.89768446615451      0.72027444302506
  H   1.47072562773995      0.34343112206790      1.47927311820008
