11
Coordinates from ORCA-job run
  C   -0.85444493496448     -0.18617271473329     -0.10063810753951
  C   0.61504437733897      0.18545302625671     -0.10273858900340
  F   -1.32602319120107     -0.12818388569724      1.20488526433753
  H   0.70311721089958      1.21521451294176      0.27248060346511
  H   -0.97902422159509     -1.21420424543910     -0.44887835128818
  H   0.96921720823627      0.17265161577004     -1.13698577934906
  C   -1.64888531086513      0.72857904081353     -0.93367115560230
  N   -2.27011145560270      1.44812332200853     -1.62117851281255
  N   1.33763250222826     -0.81760963810306      0.66500396867607
  H   2.33490054391319     -0.69057332457367      0.55523579386217
  H   1.11957727161219     -0.71327770924421      1.64748486525412
