11
Coordinates from ORCA-job run
  C   -0.90207795803997      0.14503595301863      0.09740856215896
  C   0.58452561928924     -0.05375920253385     -0.16968244161215
  F   -1.07712109409575      1.28104487718248      0.86717813517231
  H   0.69802227363275     -0.82853337471395     -0.93689474928737
  H   -1.29470539237997     -0.70104362527261      0.66673342303149
  H   0.95361190910695      0.88352098841000     -0.59988371075171
  C   -1.65524619013785      0.30046498427999     -1.15719341200866
  N   -2.22394272916253      0.39258123143474     -2.17870498472073
  N   1.26114962980821     -0.38922485419582      1.07295581012357
  H   1.67520147856649     -1.30953256625773      1.03623553283579
  H   1.97958245341244      0.28044558864812      1.30184783505849
