13
Coordinates from ORCA-job run
  C   0.43475038314415      0.46150998126443     -0.56390505294989
  C   -0.48509316641234     -0.13112833840548      0.22467086257954
  H   0.07114997401811      1.19953406642922     -1.27830999741866
  C   1.90634483547203      0.19960237792940     -0.55064504835455
  H   2.24121254695960     -0.14609306710467     -1.53322759510089
  H   2.18054728252642     -0.55195209640167      0.19100513279258
  H   2.45661069411088      1.11957257949769     -0.33214053110553
  C   -1.96013985101935      0.16581919032029      0.17450181451164
  H   -2.17011124257411      0.92119132142208     -0.58442604971914
  H   -2.31417239141147      0.53407301252175      1.14082897738521
  H   -2.52999615953486     -0.73638028634275     -0.06219229118086
  C   -0.07121825281675     -1.11378976323444      1.18793800602308
  N   0.23911534753769     -1.92195897789585      1.98490177253747
