13
Coordinates from ORCA-job run
  C   0.88716127479861     -0.42844013272162     -0.07731402793002
  C   -0.32069076785836     -0.39705012255183      0.52638042164888
  H   1.58428121952303     -1.19754235183809      0.25191846599584
  C   1.38063047394505      0.48115421400434     -1.15685682704439
  H   2.28968953771852      0.99478016675167     -0.82990134899005
  H   1.64843445518574     -0.09896405063196     -2.04506313163665
  H   0.65248631093560      1.23530517154053     -1.45117768148032
  C   -1.45361166389910      0.55780043162335      0.25692044791324
  H   -1.70722648516856      1.10991411564703      1.16544099129184
  H   -1.20483857851334      1.27456029550672     -0.52371024176794
  H   -2.34641581804242      0.00742370657468     -0.05075124402744
  C   -0.58216327850181     -1.37590927634247      1.54695776180264
  N   -0.82773668012295     -2.16303216756237      2.38615641422438
