13
Coordinates from ORCA-job run
  C   0.41037755444000      0.19114949747619     -0.71750050572042
  C   -0.47876414935859     -0.05325702049689      0.26676373827632
  H   0.00792202491576      0.49849459423673     -1.68216106557781
  C   1.89708179477484      0.07990618196413     -0.60849116013670
  H   2.21127455089456     -0.22732830501385      0.38988377796832
  H   2.36993076558939      1.03874894328683     -0.84086406710079
  H   2.27969767237030     -0.64747179823093     -1.33072989958452
  C   -1.97084502826981      0.07126453092458      0.10959758069917
  H   -2.46220505551235     -0.88480343154140      0.30700319904589
  H   -2.22032002223109      0.38879057428663     -0.90412714253451
  H   -2.37567465405971      0.80114346833842      0.81500343686689
  C   -0.01150150689257     -0.46110573926654      1.56307384972671
  N   0.34402605333927     -0.79653149596389      2.63354825807145
