13
Coordinates from ORCA-job run
  C   0.42335861624964      0.20941592078073     -0.70446981244873
  C   -0.48343032159692     -0.06562508309402      0.25538052025009
  H   0.03743787575261      0.52870288544261     -1.67208458079462
  C   1.90892963152066      0.11638937590294     -0.56552159833036
  H   2.20570631748413     -0.21256550632436      0.43116411708390
  H   2.37277425668335      1.08744957854324     -0.76298135775980
  H   2.31740381796273     -0.58619975914080     -1.29790139713372
  C   -1.97334913513963      0.04426585623297      0.06791061082791
  H   -2.40032626048363      0.76090986580136      0.77410873904617
  H   -2.20504370249679      0.37350555668558     -0.94634433731156
  H   -2.45864198659230     -0.91944578813627      0.24296091166390
  C   -0.03984084250713     -0.49308639609869      1.55346170616702
  N   0.29502173316329     -0.84471650659529      2.62531647873980
