15
Coordinates from ORCA-job run
  C   -0.55989597610265      0.48265627884507      0.35716727018824
  C   0.86880745039156      0.17208219475785     -0.08842288859265
  Br  -0.75569972598466      0.20383244485500      2.26314286536849
  H   1.52829957564666      0.82239872214655      0.49369549780474
  H   0.93153671331311      0.49127964274388     -1.13475936565011
  N   -1.45717321799650     -0.49621425200819     -0.41212023535056
  O   -1.54654515749312     -0.21750860974342     -1.60606602087248
  O   -1.93983598507130     -1.47123764374161      0.14059817798192
  N   -1.06434215846762      1.78984038532768      0.05092225295983
  H   -0.62044896744323      2.48232242582898      0.63936539045120
  H   -0.88996274727123      2.00008823526215     -0.92510874413285
  C   1.29003490567260     -1.28697666114421      0.03621739143917
  H   1.17261189979483     -1.65097398701896      1.05752736223650
  H   2.33949719750267     -1.39391521057088     -0.24530995543714
  H   0.70411619350889     -1.92767396553989     -0.62584899839428
