15
Coordinates from ORCA-job run
  C   -0.45337808349694      0.54706493414554      0.38112632961170
  C   0.95091635186644      0.15342261835655     -0.05567231042408
  Br  -0.73445297351020      0.24848608311443      2.27450198508610
  H   1.05638982153471      0.49421450485465     -1.09236168690574
  H   1.63507811444346      0.74683081273920      0.55500760594764
  N   -1.41059869006598     -0.40903282109453     -0.40610535972812
  O   -1.86686678595985     -1.41296253139404      0.11841387097405
  O   -1.55533011617654     -0.07563911042227     -1.58161855183070
  N   -0.71374198972350      1.90707480190841      0.09473073241905
  H   -0.63054131835517      2.07197109512677     -0.90127494701053
  H   -1.63094008647048      2.19351319953879      0.41384597144444
  C   1.26958789192278     -1.33299502552510      0.03516189831077
  H   1.08019450159901     -1.72167296066685      1.03655533011706
  H   2.32367039391053     -1.49462130414047     -0.19836740077941
  H   0.68101296848174     -1.91665429654109     -0.67494346723224
