15
Coordinates from ORCA-job run
  C   -0.50755166979878      0.36058487666010      0.25947285559529
  C   0.36611976709419     -0.83698024428876     -0.06769672868524
  Br  -0.47247277767819      0.78898619365519      2.16570585721884
  H   0.15106958810958     -1.09999061800698     -1.11284808085961
  H   0.03355251687852     -1.67785995441700      0.54051255090723
  N   -1.99462505449495     -0.07158196582267      0.01301282762767
  O   -2.69540946381140      0.72273262991924     -0.60632983994271
  O   -2.34469997489079     -1.16266807480679      0.44127703572095
  N   -0.15528142645090      1.50693576082715     -0.47203932397595
  H   -0.12719901782975      1.29841236907159     -1.46376957812108
  H   -0.80137953987389      2.26874115250579     -0.31004333027132
  C   1.85417889764319     -0.56951130874144      0.11603763253714
  H   2.42470035720424     -1.45778392286531     -0.16352199179895
  H   2.08095083873775     -0.33525893377124      1.15678107254356
  H   2.18804695916119      0.26624204008112     -0.49855095849581
