15
Coordinates from ORCA-job run
  C   -0.63552888105950      0.33756219446652      0.28993565101964
  C   0.33404524959286     -0.79683638361771     -0.05022832011813
  Br  -0.59555468536447      0.71032546649115      2.19763506993569
  H   0.13072276559485     -1.05921005070583     -1.09682212251872
  H   0.07904951691413     -1.66580458300415      0.56173254211599
  N   -2.02183242104550     -0.22300002266484     -0.07132894147478
  O   -2.53802255152077     -1.02413699132518      0.69383620139400
  O   -2.44144623401269      0.10048511042544     -1.17829102277210
  N   -0.49470551483526      1.57744564220386     -0.39962046736794
  H   -0.50230908433185      1.43467852451961     -1.40194468536715
  H   0.34841653614721      2.05332298424560     -0.11069361690058
  C   1.80056107331496     -0.42459176650490      0.11388317934302
  H   2.07706445354535      0.40701362548034     -0.53742640679059
  H   2.43013682897698     -1.27475534157121     -0.15572910903169
  H   2.02840294808369     -0.15149840843868      1.14506204853335
