15
Coordinates from ORCA-job run
  C   -0.51102155897727      0.31654970929387      0.26229553213759
  C   0.39703424354866     -0.82262181766670     -0.15878525197335
  Br  -0.34734022130710      0.66345455140678      2.17334318224471
  H   0.24253299826769     -0.96683928708411     -1.23362878992066
  H   0.05075815818348     -1.73975252347245      0.31977871847952
  N   -2.00243060653187     -0.09228362087156      0.04696566054028
  O   -2.85674346894568      0.67891098305890      0.46458581562046
  O   -2.21208720674295     -1.14111503023830     -0.55791939783931
  N   -0.24134540672080      1.50977182339820     -0.44540825091958
  H   -0.25282608664055      1.35196568262858     -1.44598910873443
  H   -0.86953446080438      2.25964851037382     -0.18594540436380
  C   1.87071490038644     -0.55217961929105      0.13773258920770
  H   2.10944770443931     -0.75851491776175      1.18089333891153
  H   2.12535773267633      0.48664427886298     -0.07377458474934
  H   2.49748327916868     -1.19363872263722     -0.48514404864132
