14

C	-0.259633	-0.0273	-1.473431
C	0.0	0.0	0.0
Br	-2.250656	0.009322	-1.972412
H	1.095826	0.0	0.0
H	-0.368393	0.949068	0.402842
C	0.303314	1.14544	-2.142016
N	0.716601	2.101492	-2.685906
C	0.245276	-1.249538	-2.101359
N	0.622948	-2.237406	-2.613481
C	-0.518782	-1.207812	0.752395
H	-0.041176	-2.11881	0.380066
H	-0.238309	-1.111398	1.804392
H	-1.607096	-1.32808	0.691173
F	2.545543	0.0	0.0
