14

C	-0.422582	-0.046973	-1.463433
C	0.0	0.0	0.0
Br	0.267324	-1.698642	-2.297913
H	1.092907	0.0	0.0
H	-0.386511	-0.907102	0.477354
C	-1.878791	-0.071484	-1.638686
N	-3.053649	-0.075741	-1.701242
C	0.11738	1.085069	-2.221601
N	0.4885	2.021439	-2.827034
C	-0.507609	1.259647	0.689778
H	-0.081376	2.148889	0.217004
H	-1.600214	1.356358	0.707906
H	-0.144789	1.248742	1.720736
F	2.603834	0.0	0.0
