14

C	-0.382492	0.010905	-1.476798
C	0.0	0.0	0.0
Br	0.323591	-1.613853	-2.350817
H	1.093424	0.0	0.0
H	-0.395663	-0.925301	0.432709
C	-1.831659	0.003772	-1.703007
N	-3.002865	0.019521	-1.81598
C	0.191174	1.16617	-2.171873
N	0.58275	2.122351	-2.732039
C	-0.520593	1.23583	0.72247
H	-0.054815	2.135959	0.312735
H	-1.61094	1.351956	0.688711
H	-0.214482	1.17188	1.769643
F	2.603448	0.0	0.0
