16

C	0.0	0.0	0.0
C	-0.458066	0.038822	-1.452203
F	1.408752	0.0	0.0
H	-1.535601	0.248416	-1.40652
H	-0.342288	0.89906	0.508903
N	-0.489596	-1.162403	0.636674
H	-0.751201	-1.016489	1.597095
H	0.139503	-1.94287	0.523028
C	-0.16286	-1.230017	-2.215712
H	-0.432855	-1.121265	-3.265452
H	0.896809	-1.488128	-2.160652
H	-0.769404	-2.024601	-1.780728
N	0.195547	1.229572	-2.088402
O	0.011025	2.316128	-1.541897
O	0.878668	1.071211	-3.101068
Br	-3.808711	0.0	0.0
