16

C	0.0	0.0	0.0
C	-0.439869	0.065477	-1.469463
F	1.398997	0.0	0.0
H	-1.509345	0.304848	-1.446094
H	-0.326523	0.917914	0.489905
N	-0.484914	-1.109982	0.745379
H	-1.487891	-0.962924	0.872529
H	-0.360811	-1.969838	0.224215
C	-0.159636	-1.189062	-2.26338
H	-0.362273	-1.027703	-3.321785
H	-0.825345	-1.980327	-1.915291
H	0.881029	-1.500489	-2.155997
N	0.242148	1.254672	-2.078398
O	0.985638	1.091117	-3.047234
O	0.022315	2.343761	-1.551423
Br	-3.678602	0.0	0.0
