16

C	0.0	0.0	0.0
C	-0.290647	-0.081928	-1.518883
F	1.397375	0.0	0.0
H	0.113845	0.820905	-1.979634
H	-0.338824	0.976093	0.356847
N	-0.51628	-1.005288	0.851213
H	-0.472071	-1.907703	0.394912
H	-1.486542	-0.794522	1.069575
C	-1.725094	-0.323976	-1.913239
H	-2.384703	0.445581	-1.514344
H	-1.814471	-0.343924	-3.002549
H	-2.094607	-1.261526	-1.503471
N	0.558124	-1.176865	-2.093024
O	1.3702	-0.883807	-2.968635
O	0.373514	-2.318293	-1.666651
Br	-4.533112	0.0	0.0
