15

C	-0.588851	0.0105	-1.415174
C	0.0	0.0	0.0
Br	0.198465	-1.476059	-2.427788
H	1.097203	0.0	0.0
H	-0.342897	-0.92502	0.475656
C	-2.104976	-0.159473	-1.401251
H	-2.512595	-0.135195	-2.413244
H	-2.352345	-1.119464	-0.942874
H	-2.530461	0.647942	-0.803381
C	-0.248581	1.250846	-2.1115
N	-0.050322	2.271044	-2.660371
N	-0.548024	1.158397	0.726707
H	-0.531329	0.943229	1.71625
H	0.106544	1.924653	0.602107
Br	3.640227	0.0	0.0
