15

C	-0.454131	-0.082374	-1.465914
C	0.0	0.0	0.0
Br	-0.102435	1.657696	-2.322969
H	1.093297	0.0	0.0
H	-0.36878	0.929285	0.447338
C	0.313837	-1.165693	-2.20986
H	1.381794	-0.951213	-2.123412
H	0.018604	-1.213332	-3.259677
H	0.103248	-2.119032	-1.721397
C	-1.899981	-0.291455	-1.541322
N	-3.060806	-0.475992	-1.572138
N	-0.450592	-1.210345	0.684616
H	0.29961	-1.552992	1.27032
H	-1.259883	-1.028221	1.261967
Br	3.612627	0.0	0.0
