15

C	-0.563231	-0.025642	-1.423644
C	0.0	0.0	0.0
Br	0.06162	-1.658591	-2.341314
H	1.09801	0.0	0.0
H	-0.341836	0.94528	0.439852
C	-2.088721	-0.030768	-1.444757
H	-2.441626	-0.878871	-0.860872
H	-2.448516	0.894462	-0.982881
H	-2.465343	-0.086562	-2.467276
C	-0.069716	1.111941	-2.196628
N	0.222405	2.067565	-2.815413
N	-0.5579	-1.111789	0.781567
H	-0.441238	-0.876782	1.760666
H	0.044136	-1.913392	0.622165
Br	3.622697	0.0	0.0
