16

C	0.0	0.0	0.0
C	-0.379593	-0.211354	-1.489945
F	1.37283	0.0	0.0
H	-1.444388	-0.474576	-1.47626
C	-0.546023	1.283876	0.472349
N	-0.525322	2.393963	0.887006
C	-0.508159	-1.045136	0.914844
N	-0.546394	-1.870918	1.758604
N	0.360389	-1.390198	-2.041331
O	0.605415	-2.324681	-1.280546
O	0.600556	-1.403042	-3.252398
C	-0.11712	1.02641	-2.319265
H	-0.784251	1.82011	-1.981027
H	0.917465	1.359399	-2.206747
H	-0.308396	0.821438	-3.370791
H	-2.307378	0.0	0.0
