16

C	0.0	0.0	0.0
C	-0.349812	-0.224082	-1.506689
F	1.372938	0.0	0.0
H	-1.349233	-0.651148	-1.556275
C	-0.659864	1.225978	0.471874
N	-0.591152	2.342578	0.886691
C	-0.458103	-1.102274	0.877753
N	-0.512394	-1.980929	1.662334
N	0.579692	-1.272725	-2.055803
O	0.680128	-2.316813	-1.414819
O	1.141028	-1.064442	-3.13511
C	-0.244719	1.057372	-2.301486
H	-0.391203	0.861338	-3.363583
H	0.733351	1.522428	-2.163717
H	-1.016589	1.741213	-1.948506
H	-2.216973	0.0	0.0
