16

C	0.0	0.0	0.0
C	-0.355527	0.024095	-1.523426
F	1.372395	0.0	0.0
H	-1.407577	0.264568	-1.620233
C	-0.387223	1.319086	0.571298
N	-0.619651	2.335531	1.114092
C	-0.763468	-1.046075	0.712892
N	-0.67321	-1.995251	1.430944
N	-0.228576	-1.348886	-2.104661
O	-1.026724	-1.632432	-3.000826
O	0.682941	-2.073084	-1.715153
C	0.532176	0.947511	-2.338164
H	0.448647	1.967221	-1.956835
H	1.576103	0.636726	-2.286661
H	0.203403	0.936364	-3.381023
H	-2.21634	0.0	0.0
