16

C	0.0	0.0	0.0
C	-0.345314	-0.089716	-1.51814
F	1.372516	0.0	0.0
H	-1.416396	0.069318	-1.611408
C	-0.61315	1.252296	0.492232
N	-0.535113	2.375991	0.874283
C	-0.536909	-1.109304	0.806722
N	-0.583768	-2.003459	1.57925
N	-0.101196	-1.454814	-2.0734
O	0.663056	-2.221541	-1.491027
O	-0.671315	-1.703033	-3.137145
C	0.472778	0.891915	-2.342629
H	0.339569	1.898857	-1.942637
H	0.123258	0.870699	-3.376357
H	1.533924	0.640476	-2.312657
H	-2.234838	0.0	0.0
