16

C	0.0	0.0	0.0
C	-0.346506	-0.116209	-1.523051
F	1.377918	0.0	0.0
H	-1.31081	-0.603332	-1.619578
C	-0.61408	1.205333	0.56568
N	-0.575987	2.285653	1.063388
C	-0.477659	-1.160613	0.780207
N	-0.499918	-2.109889	1.48246
N	0.655346	-1.064889	-2.127646
O	1.477802	-0.637975	-2.939184
O	0.569609	-2.239118	-1.76978
C	-0.310205	1.223285	-2.218958
H	0.621015	1.750844	-2.009535
H	-1.149312	1.81449	-1.853004
H	-0.400654	1.09465	-3.298249
H	-2.197625	0.0	0.0
