16

C	0.0	0.0	0.0
C	-0.363752	-0.056239	-1.511785
F	1.37786	0.0	0.0
H	-1.422264	-0.330199	-1.554791
C	-0.642927	1.183035	0.597238
N	-0.579916	2.231269	1.158497
C	-0.466037	-1.166682	0.784574
N	-0.540527	-2.091531	1.513744
N	0.388081	-1.160461	-2.188654
O	0.608681	-2.184913	-1.546514
O	0.664275	-1.018886	-3.383115
C	-0.106525	1.269689	-2.195412
H	-0.325239	1.192676	-3.258546
H	-0.75647	2.022804	-1.748695
H	0.933497	1.579012	-2.069309
H	-2.252456	0.0	0.0
