16

C	0.0	0.0	0.0
C	-0.355765	0.019198	-1.524384
F	1.372585	0.0	0.0
H	-1.409734	0.254679	-1.61662
C	-0.455914	1.301536	0.561746
N	-0.708891	2.326457	1.08486
C	-0.764421	-1.059538	0.698162
N	-0.704677	-2.004481	1.428046
N	-0.220871	-1.354305	-2.10517
O	-0.992475	-1.629461	-3.027504
O	0.666191	-2.09406	-1.679148
C	0.522892	0.958603	-2.332841
H	0.444581	1.968588	-1.925139
H	0.179599	0.978007	-3.369948
H	1.568167	0.648399	-2.30077
H	-2.210564	0.0	0.0
