16

C	-0.586763	-0.029425	-1.39549
C	0.0	0.0	0.0
Br	0.095081	1.503921	-2.391785
H	1.087533	0.0	0.0
H	-1.666763	0.111697	-1.342648
C	-0.193346	-1.309431	-2.114522
H	-0.670479	-2.172108	-1.641784
H	-0.519222	-1.266182	-3.154729
H	0.890054	-1.439578	-2.078068
N	-0.495521	-1.227255	0.715305
O	-1.681528	-1.218523	1.05381
O	0.284015	-2.161151	0.851416
N	-0.506722	1.136725	0.834838
O	0.03443	1.261251	1.929218
O	-1.430943	1.823411	0.405816
Cl	3.239088	0.0	0.0
