16

C	-0.560951	-0.041015	-1.406453
C	0.0	0.0	0.0
Br	0.12406	1.498307	-2.393436
H	1.087547	0.0	0.0
H	-1.644152	0.084454	-1.38005
C	-0.126534	-1.317299	-2.111009
H	-0.606293	-2.187157	-1.654493
H	-0.415372	-1.279033	-3.162137
H	0.957252	-1.431112	-2.0358
N	-0.498716	-1.22494	0.715675
O	0.271976	-2.168569	0.830828
O	-1.677547	-1.206334	1.074895
N	-0.51707	1.140215	0.821181
O	-1.425094	1.833499	0.369489
O	-0.000446	1.262992	1.926464
Cl	3.23846	0.0	0.0
