16

C	-0.519166	0.008746	-1.431604
C	0.0	0.0	0.0
Br	0.001227	-1.685922	-2.258292
H	1.090445	0.0	0.0
H	0.077097	0.760689	-1.948408
C	-2.003913	0.238886	-1.652423
H	-2.197701	0.30659	-2.724971
H	-2.308634	1.177548	-1.185706
H	-2.597246	-0.573184	-1.236923
N	-0.558632	-1.120646	0.807017
O	-1.781494	-1.118478	0.968931
O	0.219175	-1.965433	1.233032
N	-0.368073	1.271431	0.709045
O	-0.498919	1.228299	1.926379
O	-0.419309	2.285381	0.016985
Cl	3.1914	0.0	0.0
