16

C	-0.523735	0.01205	-1.429361
C	0.0	0.0	0.0
Br	0.025925	-1.665464	-2.271141
H	1.090443	0.0	0.0
H	0.054306	0.781186	-1.941471
C	-2.014613	0.21402	-1.64011
H	-2.588769	-0.61508	-1.230693
H	-2.215765	0.288698	-2.710647
H	-2.336415	1.140687	-1.161272
N	-0.552999	-1.129477	0.800234
O	-1.771525	-1.117935	0.98808
O	0.224767	-1.989789	1.193446
N	-0.376965	1.262621	0.718553
O	-0.467061	2.277576	0.030952
O	-0.475424	1.212792	1.938502
Cl	3.195189	0.0	0.0
