19
Coordinates from ORCA-job run
  C   0.81488106460816      0.00300566534423      0.22774176258032
  C   -0.65216361661083      0.04133923539712     -0.22656339638297
  Cl  0.96137460143948      0.24901729910120      1.97618331009677
  H   -0.60359678667906     -0.12455524784091     -1.30898063040669
  N   1.50531090256310      1.16871447614444     -0.49364195992245
  O   1.90379308870292      2.13753259908521      0.13518358019897
  O   1.56368431563192      1.02654692109511     -1.71313373965194
  C   1.56160911758912     -1.26063284799998     -0.16021755624517
  H   1.18468268594788     -2.10501507643723      0.41495955961202
  H   1.43604444001748     -1.45464530954463     -1.22551682700735
  H   2.62486825903104     -1.14750795190575      0.05999723057062
  C   -1.30027748002760      1.40187927180489      0.01931128956597
  H   -0.78221953671260      2.20656897120689     -0.50645806477236
  H   -2.33032945630185      1.38323833648123     -0.34392111451117
  H   -1.32009913241486      1.64439777516536      1.08364847733446
  C   -1.47381340579752     -1.08192899843187      0.40016637551277
  H   -1.06528355157637     -2.06941191496764      0.17874503441672
  H   -1.53805624096307     -0.96727189885123      1.48383239644970
  H   -2.48940926844735     -1.05027130484643     -0.00133572743819
