19
Coordinates from ORCA-job run
  C   0.87832304997967      0.06809757987692      0.36415012454776
  C   -0.65659979658183     -0.02116610907440      0.48060843193657
  Cl  1.53279988934708      0.81462536636251      1.83992147649463
  H   -0.82114008497657     -0.45974810567399      1.47197232611058
  N   1.19377189872050      0.98902743775990     -0.81766386877484
  O   1.11783774758742      0.44992162632368     -1.92122332124088
  O   1.41757319415375      2.17440888129809     -0.61808793993175
  C   1.58132664341629     -1.25657327747278      0.14787521223637
  H   1.28468712907517     -1.70167853563128     -0.79868170452526
  H   1.32482503001713     -1.93014267195672      0.96750470047760
  H   2.66245991421565     -1.10904511022870      0.14610934648780
  C   -1.29126234033667     -0.94558799129009     -0.55865570346543
  H   -1.09119327657016     -0.60240279185116     -1.57507851284638
  H   -2.37392545564009     -0.94886067845124     -0.41035734879617
  H   -0.94497556200055     -1.97581986248928     -0.46537272359552
  C   -1.31866948279738      1.35567897630799      0.44707018778367
  H   -0.84469710792424      2.05950850980666      1.13139699631860
  H   -2.36915746872029      1.25844849029454      0.72989292916914
  H   -1.28498392096488      1.78130826608935     -0.55938060838649
