19
Coordinates from ORCA-job run
  C   0.80920187220062      0.01467843194790      0.24733744094833
  C   -0.64639581109485      0.02696240700553     -0.24344366536686
  Cl  0.90876607313457      0.29545537410923      1.99403912565654
  H   -0.56996686163108     -0.16695043786083     -1.31959302007777
  N   1.50385042435768      1.17462262490206     -0.47908129266725
  O   1.87331054974093      2.16065898517665      0.14058682950907
  O   1.59418560313548      1.00977759954894     -1.69377657311012
  C   1.58003082671411     -1.24714110322960     -0.09721575618526
  H   1.48601477750280     -1.46146446718518     -1.16185308587978
  H   2.63546311361479     -1.11810173376405      0.15025162985836
  H   1.19657915008199     -2.08531187568289      0.48272224713478
  C   -1.31270763223533      1.38708435058827     -0.04912649311034
  H   -2.33630804615422      1.34656066926685     -0.42849025721208
  H   -0.79448494487273      2.18179832406235     -0.58967818224132
  H   -1.35304638087746      1.66017434832515      1.00725448298386
  C   -1.47445064412824     -1.08616970349488      0.39306856539571
  H   -1.58002657759504     -0.93371696795403      1.46879381438558
  H   -2.47489789165711     -1.08388433648614     -0.04602049186895
  H   -1.04511760023691     -2.07503248927534      0.22322468184750
