19
Coordinates from ORCA-job run
  C   0.88951830039986      0.33058434586692      0.09995915628337
  C   -0.62681149579737      0.55556478006223      0.03866718530417
  Cl  1.64583073237509      1.57356148255858      1.13496274612714
  H   -0.75541985875178      1.62014523711231     -0.18146607893272
  N   1.40624989061735      0.58919059464853     -1.31661240952412
  O   1.22440316673248      1.71062401743725     -1.77317979571746
  O   1.89208500360355     -0.36378529905508     -1.91995559144642
  C   1.33719072303377     -1.03268906925004      0.57194587029841
  H   1.05511739081495     -1.15764068715707      1.61701049705236
  H   0.88297118534651     -1.82234243556385     -0.02572713841087
  H   2.41985895778172     -1.12156376771458      0.49126280769898
  C   -1.29515727888556      0.23574657093724      1.37303692748568
  H   -2.33682439310000      0.56355343682294      1.34321991685558
  H   -1.29465936067787     -0.83937738511538      1.56879806852428
  H   -0.80902776860413      0.74382117914888      2.20729369047117
  C   -1.27100070929996     -0.24605968952374     -1.09404478694982
  H   -0.89574229913018      0.04610929083055     -2.07641371744085
  H   -2.34807678873240     -0.06333129792860     -1.08955628039221
  H   -1.11950539772603     -1.32111130411710     -0.97020106728671
