19
Coordinates from ORCA-job run
  C   0.88137073651405      0.05416748522694      0.35858082457851
  C   -0.65386689437083     -0.01339250176683      0.48459805310472
  Cl  1.55592975691440      0.78625339924582      1.83236253821535
  H   -0.81817914049086     -0.45281812054731      1.47559625182414
  N   1.20283744769408      0.97380517102668     -0.82250677706843
  O   1.11055551609785      0.44006649680166     -1.92732335344974
  O   1.44715681807308      2.15470706450741     -0.62022346650425
  C   1.56405811762093     -1.27978292315055      0.13354880447042
  H   1.30488339561867     -1.95201880344935      0.95341303287120
  H   1.25436968693585     -1.71844730771676     -0.81183170579265
  H   2.64709214186927     -1.14710854338570      0.12388583461604
  C   -1.30846298400214     -0.92465145246982     -0.55377401537283
  H   -1.10838148420892     -0.58176119776235     -1.57029367416662
  H   -0.97779011916552     -1.96046233810458     -0.46559228183499
  H   -2.39024392522803     -0.91160636856356     -0.39983635538876
  C   -1.29584714651507      1.37313226775253      0.46019300150904
  H   -0.80859921898123      2.06694782761205      1.14544616261829
  H   -2.34641062863583      1.29008993344254      0.74720837210981
  H   -1.26047207573974      1.80287991130120     -0.54445124633927
