15

C	-0.511758	0.067326	-1.418693
C	0.0	0.0	0.0
Br	0.296425	-1.517362	-2.430448
H	1.091794	0.0	0.0
H	-0.359111	-0.945793	0.428548
N	-1.936604	0.044334	-1.519171
H	-2.238838	-0.033273	-2.483131
H	-2.286452	-0.750386	-0.997212
C	-0.014823	1.239346	-2.147158
N	0.301092	2.204368	-2.738472
C	-0.470739	1.197391	0.82147
H	-1.558694	1.292954	0.897008
H	-0.069238	2.120875	0.395126
H	-0.048219	1.106883	1.825798
F	2.641189	0.0	0.0
