15

C	-0.069455	0.144852	-1.523269
C	0.0	0.0	0.0
Br	-1.801225	1.120057	-2.169378
H	1.098278	0.0	0.0
H	-0.441387	-0.940838	0.331424
N	1.064252	0.866243	-1.949549
H	1.883765	0.620395	-1.32356
H	1.259018	0.75134	-2.93449
C	-0.249867	-1.157656	-2.182555
N	-0.33033	-2.204951	-2.713642
C	-0.488125	1.204584	0.782471
H	-0.067564	2.114506	0.350504
H	-1.577858	1.295104	0.790836
H	-0.131102	1.129176	1.813744
F	2.7357	0.0	0.0
