15

C	-0.495053	0.011654	-1.427082
C	0.0	0.0	0.0
Br	0.181462	-1.591419	-2.372026
H	1.092891	0.0	0.0
H	-0.383084	-0.915005	0.46484
N	-1.944905	-0.040173	-1.529877
H	-2.319209	0.712211	-0.961196
H	-2.23401	0.112521	-2.490731
C	0.056455	1.158853	-2.172669
N	0.362775	2.120565	-2.775725
C	-0.436238	1.241408	0.776613
H	-1.517179	1.330962	0.951406
H	0.056288	1.212271	1.751629
H	-0.083133	2.148726	0.278514
F	2.64169	0.0	0.0
