15

C	-0.412003	0.029655	-1.443129
C	0.0	0.0	0.0
Br	-2.29839	0.892862	-1.627578
H	1.095403	0.0	0.0
H	-0.300999	0.952498	0.438457
N	0.529964	0.827653	-2.114848
H	0.561476	0.718134	-3.116837
H	1.425868	0.678936	-1.631934
C	-0.666233	-1.28803	-2.046253
N	-0.836201	-2.337318	-2.549563
C	-0.592219	-1.134891	0.816428
H	-1.687068	-1.143589	0.795633
H	-0.27138	-1.033837	1.857313
H	-0.232486	-2.103509	0.461603
F	2.660469	0.0	0.0
