15

C	-0.495058	0.004982	-1.426992
C	0.0	0.0	0.0
Br	0.178236	-1.603567	-2.363245
H	1.092911	0.0	0.0
H	-0.383397	-0.913167	0.468672
N	-1.944751	-0.044461	-1.529018
H	-2.3178	0.713268	-0.96712
H	-2.23263	0.099864	-2.491043
C	0.058269	1.148098	-2.179098
N	0.366126	2.106045	-2.788679
C	-0.437862	1.244479	0.770558
H	-1.518977	1.332055	0.946365
H	0.054498	1.221434	1.745762
H	-0.086671	2.15044	0.267516
F	2.643006	0.0	0.0
