15

C	-0.53501	-0.017869	-1.41934
C	0.0	0.0	0.0
Br	0.229696	-1.556159	-2.405847
H	1.093478	0.0	0.0
H	-0.334161	0.959643	0.425911
N	-1.988912	-0.122441	-1.601867
H	-2.401378	0.616347	-1.036156
H	-2.278053	-1.004389	-1.192749
C	-0.09925	1.186508	-2.137463
N	0.185643	2.191001	-2.676017
C	-0.489023	-1.154457	0.861557
H	-0.008501	-1.072546	1.839225
H	-1.575346	-1.183485	1.019555
H	-0.172063	-2.108648	0.433945
F	2.63811	0.0	0.0
