18

C	0.0	0.0	0.0
C	-0.613553	-0.020602	-1.412735
Br	1.955794	0.0	0.0
H	-1.713167	0.106583	-1.166893
N	-0.500941	1.100097	0.778028
H	-0.312457	1.965634	0.285298
H	-1.525585	0.931687	0.742318
C	-0.430859	-1.291977	0.699009
H	-0.106941	-1.218477	1.738166
H	-1.522991	-1.308281	0.644633
H	0.017755	-2.173154	0.2417
N	-0.475015	-1.306084	-2.161959
O	0.617128	-1.870266	-2.181456
O	-1.49149	-1.707628	-2.728754
N	-0.115606	1.044037	-2.325572
O	0.220153	0.731512	-3.466737
O	-0.104042	2.191207	-1.882956
F	-2.866064	0.0	0.0
