18

C	0.0	0.0	0.0
C	-0.220901	-0.075522	-1.547876
Br	1.962287	0.0	0.0
H	0.279386	0.783701	-1.987849
N	-0.577802	1.178739	0.53135
H	-0.412665	1.965432	-0.090288
H	-1.615127	0.916642	0.481906
C	-0.465034	-1.19516	0.81121
H	-1.551489	-1.219315	0.677898
H	-0.224658	-0.976612	1.853998
H	0.014448	-2.119204	0.503512
N	-1.632429	0.030487	-2.101794
O	-2.001383	1.180406	-2.301675
O	-2.199602	-0.99323	-2.447885
N	0.380203	-1.251699	-2.266488
O	0.234616	-2.377973	-1.807489
O	0.958496	-0.982298	-3.321509
F	-2.808736	0.0	0.0
