18

C	0.0	0.0	0.0
C	-0.20727	0.354669	-1.513654
Br	1.978375	0.0	0.0
H	0.319984	-0.369938	-2.128717
N	-0.580085	0.830618	0.973723
H	-0.414233	1.80135	0.740099
H	-1.614403	0.612526	0.81544
C	-0.447192	-1.438584	0.208749
H	-1.541158	-1.399042	0.149871
H	-0.129217	-1.746247	1.207019
H	-0.019785	-2.113348	-0.536183
N	0.365066	1.68211	-1.921356
O	0.88336	1.713534	-3.038702
O	0.264405	2.640954	-1.163422
N	-1.613375	0.358755	-2.083793
O	-2.180564	1.434306	-2.199763
O	-1.986246	-0.722509	-2.517092
F	-2.808545	0.0	0.0
