18

C	0.0	0.0	0.0
C	-0.600047	0.000911	-1.414829
Br	1.959776	0.0	0.0
H	-1.699054	-0.108986	-1.187451
N	-0.529227	1.089605	0.773228
H	-0.30875	1.966258	0.316962
H	-1.55412	0.914369	0.710078
C	-0.417398	-1.296466	0.69371
H	0.009641	-2.179109	0.220142
H	-0.069633	-1.229981	1.725555
H	-1.509235	-1.315231	0.658833
N	-0.106023	-1.089516	-2.300943
O	-0.642566	-2.188509	-2.173211
O	0.81776	-0.834731	-3.073766
N	-0.432063	1.256947	-2.208836
O	0.293496	2.159627	-1.796924
O	-1.079174	1.294009	-3.253195
F	-2.87591	0.0	0.0
