10
Coordinates from ORCA-job run
  C   -1.03919252600666     -0.38930704821612      0.04433057775619
  C   0.16569756450828      0.50574647676430      0.24484309805579
  Cl  -2.45319892604071      0.38164380916282      0.80389209075694
  H   0.03053519445064      1.49180410767255     -0.19410901820998
  H   -1.25555174115664     -0.52049179473768     -1.01511868886992
  H   -0.88754109129884     -1.35886855734611      0.50969512478406
  H   0.41069963244471      0.60585082082100      1.30364633813267
  N   1.37164180264930     -0.09006644977312     -0.41146347291111
  O   1.50212650822071     -1.30999896371724     -0.33356321518369
  O   2.15578358222921      0.68368759936959     -0.95115283431094
