10
Coordinates from ORCA-job run
  C   -1.10141459559934     -0.16857523918260      0.25708041691162
  C   0.12577002971744      0.62434365623060     -0.11401039836177
  Cl  -1.45160200775036     -1.39863254028351     -0.98010695954381
  H   0.07069256887680      1.03913154940319     -1.11787509915905
  H   -1.96193363386985      0.49697560672428      0.32129715820666
  H   -0.95192350999248     -0.67789259924168      1.20630735302474
  H   0.30003977329157      1.41688470582292      0.61840874543471
  N   1.34934345253326     -0.23807513923382     -0.07949666816603
  O   1.48328196448077     -0.96500969277297      0.90039529455667
  O   2.13874595831219     -0.12915030746641     -1.01199984290375
