10
Coordinates from ORCA-job run
  C   -1.11016246081297     -0.17180211546317     -0.21413666926274
  C   0.13154801561740      0.62694742182812      0.09011013545856
  Cl  -1.42221300064918     -1.36100489268781      1.07222384525343
  H   0.28346987915764      1.39540378109177     -0.67233586556605
  H   -1.97014672610280      0.49518718464345     -0.27006125956547
  H   -0.99469978815399     -0.71121502629530     -1.15141218953425
  H   0.11197130864966      1.07319663465687      1.08172795731258
  N   1.35036455160517     -0.24148938254895      0.04134415725012
  O   1.44853456400247     -0.99932717845867     -0.91918039487680
  O   2.17133365668661     -0.10689642676629      0.94272028353062
