10
Coordinates from ORCA-job run
  C   -1.10068512256596     -0.20303717070261      0.23455536479296
  C   0.12930371718872      0.63385323079000     -0.00845199882073
  Cl  -1.46858553606828     -1.20584325090985     -1.18870189055778
  H   0.06914474703928      1.21170338850375     -0.92786001705875
  H   -0.94883924046100     -0.86541892317915      1.08360678618619
  H   -1.95574309442756      0.44783671705926      0.41580952413291
  H   0.31466481645582      1.29129516988044      0.84497502017712
  N   1.34699817993109     -0.22867974209246     -0.12994100430493
  O   2.13099114391338      0.03216160849928     -1.03662184687701
  O   1.48275038899450     -1.11187102784866      0.71163006233001
