16

C	-0.380845	0.060002	-1.500089
C	0.0	0.0	0.0
Cl	-0.089861	-1.591604	-2.244364
H	1.092069	0.0	0.0
N	-1.786497	0.308285	-1.688344
H	-1.968842	1.274824	-1.437156
H	-2.032268	0.168874	-2.660535
N	0.476138	1.056651	-2.039097
H	1.452942	0.882275	-1.792832
H	0.378613	1.11203	-3.045295
N	-0.550886	-1.200355	0.701785
O	0.175069	-2.185468	0.766824
O	-1.693517	-1.11201	1.149954
C	-0.497824	1.20216	0.654361
N	-0.903517	2.185556	1.152017
Br	3.392446	0.0	0.0
