16

C	-0.398416	-0.154204	-1.477989
C	0.0	0.0	0.0
Cl	0.007321	1.586173	-2.22763
H	1.087973	0.0	0.0
N	0.412548	-1.129004	-2.071741
H	1.384536	-1.013076	-1.785693
H	0.352619	-1.093437	-3.07992
N	-1.777779	-0.41147	-1.635924
H	-2.327671	0.363234	-1.285106
H	-2.008813	-0.5656	-2.610008
N	-0.461186	-1.239006	0.733994
O	-1.504862	-1.163114	1.379631
O	0.23807	-2.234138	0.611232
C	-0.580367	1.16643	0.641234
N	-1.06208	2.101218	1.164323
Br	3.366606	0.0	0.0
