16

C	-0.330811	-0.090578	-1.502486
C	0.0	0.0	0.0
Cl	-2.120469	-0.632048	-1.690417
H	1.091822	0.0	0.0
N	-0.157741	1.207884	-2.057638
H	-0.867657	1.859503	-1.748127
H	-0.151377	1.164195	-3.068465
N	0.476462	-1.098617	-2.084746
H	1.439525	-0.992639	-1.761118
H	0.434377	-1.059261	-3.095121
N	-0.451622	-1.212955	0.756543
O	0.157743	-2.249791	0.528839
O	-1.38548	-1.081211	1.546705
C	-0.55134	1.198275	0.606192
N	-0.971218	2.199225	1.055128
Br	3.361108	0.0	0.0
