16

C	-0.359705	0.003649	-1.49437
C	0.0	0.0	0.0
Cl	0.038816	1.726682	-2.054036
H	1.092317	0.0	0.0
N	0.48372	-0.958876	-2.103886
H	1.461275	-0.812051	-1.840897
H	0.389797	-0.941096	-3.111726
N	-1.765163	-0.142194	-1.761869
H	-1.953474	0.105807	-2.724061
H	-2.001627	-1.11333	-1.597137
N	-0.387449	-1.288557	0.697068
O	0.117179	-1.44684	1.802531
O	-1.166565	-2.069018	0.15267
C	-0.581846	1.084021	0.769894
N	-1.045284	1.948754	1.41477
Br	3.366242	0.0	0.0
