16

C	-0.229653	0.024537	-1.521871
C	0.0	0.0	0.0
Cl	-1.974714	0.140599	-1.955233
H	1.093726	0.0	0.0
N	0.392778	1.256792	-1.950606
H	0.299408	1.35382	-2.954987
H	1.384671	1.202443	-1.712048
N	0.257109	-1.228149	-2.042473
H	1.220706	-1.346343	-1.728233
H	0.246365	-1.190281	-3.055273
N	-0.505764	-1.263335	0.619092
O	-1.660664	-1.257435	1.043691
O	0.264355	-2.2161	0.641351
C	-0.555661	1.154104	0.679641
N	-0.981043	2.081106	1.26142
Br	3.371562	0.0	0.0
