17
Coordinates from ORCA-job run
  C   -0.59950493357072     -0.04749293521138     -0.37167748841885
  C   0.72884932140191      0.31019978965829      0.28665705034963
  Cl  -0.53329375540743      0.07153617171128     -2.11557459593478
  H   0.58179258260179      0.43487429880687      1.35864461677914
  N   -1.65321883046352      0.93924803343643      0.18980208827018
  O   -1.59894537751241      1.09173706233710      1.40520304346478
  O   -2.47723381216617      1.40592590981739     -0.57291405762705
  C   -1.06701514027788     -1.43022442872717      0.05369836861082
  H   -1.06631913414938     -1.51458415938645      1.14164982412368
  H   -2.07756434324354     -1.58928736611292     -0.32579226226017
  H   -0.41618322109643     -2.19320456198857     -0.37339796920716
  N   1.31923651546880      1.60178457705509     -0.20931222804644
  O   2.53829287674811      1.68861316287688     -0.22091880098707
  O   0.50366101170789      2.47839235708664     -0.46618714287217
  N   1.71303441980506     -0.80120976807300      0.11053048268427
  O   2.17947923042454     -0.97278256333156     -1.00837576144691
  O   1.92593258972938     -1.47452557995491      1.11696483251810
