17
Coordinates from ORCA-job run
  C   -0.61083140243312     -0.20721640391726     -0.47994777889904
  C   0.80060127466950      0.36780510086449     -0.36151826623143
  Cl  -0.72427025640216     -0.95123521644797     -2.09147546070675
  H   1.06561897792622      0.95447801406625     -1.23654889347074
  N   -1.55544696283551      1.00585491116552     -0.52292122621889
  O   -2.69125485313248      0.83951288548769     -0.10879848651415
  O   -1.09630168474979      2.02720109808678     -1.02056267130292
  C   -1.04956851917018     -1.19343714331317      0.57161807285594
  H   -0.41249744540738     -2.07585418969290      0.53755619575630
  H   -2.07552395273259     -1.49046213471844      0.36342244296982
  H   -0.99796934927223     -0.74397448652737      1.56111504338614
  N   1.81684927497301     -0.72805647705748     -0.22101056408592
  O   2.43357174762124     -1.02795527635701     -1.23623139162594
  O   1.93191623359138     -1.22338384266239      0.89581736830486
  N   0.99547613677848      1.26299602410371      0.83371952741107
  O   2.09928001755339      1.78919795875710      0.88907080269115
  O   0.07035076302222      1.39452917816248      1.62569528568050
