17
Coordinates from ORCA-job run
  C   -0.62165416831919     -0.29520076142796     -0.41599496822130
  C   0.79049556010581      0.28919055396584     -0.44537852394300
  Cl  -0.77309175115145     -1.33646595691740     -1.84988083476543
  H   1.03395542184672      0.69416495791957     -1.42351603310355
  N   -1.57051295882697      0.88860008469919     -0.66967877608664
  O   -2.69569160299323      0.80764537673749     -0.20428109959473
  O   -1.12611100640342      1.79418029474862     -1.36542843223135
  C   -1.03141188496560     -1.05835266742160      0.81705864890392
  H   -0.95367860209450     -0.42697452380550      1.69971557725497
  H   -2.06231937462195     -1.38554579460434      0.69729545225659
  H   -0.39471220289504     -1.93364431203816      0.93645149512416
  N   1.81218934030331     -0.76083540353605     -0.11810120254873
  O   1.95628375508065     -1.02884733269279      1.07063175586360
  O   2.40406785205171     -1.25474568981524     -1.07040563697539
  N   1.01132992152693      1.39958378755770      0.54793070646776
  O   2.11394580831491      1.92571071089554      0.47208802955675
  O   0.10591589304130      1.68353667573512      1.32249384204238
