17
Coordinates from ORCA-job run
  C   -0.53496061638579     -0.15921670029783     -0.43332775007013
  C   0.69237207314838      0.23669487899245      0.38582927778903
  Cl  -0.16483371422895     -0.33500307358584     -2.13657613145010
  H   0.48099381138014      0.18774197536855      1.45109474110957
  N   -1.56600797227018      0.96486171237557     -0.21960744327336
  O   -2.32091988380751      1.24288192122175     -1.13159768293441
  O   -1.58152282785226      1.41525098527171      0.92220038625937
  C   -1.19621888532830     -1.42136377167713      0.09471218256346
  H   -0.53510939268541     -2.27653430437941     -0.03127049639023
  H   -1.43740672497392     -1.30274337690416      1.15285202437274
  H   -2.11248679273110     -1.59326865496355     -0.47245896771788
  N   1.19802948168215      1.62775306496624      0.12721769120069
  O   0.71870753807922      2.26246017380083     -0.80282915630370
  O   2.06969216421905      1.99059953566161      0.90761525938628
  N   1.83080355000761     -0.70957485320596      0.12175089731270
  O   1.76551755008406     -1.77069201784847      0.73420936590490
  O   2.69335064166281     -0.35884749479636     -0.67081419775894
