17
Coordinates from ORCA-job run
  C   -0.54074989616866     -0.47528701480428     -0.33627782821386
  C   0.87777405235211     -0.22106036265591      0.17183359071940
  Cl  -0.42165778797406     -1.84525227232656     -1.44334079532768
  H   1.23940444119851     -1.11792373224074      0.67318809160340
  N   -1.07767726381676      0.75835838480776     -1.07235347953801
  O   -0.97591395584950      1.78566191827039     -0.41129929672158
  O   -1.60817003812584      0.62392236942851     -2.15817432953903
  C   -1.54404014774219     -0.78700292324548      0.75889367744274
  H   -1.67474328137323      0.07229494372971      1.41335581544611
  H   -1.20502912300803     -1.63983493603350      1.34708899551309
  H   -2.49463792302250     -1.03987585095200      0.28566233070142
  N   1.01020213067353      0.89559639172713      1.18696220950035
  O   1.62044799434397      1.90048021210799      0.85933204648343
  O   0.51039412904704      0.64451189819550      2.27568240365192
  N   1.85171918007924      0.07243594896861     -0.92863689531317
  O   2.99277569077561     -0.33055384245642     -0.73059838604140
  O   1.44090179861075      0.70452886747927     -1.89331815036711
