13
Coordinates from ORCA-job run
  C   -0.55012334508604     -0.45585404608364      0.54415314784639
  C   0.93025938537548     -0.01485989548992      0.50089445502107
  Cl  -1.27810786316831      0.24088741722817      2.01654415089064
  H   1.39726918804128     -0.27866899842942      1.45675452286161
  H   -0.56054105239148     -1.53965719984578      0.67915757114781
  C   -1.33035177996771     -0.04959341266310     -0.68826695894313
  H   -1.34872337059322      1.03638128484498     -0.79384854006304
  H   -2.35807815882171     -0.40543896276736     -0.61060521294204
  H   -0.87885412056028     -0.48882525866992     -1.58153837003066
  C   1.05555802421976      1.43456740220208      0.31515904250490
  N   1.13977193427140      2.59512203912847      0.16133055188866
  C   1.62982538281705     -0.73131901254143     -0.57155483194619
  N   2.15309577586378     -1.34174135691313     -1.42717952823602
