13
Coordinates from ORCA-job run
  C   -0.50294020153462     -0.25914059932617      0.51784891105998
  C   0.73409210617642      0.55911253324237      0.08455761315408
  Cl  -1.31029243159960      0.64716976253397      1.82569518961376
  H   0.38830398335809      1.55355233730057     -0.22414542353754
  H   -0.16389000123197     -1.20033828006528      0.95531847848960
  C   -1.46270222205172     -0.49862554687109     -0.63072782834552
  H   -2.34271363930293     -1.03281629083614     -0.27173450269292
  H   -1.79034887782264      0.44971467607445     -1.06240721214780
  H   -0.98672971501306     -1.09944666650116     -1.40850677426647
  C   1.39747780412167     -0.08131704782962     -1.05706989925284
  N   1.89376544796135     -0.61496137077955     -1.97754219852503
  C   1.69007463838132      0.72620349370209      1.18454788741085
  N   2.45590310855768      0.85089299935555      2.06516575903984
