13
Coordinates from ORCA-job run
  C   -0.45835439552140     -0.53130235415056      0.34441420510750
  C   0.89986811346973     -0.05453453896799     -0.21030609847224
  Cl  -0.59025297947406     -0.06798377737290      2.05851164028641
  H   0.95558358279360     -0.38318804232513     -1.25694048582898
  H   -0.45278222379176     -1.62353793487008      0.31853238134763
  C   -1.62008626321995      0.02841634449575     -0.45276938838222
  H   -2.56064516427138     -0.36263514566726     -0.06363054094545
  H   -1.64734321519571      1.11744741627644     -0.38678751712245
  H   -1.53259861070055     -0.26362049649358     -1.50328209457313
  C   2.02580440161534     -0.66333887939017      0.50473856776159
  N   2.91637626710791     -1.18557941867390      1.06308756968363
  C   1.00321389868407      1.40832729456142     -0.19830864615193
  N   1.06021658850417      2.58052953257794     -0.21825959271038
