13
Coordinates from ORCA-job run
  C   -0.49778343040806     -0.52046942373573      0.30433281686092
  C   0.91433446396988     -0.07228802978395     -0.12614054893704
  Cl  -0.77927425312147     -0.03763866885741      1.99479305160776
  H   1.06112148974330     -0.41160019769024     -1.16047191131438
  H   -0.50943222719498     -1.61283233113235      0.28849924855997
  C   -1.57055063868722      0.05090142414922     -0.60187276748244
  H   -1.39131503735655     -0.25303573818533     -1.63722376429684
  H   -1.58430025223819      1.14083104706417     -0.54776616750528
  H   -2.54994761281495     -0.32011930353159     -0.29847514820617
  C   1.95833465931575     -0.69264815362749      0.69548214598949
  N   2.78769587527078     -1.22069856413309      1.33647675874019
  C   1.04126462920141      1.38883412431237     -0.11549392132563
  N   1.11985233432031      2.55976381515144     -0.13213979269055
