13
Coordinates from ORCA-job run
  C   -0.57762872656725     -0.17927775651325      0.47152678742279
  C   0.76148044059455      0.51044551239656      0.12860433620033
  Cl  -1.45034802742997      0.88590010979994      1.60635744829394
  H   0.53350711365266      1.49991186034594     -0.28704695189625
  H   -0.36677152185919     -1.10360848519007      1.01317344757175
  C   -1.41934302573065     -0.44239636769141     -0.76134724095916
  H   -2.37413348803990     -0.88125923599694     -0.47040772659290
  H   -1.61931620400418      0.48846256021349     -1.29687015432717
  H   -0.90908891175719     -1.13736835263405     -1.43167301764793
  C   1.49483398981652     -0.26296711702084     -0.88037411943458
  N   2.05917004508781     -0.90592052714688     -1.68453573963054
  C   1.60023636097321      0.69396198282712      1.31789574889894
  N   2.26840195526358      0.83411581661040      2.27269718210081
