13
Coordinates from ORCA-job run
  C   -0.58880399401588     -0.16107908331695      0.46416614219444
  C   0.75292529803604      0.52503461279845      0.12309308403285
  Cl  -1.50556259426227      0.95306584450214      1.51391988527731
  H   0.52684353064928      1.48645023481693     -0.35467065622024
  H   -0.38432372240039     -1.05253456564943      1.06061877644688
  C   -1.39087751162880     -0.49951069568714     -0.77680649191681
  H   -0.85468808921511     -1.22445563881269     -1.39291420789251
  H   -2.35008791737353     -0.93182520028205     -0.49061512738426
  H   -1.58290478944812      0.39892472384604     -1.36775783046820
  C   1.52461419733476     -0.29542123365184     -0.81750509444644
  N   2.11178935305306     -0.96999461989322     -1.57812064984628
  C   1.55221334447211      0.78619823120423      1.32511403301705
  N   2.18986289479885      0.98414739012552      2.29047813720622
