13
Coordinates from ORCA-job run
  C   -0.56447839156825     -0.45004754013430      0.53626682813544
  C   0.90891946661260      0.01436277448440      0.53219401091315
  Cl  -1.35653980200665      0.27718575209976      1.95994746071304
  H   1.34707172460863     -0.21397177560378      1.51058775629861
  H   -0.56313953153390     -1.52946908372828      0.70314836527974
  C   -1.30580082945640     -0.09350357228822     -0.73503975721174
  H   -1.33898339999524      0.98864252263547     -0.87275284593413
  H   -2.32942512063224     -0.46593085052371     -0.68452711959038
  H   -0.81408238010044     -0.54941034338969     -1.59834712780342
  C   1.01713513453919      1.46036098820751      0.31028224734228
  N   1.08825213871891      2.61792778753994      0.12987720949087
  C   1.65967934444790     -0.71772266412541     -0.49401263506819
  N   2.25139164636590     -1.33742399517368     -1.29662439256526
