13
Coordinates from ORCA-job run
  C   -0.49439083735520     -0.50966676902489      0.32783241705426
  C   0.91885784212763     -0.05853629788223     -0.09457381925167
  Cl  -0.84270370171627      0.09806357366815      1.96477646211685
  H   1.10784572187920     -0.47628932059654     -1.09281563285416
  H   -0.47870967874893     -1.59976817544669      0.39917071248233
  C   -1.55152215111637     -0.04200125856153     -0.65319344224191
  H   -2.53055321386915     -0.41427934426433     -0.35018757090559
  H   -1.33175257966200     -0.42273079590927     -1.65480716992546
  H   -1.59415784349450      1.04798558155815     -0.68776597031085
  C   1.95178529613251     -0.58001573608864      0.80606228938470
  N   2.77221560979059     -1.01464795574921      1.52412986838706
  C   1.00933461296847      1.40161261723207     -0.19842724640169
  N   1.06475092306397      2.57027388106497     -0.29220089753381
