17

C	-0.497813	0.100315	-1.44448
C	0.0	0.0	0.0
Br	-0.463776	-1.632824	-2.39606
H	1.096707	0.0	0.0
H	-1.559221	0.367524	-1.435777
C	0.321022	1.099197	-2.239312
H	-0.043821	1.194231	-3.264282
H	1.368814	0.792723	-2.244365
H	0.246999	2.065433	-1.736872
C	-0.515203	-1.198009	0.781982
H	-0.138678	-2.138359	0.380539
H	-0.176855	-1.113074	1.818259
H	-1.612971	-1.23132	0.771036
N	-0.411092	1.279231	0.618181
H	0.369492	1.632294	1.15966
H	-1.184911	1.119531	1.253923
Cl	3.524969	0.0	0.0
