17

C	-0.321891	-0.002512	-1.48457
C	0.0	0.0	0.0
Br	-2.266388	-0.141307	-1.848876
H	1.106472	0.0	0.0
H	-0.064229	0.978983	-1.891777
C	0.419182	-1.080969	-2.252307
H	0.069126	-2.076762	-1.974667
H	0.27787	-0.95951	-3.328354
H	1.483805	-0.998353	-2.00943
C	-0.493871	-1.217555	0.75802
H	-0.082349	-1.201471	1.771688
H	-0.157269	-2.144731	0.291323
H	-1.58495	-1.215562	0.818997
N	-0.535379	1.214113	0.633704
H	-0.287018	1.167086	1.617843
H	-0.006394	2.002181	0.268562
Cl	3.525222	0.0	0.0
