17

C	-0.505393	0.100985	-1.438978
C	0.0	0.0	0.0
Br	-0.2015	-1.56598	-2.451134
H	1.101654	0.0	0.0
H	-1.592673	0.215492	-1.424092
C	0.165015	1.237599	-2.189095
H	-0.159261	1.27663	-3.231171
H	1.249758	1.113184	-2.147953
H	-0.106398	2.181285	-1.708592
C	-0.539105	-1.19528	0.761765
H	-1.635148	-1.169549	0.792689
H	-0.157788	-1.173758	1.786992
H	-0.218777	-2.132966	0.31077
N	-0.481391	1.247625	0.651054
H	-0.603098	1.055794	1.639604
H	0.277057	1.920793	0.600102
Cl	3.54768	0.0	0.0
