17

C	-0.32638	-0.001749	-1.481352
C	0.0	0.0	0.0
Br	-2.297891	-0.025907	-1.782217
H	1.099635	0.0	0.0
H	-0.022221	0.967932	-1.877212
C	0.308356	-1.135251	-2.260755
H	1.380804	-1.128377	-2.037274
H	0.162743	-1.003972	-3.33504
H	-0.11029	-2.102557	-1.975364
C	-0.466316	-1.240706	0.755523
H	-1.558889	-1.316121	0.759744
H	-0.116913	-1.17475	1.789341
H	-0.050974	-2.15828	0.331822
N	-0.441657	1.260674	0.595883
H	0.103473	1.419752	1.436195
H	-1.418266	1.183042	0.866176
Cl	3.505347	0.0	0.0
