14
Coordinates from ORCA-job run
  C   -0.58820426874527      0.09666588165007      0.19931042891385
  C   0.89873018549127      0.31432572758402     -0.10403026982560
  F   -0.75082852746111      0.27444340153515      1.53114363404761
  H   1.10692016381352      0.10363777601462     -1.15229695237830
  H   1.20151208636535      1.32428301391370      0.16884450780447
  N   -1.29729888009848      1.24493312003406     -0.52348514574513
  O   -1.31073298806094      1.14410750449536     -1.74784667635452
  O   -1.74958312763550      2.15460969883081      0.15102042094684
  N   -1.23424332992391     -1.08882685691188     -0.20457678575987
  H   -1.33108165616040     -1.11646505734446     -1.21086369425862
  H   -0.71216340104082     -1.89485030916724      0.11541805589951
  N   1.71833863316099     -0.61590923956074      0.72325050307156
  O   2.55640558432268     -0.12189182852792      1.46830206944745
  O   1.49222952597263     -1.81806283254556      0.58680990419076
