14
Coordinates from ORCA-job run
  C   -0.53930665918749     -0.16295135702063      0.08830746498213
  C   0.94154876377927     -0.42281690720938     -0.06212074404957
  F   -0.83007797798782      0.01470260923539      1.41815656098785
  H   1.18682663597658     -1.42381982019981      0.29009352206488
  H   1.24254251683868     -0.29669904395497     -1.09984766534448
  N   -0.95294576129238      1.13054957819665     -0.61850590750495
  O   -0.32250984867533      1.43775187092729     -1.61956589915949
  O   -1.93550125121302      1.69500435535342     -0.15807961522941
  N   -1.29328370003580     -1.17790048590485     -0.52715625092467
  H   -1.09332234322497     -2.08294039708376     -0.12156025547330
  H   -2.28516349687047     -0.98345612671676     -0.44922697162929
  N   1.75173069008561      0.52364204604319      0.76032163304992
  O   2.77141243005491      0.06811179696426      1.26743734376586
  O   1.35805000175223      1.68282188136996      0.83074678446452
