14
Coordinates from ORCA-job run
  C   -0.60307455475911     -0.12419281459438      0.21937080308591
  C   0.86474543923895     -0.45764290895291     -0.00715304654606
  F   -0.78879276943044      0.11543024424375      1.53552462737182
  H   1.08158502081274     -0.47217619047271     -1.07489119128727
  H   1.09416795453549     -1.41654611994159      0.45519044379499
  N   -0.97005646129202      1.13865051488824     -0.55863301657556
  O   -1.41076444952807      2.09003390772665      0.05803965808731
  O   -0.81070838902247      1.03524068165991     -1.77134738873277
  N   -1.53320781223458     -1.10599279092619     -0.21130409133653
  H   -1.50519563560092     -1.22784750455982     -1.21454617249527
  H   -1.38542358753067     -1.98585809867936      0.26533161064848
  N   1.76629041216003      0.55194233023497      0.61972992265526
  O   1.55860447649093      1.72366471977940      0.31717501418295
  O   2.64383035616014      0.13529402959403      1.36851282714673
