14
Coordinates from ORCA-job run
  C   -0.63866775425769     -0.04287097382526      0.13503971673197
  C   0.80896600005314     -0.50673576135691      0.21228815795607
  F   -0.99740278868474      0.44143496903973      1.34376840628484
  H   0.87600934160833     -1.38000972184320      0.85946395635247
  H   1.18197851519779     -0.72721296001067     -0.78751397584903
  N   -0.76532789047012      1.08058060272970     -0.89289136619038
  O   -1.20314520918543      2.15417671777022     -0.52498171498424
  O   -0.43551372048368      0.75066093568913     -2.02831392368096
  N   -1.58031624062139     -1.02347955448716     -0.27275878004117
  H   -1.58445561387896     -1.81373663094340      0.35867950083660
  H   -1.41521786443052     -1.32144425079812     -1.22468787005449
  N   1.69654416213691      0.53756310085670      0.80120960460613
  O   1.64505341893569      1.64777576915728      0.27930123331891
  O   2.41149564408070      0.20429775802192      1.74039705471322
