14
Coordinates from ORCA-job run
  C   -0.52348193622649     -0.22743457644126      0.03892693718122
  C   0.98430348561016     -0.31400894919460     -0.00371618248519
  F   -0.93217259363189     -0.15995898387343      1.34741976815233
  H   1.31507615025044     -1.29790812361064      0.32627997622752
  H   1.34525310443366     -0.10598118076177     -1.00860427203516
  N   -1.02727676098223      1.05076407895488     -0.63575415503700
  O   -0.36282499826025      1.48101920653339     -1.56712474554412
  O   -2.09883223606931      1.47788885533011     -0.22914218963437
  N   -1.10765203938993     -1.28258547111080     -0.68467036256064
  H   -2.11834642681417     -1.20376234203135     -0.67792657232067
  H   -0.83657762585795     -2.18148656830804     -0.30763921968906
  N   1.62055507722157      0.67448002277888      0.91662202290660
  O   2.65868157084904      0.31668208157388      1.46301752063201
  O   1.08229522886736      1.77129195016076      1.02131147420653
