14
Coordinates from ORCA-job run
  C   -0.53428447098712     -0.21762410694802      0.21916225931968
  C   0.95273091865771     -0.45123384133664      0.05762508786515
  F   -0.83165310452390      0.05323903371866      1.50670755940290
  H   1.22432750987257     -0.50118259976364     -0.99641208211576
  H   1.22152896680093     -1.36851166472099      0.57597652307479
  N   -0.96532454649696      1.01969060614644     -0.60191796161296
  O   -1.66074730513568      1.86450031028520     -0.06474280864399
  O   -0.62646947249803      0.97189266801754     -1.78105851271061
  N   -1.26132119941411     -1.36156657537147     -0.19057497518236
  H   -1.15744975564487     -1.52353245358916     -1.18426891500428
  H   -2.24245324593533     -1.25094176318260      0.03956027959538
  N   1.75541830945648      0.64983484280153      0.66540595252885
  O   2.77995255151152      0.32032582490941      1.25221748290879
  O   1.34574484433682      1.79510971903374      0.50132011057443
