14
Coordinates from ORCA-job run
  C   -0.62191249920644     -0.12636703021620      0.16097883788730
  C   0.85835676997853     -0.46576562068289      0.06046272084884
  F   -0.92510393250983      0.07932734010769      1.46117782841060
  H   1.17170057759614     -0.45405000135780     -0.98305757557025
  H   1.03876351384836     -1.43837825627789      0.51597567401635
  N   -0.90832372814278      1.16120009867818     -0.61063027297364
  O   -1.39016733420455      2.10134825158939     -0.00751998791170
  O   -0.64547843140710      1.08933646843265     -1.80754097729310
  N   -1.51368074648825     -1.08793485127992     -0.38131127831742
  H   -1.40844312399557     -1.16426114585452     -1.38397917935643
  H   -1.39909032181153     -1.98882989421407      0.06420843764526
  N   1.70463477973434      0.51919082235647      0.79435429501689
  O   2.49742645341720      0.07690782761665      1.61913028963875
  O   1.54131802319149      1.69927599110227      0.49675118795854
