14
Coordinates from ORCA-job run
  C   -0.69777988406285     -0.24995199244195      0.22240587520403
  C   0.66619588974580     -0.28860245336051      0.88194868645261
  F   -1.62730330582523     -0.37764500350745      1.22182743177710
  H   0.67952542455613      0.36084233280210      1.75186496857679
  H   0.88579755499400     -1.31795010607675      1.16893862873222
  N   -0.96540596448826      1.19857604146903     -0.28808609313994
  O   -0.34195275812205      2.10870150058425      0.24825640940631
  O   -1.82593878651278      1.30990684545931     -1.15295143563389
  N   -0.92015904653566     -1.22983605952782     -0.74033328942318
  H   -1.82430058028909     -1.09982116419948     -1.17800831566367
  H   -0.18758771880331     -1.21118222429987     -1.43744319542764
  N   1.77110440057651      0.16476558885600     -0.01164593883000
  O   1.61123151123617      0.04447556687562     -1.22607770549674
  O   2.77657326353061      0.58872112736751      0.54030397346600
