14
Coordinates from ORCA-job run
  C   -0.56434262278760     -0.08501787181899      0.02574077595476
  C   0.86687490031649     -0.41036535813769      0.38486683435784
  F   -1.08517891919592      0.75423652098012      0.97926497989460
  H   1.38034153206669     -0.84516038149862     -0.46993761352080
  H   0.89633742141960     -1.08993982206658      1.23553836540403
  N   -0.64789334744205      0.66935080900757     -1.30308937159412
  O   0.20575492835600      0.41128125382853     -2.13898353421048
  O   -1.61695411385379      1.40415101436411     -1.43482506222507
  N   -1.31353500667126     -1.25911372667761     -0.16753954105551
  H   -2.26435909617570     -1.03625460079503     -0.43932897476833
  H   -1.32495082800417     -1.83032995611919      0.66738373035345
  N   1.62437656438707      0.80936281210459      0.79289087701468
  O   1.38013231961154      1.84900497084783      0.19044109036580
  O   2.46239626797311      0.65779433598097      1.67557744402919
