16
Coordinates from ORCA-job run
  C   0.68320232068517      0.56616106443179     -0.42490054227913
  C   -0.56706116957709     -0.22231949498130     -0.04692849389540
  H   0.75629713430986      1.42652539765925      0.24925482063667
  H   -0.68911823270432     -1.03191698726038     -0.78917298817762
  H   0.54897186652909      0.95609269811856     -1.44061657402755
  C   1.96778362694823     -0.25475650228933     -0.35715174243029
  H   2.81844192117844      0.31188412359086     -0.74296833610264
  H   1.88317379354910     -1.16993639691124     -0.95170183700128
  H   2.20450473820443     -0.53210532572294      0.67227664463946
  C   -1.80390069162965      0.66202482394737     -0.10070059072232
  H   -1.71617712409839      1.46127650675403      0.63940298903235
  H   -1.92537061387883      1.10779622708022     -1.09077950612594
  H   -2.70980794274986      0.08934157385585      0.12159221597400
  N   -0.42348569013533     -0.73831580745799      1.31731737987052
  H   0.27200537224299     -1.47501267549330      1.33630250428661
  H   -1.29845930887384     -1.15873922532145      1.61077405632259
