16
Coordinates from ORCA-job run
  C   0.69744256802239     -0.35287579219871     -0.86252816773425
  C   -0.64550657594766     -0.53441175041722     -0.15089058711205
  H   1.11287103031629     -1.35018176953365     -1.03544272656778
  H   -1.23878206438647     -1.22309235291302     -0.76478833970546
  H   0.51639271351142      0.09746023933851     -1.84555003209591
  C   1.71591534388096      0.48370573516235     -0.09252932980225
  H   1.96216247873349      0.01883428265340      0.86482102997825
  H   2.64759758836321      0.56650055741236     -0.65728620462986
  H   1.36062905847051      1.49963768818494      0.09582761526300
  C   -1.42722689993089      0.77482634080086     -0.02459529063384
  H   -0.90561922669754      1.48203975690431      0.62649865872884
  H   -1.57354074044803      1.25446252490148     -0.99749269076511
  H   -2.41289624083024      0.59030038158299      0.41213526915886
  N   -0.42873832577018     -1.21689179364759      1.13012658742074
  H   -1.31908146685572     -1.53512190225624      1.49604460203308
  H   -0.06161924043154     -0.55519214597475      1.80564960646373
