16
Coordinates from ORCA-job run
  C   0.63472026192530     -0.40527547539494     -0.80410631426488
  C   -0.74505094450168     -0.48491735930281     -0.12946972601115
  H   0.50173128631147     -0.04902989583962     -1.83317739686621
  H   -1.37371529111657     -1.12140729987393     -0.76486442505884
  H   1.03242870652664     -1.42500354945239     -0.88305411789763
  C   1.65070571304903      0.47889555033812     -0.08650434080542
  H   2.62612130459318      0.42201517296551     -0.57517172061790
  H   1.34692091389973      1.52768200965017     -0.08548559528010
  H   1.79147607896301      0.16580939525352      0.95114725141788
  C   -1.42020327521995      0.87599095986780     -0.02328261536265
  H   -2.43923306360562      0.75497429406626      0.34755664142177
  H   -1.45372848914561      1.37864072624842     -0.99334891657057
  H   -0.88715405622358      1.52736063977188      0.67547448492317
  N   -0.74837827606375     -1.10667912606109      1.19686898773510
  H   -0.23051305830246     -0.52901257119513      1.84927527629113
  H   -0.28512781108914     -2.00804347104177      1.15914252694630
