11

C	-0.534017	-0.057893	-1.420422
C	0.0	0.0	0.0
Br	-0.284819	1.653152	-2.336757
H	1.092172	0.0	0.0
H	0.005526	-0.810971	-1.996724
H	-1.607525	-0.266628	-1.441806
H	-0.345876	0.913605	0.499195
N	-0.44685	-1.234163	0.660178
H	-1.274858	-1.052982	1.234843
H	0.303857	-1.561082	1.274786
Br	3.735385	0.0	0.0
