11

C	-0.512023	0.050058	-1.434039
C	0.0	0.0	0.0
Br	-0.191667	-1.61062	-2.419691
H	1.092874	0.0	0.0
H	-0.010752	0.838981	-1.995389
H	-1.593631	0.196392	-1.475619
H	-0.313246	0.950335	0.455424
N	-0.484661	-1.098136	0.822668
H	0.039936	-1.932213	0.589032
H	-1.462566	-1.285903	0.626434
Br	3.755903	0.0	0.0
