14

C	0.0	0.0	0.0
C	-0.438117	-0.278939	-1.44982
Br	2.02377	0.0	0.0
H	-1.540674	-0.23557	-1.351315
H	-0.070027	0.511184	-2.110432
N	-0.48921	1.303028	0.327588
H	-0.30722	1.42638	1.321129
H	-1.515898	1.14628	0.233111
N	-0.439091	-0.98328	0.950033
H	-1.46776	-0.892144	0.851773
H	-0.151854	-1.914771	0.663536
C	-0.029815	-1.586803	-1.938975
N	0.278015	-2.642868	-2.352419
F	-2.804835	0.0	0.0
