14

C	0.0	0.0	0.0
C	-0.493784	-0.118059	-1.446943
Br	2.038302	0.0	0.0
H	-0.213254	-1.089304	-1.863986
H	-1.596209	-0.061848	-1.251421
N	-0.359613	1.281082	0.506128
H	0.189276	2.021361	0.091958
H	-0.256295	1.27604	1.51085
N	-0.579429	-0.970148	0.854382
H	-1.615429	-0.716987	0.702133
H	-0.415728	-1.894282	0.468301
C	-0.053187	0.948552	-2.328816
N	0.284631	1.822608	-3.037785
F	-2.851066	0.0	0.0
