14

C	0.0	0.0	0.0
C	-0.513975	-0.203596	-1.428922
Br	2.030307	0.0	0.0
H	-1.615872	-0.119373	-1.212538
H	-0.178334	0.592272	-2.100015
N	-0.365053	1.319892	0.402086
H	-0.278667	1.378816	1.407058
H	0.209508	2.019208	-0.045939
N	-0.559552	-0.898112	0.945095
H	-1.592315	-0.673407	0.78167
H	-0.384379	-1.851492	0.642641
C	-0.173181	-1.501924	-1.982559
N	0.077414	-2.559826	-2.428532
F	-2.846336	0.0	0.0
