15

C	-0.486264	-0.039828	-1.430748
C	0.0	0.0	0.0
Cl	-2.383177	0.222079	-1.37124
H	1.093674	0.0	0.0
H	-0.363004	0.910152	0.479694
N	-0.07083	1.179674	-2.232975
O	0.133593	2.214083	-1.613543
O	-0.01266	1.03854	-3.449558
N	-0.110479	-1.180754	-2.082178
H	-0.471936	-1.295681	-3.013198
H	-0.191934	-1.978713	-1.466503
N	-0.422081	-1.246199	0.642346
H	-1.313997	-1.12542	1.103506
H	0.273178	-1.495361	1.333755
Br	3.588561	0.0	0.0
