15

C	-0.497003	-0.000176	-1.426406
C	0.0	0.0	0.0
Cl	-2.399141	0.280414	-1.347691
H	1.091649	0.0	0.0
H	-0.356676	0.896303	0.508954
N	-0.076025	1.235778	-2.196904
O	0.167178	2.245982	-1.548549
O	-0.050394	1.134298	-3.419165
N	-0.140887	-1.12781	-2.108652
H	-0.504179	-1.208896	-3.043904
H	-0.22431	-1.942941	-1.516346
N	-0.420901	-1.262039	0.612198
H	-1.28596	-1.143605	1.125968
H	0.307074	-1.556942	1.25245
Br	3.582029	0.0	0.0
