15

C	-0.595792	-0.019721	-1.394653
C	0.0	0.0	0.0
Cl	0.227957	1.259977	-2.398492
H	1.091844	0.0	0.0
H	-0.36329	-0.893398	0.511603
N	-0.313702	-1.327245	-2.122287
O	0.361658	-2.171962	-1.547507
O	-0.838142	-1.447927	-3.225528
N	-1.99561	0.108596	-1.346693
H	-2.383469	0.300655	-2.260289
H	-2.198874	0.84716	-0.680547
N	-0.533998	1.198765	0.678174
H	-0.500594	1.027187	1.675279
H	0.12253	1.953043	0.504108
Br	3.647464	0.0	0.0
