15

C	-0.587226	-0.064889	-1.397576
C	0.0	0.0	0.0
Cl	0.247505	1.175377	-2.43909
H	1.091947	0.0	0.0
H	-0.366263	-0.874681	0.540002
N	-0.310971	-1.399603	-2.077218
O	0.306025	-2.248408	-1.44716
O	-0.793128	-1.538772	-3.197349
N	-1.987867	0.070184	-1.364433
H	-2.365443	0.237062	-2.287278
H	-2.192285	0.830559	-0.723509
N	-0.53409	1.22223	0.634123
H	-0.512137	1.083083	1.636755
H	0.127262	1.967794	0.442685
Br	3.633406	0.0	0.0
