16
Coordinates from ORCA-job run
  C   0.94743965685441      0.15793133843189     -0.06950785801146
  C   -0.53292114229448     -0.01039552905563      0.25107186358129
  F   1.52374928902718      0.96370593288816      0.92096657721863
  H   -0.59911506234109     -0.64479970337960      1.14339151462348
  H   1.04734309570014      0.71267153965834     -1.01236825306056
  C   1.71126248732048     -1.14260660924616     -0.12923464185466
  H   2.75929309231929     -0.95598774539614     -0.37086658228679
  H   1.66471319877970     -1.63860746184366      0.84331244662409
  H   1.27292320196718     -1.79697912298343     -0.88133522608648
  N   -1.13767152208032     -0.75575346842279     -0.85617634964284
  H   -1.29358258080831     -0.12409080566331     -1.63535263141645
  H   -2.04657579115472     -1.10435967696956     -0.57659108327246
  C   -1.20019835746917      1.33055130355460      0.54402263312656
  H   -1.11626627254909      1.99166687773481     -0.32527086771477
  H   -2.26254127080033      1.18569246357169      0.75800780703934
  H   -0.73885202247086      1.83136066712078      1.39593065113308
