16
Coordinates from ORCA-job run
  C   0.75017318844715     -0.38563680566837      0.68559048983104
  C   -0.69144922837411      0.02678849238285      0.42805252633790
  F   0.70941210559425     -1.68394489622221      1.22745542464940
  H   -1.19244733846562     -0.01671224980489      1.40957363343287
  H   1.17165882672345      0.25413510629025      1.46902272438011
  C   1.64456574483220     -0.41361302481226     -0.53125011846267
  H   2.60474032593807     -0.85882187460852     -0.26436970285382
  H   1.18069956905482     -0.99978493056526     -1.32327494300695
  H   1.82852312042660      0.59710211391519     -0.90078375960931
  N   -1.27773841256069     -0.89854465569059     -0.53876009598411
  H   -1.24821631379456     -1.83570836942566     -0.15395076666785
  H   -2.25167838980061     -0.66215752233348     -0.68778342602630
  C   -0.78293921505150      1.44921379570972     -0.10260485059619
  H   -1.82685583003197      1.77037310222038     -0.15334780283647
  H   -0.36594939138771      1.50544223166820     -1.10929159054635
  H   -0.25249876154974      2.15186948694467      0.54572225795871
