15
Coordinates from ORCA-job run
  C   1.01992582500336     -0.28117033017262      0.14704825801312
  C   -0.38408486300535     -0.02196947032708     -0.40110508429395
  Br  0.91397264897983     -0.26711578336313      2.17535310067612
  H   -0.25255643550567      0.19588994514390     -1.46589488143008
  H   1.27560890941784     -1.32188104862098     -0.05029962962481
  N   1.99929431933508      0.56656907219064     -0.39738914212697
  H   2.92504873440794      0.34803830111455     -0.05551302331313
  H   1.78251941707505      1.54233025505817     -0.24238972735460
  N   -0.92778597734503      1.26405294138296      0.16964153017529
  O   -1.99221659931293      1.23521802348044      0.77468864548238
  O   -0.24914373373192      2.27271154738592     -0.02601816060211
  C   -1.34913307660389     -1.16652956278172     -0.19004862881743
  H   -2.32098343222063     -0.93425221837916     -0.62438060116940
  H   -0.95381535765246     -2.05716557107767     -0.68422441689696
  H   -1.48665037884122     -1.37572610103420      0.86953176128257
