15
Coordinates from ORCA-job run
  C   1.07829838549414     -0.02053531770543     -0.37284948475064
  C   -0.43444630273321     -0.09801955854634     -0.55760824970524
  Br  1.82082818981987     -1.84209952600512     -0.85227587150147
  H   -0.64003696805327     -0.44191440289205     -1.57301559812499
  H   1.50406960710359      0.61819857486638     -1.14314918588055
  N   1.43050348575370      0.45228689835297      0.90255047693034
  H   2.41187712144676      0.68271925606057      0.97218448715582
  H   1.17781229767802     -0.18209132656889      1.64800668750658
  N   -0.90545443919240      1.34302683432558     -0.54998095781058
  O   -0.46638314070943      2.04851297636142     -1.45546183435662
  O   -1.66870083859675      1.71091089340616      0.33585423070361
  C   -1.18107408326116     -0.91392894995124      0.47252803183125
  H   -0.81520561791514     -1.94104486564985      0.45670582048789
  H   -1.06489933915103     -0.49335284389578      1.47069654964186
  H   -2.24718835768368     -0.92066864215839      0.24581489787273
