15
Coordinates from ORCA-job run
  C   0.95754329057087      0.20154593333000      0.43793641301761
  C   -0.37614208528934      0.38775270923802     -0.27209010310157
  Br  1.73916633396663      1.94757651830903      0.80686706296165
  H   -0.24118494591724      1.03511020522677     -1.13840230120190
  H   0.78688509354580     -0.24338869705002      1.42325092278940
  N   1.85246879629126     -0.53951107927745     -0.43410196857503
  H   2.81412763365309     -0.36598638563913     -0.17002879031974
  H   1.67949123630700     -1.53203441433262     -0.31310531733796
  N   -1.32218731039496      1.10788212647508      0.63683630325939
  O   -1.86679198533684      2.12000187264118      0.20474064362267
  O   -1.50487741249166      0.61031800018068      1.74712587644187
  C   -1.00946126084192     -0.94016644721507     -0.65525946350538
  H   -1.10080490391090     -1.59135040373285      0.21663605871045
  H   -2.00607558554960     -0.77356649706254     -1.06918949387374
  H   -0.40215689460217     -1.42418344109108     -1.42021584288773
