15
Coordinates from ORCA-job run
  C   1.15093846281538     -0.08431329054949     -0.44249303577159
  C   -0.37976974817006     -0.06027375159170     -0.57171399313826
  Br  1.72863917521719     -1.81997436828232     -1.15720811111702
  H   -0.67244972395903     -0.37911240237075     -1.57390845240361
  H   1.57504227130744      0.65648389278652     -1.12110486414223
  N   1.73506910523978      0.09925966604433      0.85016892265619
  H   1.55553185142786      1.04374075361168      1.16661310118718
  H   1.38514637450844     -0.56886773755035      1.52401522488859
  N   -0.87025682508212      1.36514939979883     -0.48464582427903
  O   -2.01038621426025      1.56922439716639     -0.88785244128039
  O   -0.12452898325442      2.21658142757256      0.00141259838949
  C   -1.12728153642528     -0.86035799829558      0.48046425444836
  H   -0.77970631884868     -1.89417347528796      0.47563447802461
  H   -0.97014865191322     -0.43496260017481      1.47356386983256
  H   -2.19583923860304     -0.84940391287737      0.26605427270514
