15
Coordinates from ORCA-job run
  C   1.11711086713906     -0.00273835512732     -0.26838713931276
  C   -0.37918080306337     -0.06746741926384     -0.57698030177751
  Br  1.87583853949024     -1.76002326934251     -0.98719903874871
  H   -0.53061591499506     -0.53198129662646     -1.54900678402062
  H   1.60508260285773      0.73564451447255     -0.90356064518497
  N   1.42759697113262      0.23153016776647      1.07595217907118
  H   2.40816545355242      0.42945916677731      1.21695310074161
  H   1.13817242493704     -0.51806687774732      1.68890074136738
  N   -0.91849158121616      1.32860643463242     -0.76511036848304
  O   -1.67197839418634      1.48868383879347     -1.72464169882751
  O   -0.60629330627339      2.18853757945285      0.05233443952973
  C   -1.20880748680654     -0.75233183032266      0.49231244975403
  H   -0.84800545348309     -1.77148881689347      0.64577857333650
  H   -1.15534147125842     -0.19535744110217      1.42867164799426
  H   -2.25125244782674     -0.80500639546932      0.17398284456043
