15
Coordinates from ORCA-job run
  C   1.12350946340194     -0.13159012482638     -0.27679891543697
  C   -0.37188648956389     -0.07359843828508     -0.59427533300130
  Br  1.78752467714869     -1.86155221062340     -0.92019342711084
  H   -0.53333600284607     -0.39183915867795     -1.62420378119100
  H   1.64950276439679      0.59348176870174     -0.91004338705863
  N   1.39435484973355     -0.03905991965257      1.13236613114786
  H   1.06984127089046      0.86672924892275      1.45390522293978
  H   2.39104225958499     -0.10602477611940      1.29881251416299
  N   -0.82715239874394      1.36141008457711     -0.58204490024040
  O   -0.38042946928626      2.09772319299107      0.29935324849355
  O   -1.64880560273598      1.69069972081042     -1.43155007494898
  C   -1.25394494857335     -0.85282168498898      0.36537926203493
  H   -0.94468901116546     -1.89806870633097      0.37146630043647
  H   -2.29421528222536     -0.79185498092323      0.03983707933012
  H   -1.16131608001612     -0.46363401557513      1.37799006044240
