15
Coordinates from ORCA-job run
  C   1.00034038390266     -0.34088893470164      0.15568661107774
  C   -0.36270246102721      0.04815722499177     -0.41830038601224
  Br  0.78783322208561     -0.59566652618327      2.15967671312136
  H   -0.16735130946725      0.40204576826134     -1.43573772031083
  H   1.22963703218494     -1.35530390772845     -0.16957238216091
  N   2.03620292895591      0.53093821799654     -0.22040132212573
  H   2.93401862900687      0.23083102215316      0.13379994604184
  H   1.84405051271144      1.48525910420305      0.05432110521414
  N   -0.89066254151660      1.26747747967248      0.29604437503259
  O   -1.98632148064508      1.20215174530920      0.83927749141626
  O   -0.16776451473263      2.26398890189723      0.27265001498128
  C   -1.37699176802856     -1.07299335803205     -0.41157826378038
  H   -1.57657567477389     -1.41748900228792      0.60178060344923
  H   -2.31631589908545     -0.74409366759475     -0.85487440843635
  H   -0.98739705957076     -1.90441406795670     -1.00377237750801
