15
Coordinates from ORCA-job run
  C   1.06159793078831     -0.31553148597158      0.16221691169379
  C   -0.37019510303302      0.00636511053747     -0.31632920198373
  Br  1.03228854453531     -0.56870146555164      2.11801461231571
  H   -0.27143477348600      0.30831979601664     -1.36430710379424
  H   1.30796310471552     -1.30235643851651     -0.23501204055062
  N   2.10121471056455      0.59282893507582     -0.18885017576719
  H   2.42634520036315      0.42628830973660     -1.13183966879011
  H   1.80245736429245      1.55349437001080     -0.08583349408511
  N   -0.86728235138510      1.24775029721206      0.37173809771586
  O   -1.81820619456141      1.15481529326066      1.13934995122274
  O   -0.25650455931922      2.28831626177908      0.11904900096920
  C   -1.35384814564234     -1.13225869303620     -0.16813951473428
  H   -1.47463932175648     -1.41468057038793      0.87563742752929
  H   -2.32997650968739     -0.85084576377615     -0.56442030179461
  H   -0.98777989638831     -1.99380395638910     -0.73227449994671
