15
Coordinates from ORCA-job run
  C   0.95637664465702      0.11583070092741      0.43784515214713
  C   -0.37003023359100      0.30982722736787     -0.28088606752174
  Br  1.76663938892939      1.93385604124598      0.73743580205469
  H   -0.22259415043143      0.85681593715987     -1.21424478678250
  H   0.77993660779262     -0.25233285781728      1.44725554476096
  N   1.79167454642467     -0.77000013558385     -0.28060941537570
  H   2.06848576131556     -0.38229388507635     -1.17446692021275
  H   2.62433343535232     -1.00307479433520      0.24370783385815
  N   -1.25688852149264      1.18857805534203      0.54755335827056
  O   -1.41787369892258      0.85773061191581      1.71990704532326
  O   -1.79196762782218      2.13995728844380     -0.01367641249925
  C   -1.09834210380186     -1.00694337564812     -0.50242852370283
  H   -1.23519433308445     -1.52449436781863      0.44842718681697
  H   -0.51685208330809     -1.64347760437290     -1.16669908291296
  H   -2.07770363201734     -0.81897884175044     -0.94812071422400
