15
Coordinates from ORCA-job run
  C   0.98627559966068      0.19910099416743      0.32751208945201
  C   -0.40544633581933      0.25878183726506     -0.28321101348608
  Br  1.74862178532477      2.06198826321058      0.30855698660971
  H   -0.36290422003597      0.67818587317784     -1.29038712820885
  H   0.91564471174801     -0.03434218533832      1.38867340898136
  N   1.78805733171519     -0.75241020734205     -0.34358648500980
  H   1.96788126418728     -0.48125179205748     -1.30276112874290
  H   2.67294995583867     -0.89015079000429      0.12598207369607
  N   -1.24841766674595      1.21754884670810      0.50089401031483
  O   -1.29124745756826      1.04454765054475      1.71658106436768
  O   -1.86850239009301      2.06928317438642     -0.12883154674633
  C   -1.09880841151703     -1.09474748242336     -0.25997979656320
  H   -1.13329719078971     -1.48091026915030      0.76003462166826
  H   -0.55242831427069     -1.80020534586277     -0.88312360998032
  H   -2.11937866163466     -0.99541856728162     -0.63635354635244
