15
Coordinates from ORCA-job run
  C   1.02996435375687      0.16428793422728      0.46498219130818
  C   -0.30484131024075      0.37837459362710     -0.25293634882844
  Br  1.87435126194447      1.91972557831423      0.71133264268046
  H   -0.15012478189989      0.93109185023409     -1.18173052817083
  H   0.83541909613758     -0.20840191503379      1.47131893379205
  N   1.94921390158169     -0.70873320179922     -0.19633253927731
  H   1.70162944850776     -1.68028513066512     -0.06744243485856
  H   2.05085120011127     -0.49356025190637     -1.17959848518325
  N   -1.18810761957828      1.25238714003422      0.58334953501767
  O   -1.67637906278767      2.24500854350102      0.05148789023151
  O   -1.38180034489056      0.88349218670787      1.74034237550685
  C   -1.04423414186343     -0.92941973720049     -0.48903147504016
  H   -2.03178772659421     -0.73114544730671     -0.91079440939710
  H   -0.49486130409431     -1.55160189270640     -1.19590899009768
  H   -1.16929297009054     -1.47222025002770      0.44996164231661
