15
Coordinates from ORCA-job run
  C   1.05959872377076     -0.31722168648931      0.17125991671619
  C   -0.36750271526062      0.00721225129156     -0.31955600520046
  Br  1.01352743162023     -0.56896264195702      2.12698070834724
  H   -0.25930097540307      0.31031263959391     -1.36626526075771
  H   1.30738291691480     -1.30478788601602     -0.22326183534153
  N   2.10395025342801      0.58881439517757     -0.17134956524516
  H   2.43589549420796      0.42252300640196     -1.11205265345447
  H   1.80702737240247      1.55024696281321     -0.07008011740520
  N   -0.86858749694865      1.24872889834250      0.36523818402447
  O   -1.82644089168736      1.15663580852530      1.12430647770431
  O   -0.25376411263406      2.28848273623144      0.11897702943333
  C   -1.35410513177262     -1.13000839183008     -0.18084071619293
  H   -2.32687521554229     -0.84545895666745     -0.58316156015455
  H   -1.48287103713769     -1.41463594082711      0.86141974218010
  H   -0.98593461595788     -1.99088119459046     -0.74461434465366
