19

C	-0.418893	0.106903	-1.476581
C	0.0	0.0	0.0
Cl	-2.173713	0.437463	-1.615064
H	1.094583	0.0	0.0
C	0.362864	1.176985	-2.198999
H	1.428547	0.984499	-2.065369
H	0.10777	1.195157	-3.260351
H	0.109714	2.129494	-1.736919
N	-0.157583	-1.244879	-2.136641
O	-1.042966	-2.094652	-2.122658
O	0.976278	-1.40674	-2.57801
C	-0.503564	-1.249844	0.705981
H	-1.595161	-1.32272	0.667195
H	-0.186033	-1.196923	1.750389
H	-0.077852	-2.160079	0.280352
N	-0.386617	1.2525	0.650372
H	0.334821	1.489428	1.319871
H	-1.264808	1.140095	1.142812
Br	3.557301	0.0	0.0
