19

C	-0.374449	0.071145	-1.500111
C	0.0	0.0	0.0
Cl	-2.128683	0.406214	-1.717241
H	1.095127	0.0	0.0
C	0.431684	1.115665	-2.237694
H	0.14725	2.100591	-1.868113
H	1.491699	0.946095	-2.039653
H	0.234046	1.073119	-3.310284
N	-0.113033	-1.294373	-2.128018
O	1.020829	-1.464897	-2.561269
O	-0.999106	-2.14228	-2.100599
C	-0.536838	-1.227317	0.714022
H	-1.627378	-1.287677	0.647717
H	-0.250711	-1.138545	1.762424
H	-0.110058	-2.149709	0.31801
N	-0.373679	1.213082	0.719236
H	-1.282482	1.554741	0.43724
H	0.321967	1.930096	0.560176
Br	3.567034	0.0	0.0
