19

C	-0.382793	-0.042512	-1.481745
C	0.0	0.0	0.0
Cl	0.276073	1.40056	-2.291133
H	1.094022	0.0	0.0
C	0.153431	-1.264773	-2.196889
H	-0.318764	-2.167324	-1.816581
H	1.23107	-1.302476	-2.020627
H	-0.037611	-1.187498	-3.269199
N	-1.906884	0.002752	-1.604481
O	-2.474809	1.043236	-1.900689
O	-2.473199	-1.061287	-1.341853
C	-0.454626	-1.211905	0.801043
H	-0.120485	-2.148714	0.357046
H	-1.539076	-1.231513	0.920525
H	0.012838	-1.145422	1.787868
N	-0.572529	1.203554	0.615994
H	-0.368725	1.143341	1.60861
H	-0.049057	2.006484	0.279458
Br	3.584188	0.0	0.0
