19

C	-0.373529	-0.009651	-1.485803
C	0.0	0.0	0.0
Cl	0.256285	1.472378	-2.247402
H	1.093992	0.0	0.0
C	0.204098	-1.196033	-2.22853
H	-0.243242	-2.123751	-1.876756
H	0.01997	-1.095229	-3.299733
H	1.280391	-1.207001	-2.041762
N	-1.896677	-0.001541	-1.623289
O	-2.489069	1.030449	-1.899643
O	-2.435088	-1.087168	-1.397698
C	-0.455366	-1.233182	0.768752
H	0.020766	-1.198227	1.752642
H	-0.134696	-2.160053	0.29557
H	-1.539694	-1.247035	0.895874
N	-0.578258	1.185336	0.64135
H	-0.021163	1.991786	0.377214
H	-0.441784	1.075557	1.639477
Br	3.584852	0.0	0.0
