19

C	-0.534906	0.008962	-1.44053
C	0.0	0.0	0.0
Cl	0.319379	-1.215721	-2.422765
H	1.095104	0.0	0.0
C	-2.030453	-0.194783	-1.551542
H	-2.284292	-1.193245	-1.193034
H	-2.347936	-0.097513	-2.590352
H	-2.532694	0.555997	-0.936337
N	-0.17924	1.350094	-2.100456
O	0.779769	1.966382	-1.655557
O	-0.855314	1.696236	-3.067141
C	-0.446007	-1.251091	0.742336
H	0.109801	-1.306219	1.685437
H	-0.216554	-2.156138	0.177345
H	-1.51981	-1.224641	0.968038
N	-0.542042	1.193857	0.669437
H	0.173252	1.909522	0.638432
H	-0.698896	0.975781	1.648418
Br	3.668669	0.0	0.0
