16

C	0.0	0.0	0.0
C	-0.38799	-0.116855	-1.470725
F	1.443113	0.0	0.0
H	0.013055	-1.071555	-1.838185
H	-1.479692	-0.169563	-1.454246
N	-0.482731	1.239976	0.531005
H	-0.317331	1.182798	1.532817
H	-1.506445	1.107206	0.406672
N	-0.458753	-1.100208	0.807185
H	-0.208849	-1.969172	0.344392
H	-1.483896	-0.974047	0.713599
C	0.121513	1.032295	-2.332499
H	-0.284901	1.976765	-1.967721
H	-0.177428	0.901839	-3.379288
H	1.211843	1.09679	-2.289466
F	-2.849651	0.0	0.0
