16

C	0.0	0.0	0.0
C	-0.174832	0.031354	-1.548619
F	1.4134	0.0	0.0
H	0.369482	0.934564	-1.858263
H	0.42418	-0.815426	-1.900476
N	-0.484459	1.144225	0.718165
H	-1.509036	1.004471	0.637985
H	-0.240451	1.985067	0.202786
N	-0.521547	-1.209824	0.549087
H	-1.542004	-1.062606	0.398184
H	-0.381834	-1.135974	1.554811
C	-1.529584	0.004001	-2.240206
H	-2.058194	-0.926002	-2.043529
H	-2.193201	0.784808	-1.881707
H	-1.363381	0.103387	-3.322821
F	-2.896427	0.0	0.0
