16

C	0.0	0.0	0.0
C	-0.406769	0.015073	-1.47485
F	1.40666	0.0	0.0
H	-1.498484	-0.033286	-1.455377
H	-0.003589	-0.899018	-1.923117
N	-0.454655	1.135166	0.767769
H	-0.184641	1.992277	0.295352
H	-1.480124	1.023953	0.67712
N	-0.487748	-1.214771	0.584576
H	-1.510075	-1.095963	0.449813
H	-0.325372	-1.11888	1.583975
C	0.093886	1.235817	-2.237494
H	-0.130648	1.145257	-3.304949
H	-0.391833	2.15088	-1.886729
H	1.175405	1.355546	-2.1278
F	-2.861077	0.0	0.0
