16

C	0.0	0.0	0.0
C	-0.204614	0.225674	-1.525293
F	1.386238	0.0	0.0
H	0.320962	1.168774	-1.710331
H	0.40608	-0.566969	-1.971308
N	-0.498571	1.122592	0.752388
H	-0.312259	0.930845	1.735648
H	-1.521254	0.984716	0.616198
N	-0.495026	-1.296924	0.388394
H	-1.517965	-1.129568	0.304694
H	-0.302141	-1.405803	1.382635
C	-1.554036	0.255906	-2.226234
H	-2.095188	-0.677923	-2.101442
H	-2.208918	1.024328	-1.829498
H	-1.368223	0.426397	-3.296406
F	-2.879981	0.0	0.0
