16

C	0.0	0.0	0.0
C	-0.186309	0.045325	-1.547111
F	1.399289	0.0	0.0
H	0.479836	0.859542	-1.86039
H	0.281488	-0.879617	-1.904631
N	-0.492841	1.136771	0.726615
H	-0.26668	1.983236	0.210432
H	-1.516928	0.984843	0.649977
N	-0.518811	-1.215163	0.543303
H	-1.535463	-1.086345	0.371698
H	-0.408879	-1.132317	1.549722
C	-1.53437	0.243349	-2.223924
H	-2.048353	1.125483	-1.85017
H	-2.214946	-0.57813	-2.033111
H	-1.357759	0.350485	-3.303154
F	-2.897813	0.0	0.0
