12
Coordinates from ORCA-job run
  C   -0.02271540982367     -0.11687882714804     -0.38287394437242
  C   1.32471478067474      0.17372458232355      0.19064377939471
  F   0.03112533422597     -0.52106373173173     -1.65578981293135
  H   1.91894549501136     -0.74057411420530      0.14131470512951
  H   1.80593608670795      0.95290410545300     -0.39909890263330
  H   1.23188221270882      0.50475626193045      1.22223315464744
  N   -0.97571036163308      1.07097721101274     -0.34130168955634
  O   -0.54376146823746      2.12989762856007      0.09597073512400
  O   -2.09469474397712      0.84379437291168     -0.78346698315125
  N   -0.73471330516562     -1.18657185952087      0.43409872599838
  O   -1.02357793669594     -0.83891836474527      1.57240628914636
  O   -0.91643068379595     -2.27104726484026     -0.09413605679576
