12
Coordinates from ORCA-job run
  C   -0.03916092379762     -0.14901402561916     -0.37886828039098
  C   1.33906618259324      0.17353613278423      0.09996702968711
  F   -0.05930194343282     -0.62658223412929     -1.61995706905702
  H   1.94193249008522     -0.73516043230661      0.06482793694320
  H   1.77498870489807      0.91835441778215     -0.56755059425641
  H   1.30619114171568      0.55825571711931      1.11422903353991
  N   -0.96397591895999      1.07091726954685     -0.33085279442581
  O   -0.84165921203299      1.78872958574048      0.65383462679908
  O   -1.74546074975383      1.19902204004223     -1.26223423072866
  N   -0.73716894172179     -1.16763360277884      0.52726243033330
  O   -1.40875701095660     -2.02352164864149     -0.03026495317587
  O   -0.56769381863658     -1.00790321953986      1.72960686473213
