12
Coordinates from ORCA-job run
  C   -0.00598216527106     -0.18134395425291     -0.35758474519768
  C   1.31056324521103      0.25889867480022      0.19175750342722
  F   0.09819053245773     -0.74862336097633     -1.56328206244908
  H   1.17961648333483      0.70352193535167      1.17533191222672
  H   1.73862406760049      0.98954416312659     -0.49703208638956
  H   1.97374455398217     -0.60198218102873      0.26699687727162
  N   -0.96644206764251      0.99615263547908     -0.45889906339411
  O   -1.28321646160682      1.37072316791013     -1.57580189515994
  O   -1.29705976683190      1.46810329418949      0.62186352460860
  N   -0.73954163700700     -1.17682349390265      0.53218094937794
  O   -0.17447772507634     -1.54928780636947      1.55255766804825
  O   -1.83401905915061     -1.52888307432710      0.11091141763000
