12
Coordinates from ORCA-job run
  C   -0.01359861589271     -0.10647100271551     -0.38619273626519
  C   1.31972480646092      0.16872241947118      0.22650758150880
  F   0.07044179332085     -0.47597382254687     -1.66789742295308
  H   1.81516543509117      0.96087661925002     -0.33350692228678
  H   1.91459191542880     -0.74472805438084      0.16948396661795
  H   1.20283351187680      0.47528059354275      1.26314315720377
  N   -0.96846776726746      1.07942031465362     -0.33465710855832
  O   -2.07681140046505      0.86404250299117     -0.80845547882241
  O   -0.54743934128422      2.12651289124846      0.14023846671250
  N   -0.74378962680403     -1.19823341606073      0.38458965903274
  O   -0.91414957639202     -2.26742570272867     -0.17748411744725
  O   -1.05850113407305     -0.88202334272459      1.52523095525726
