12
Coordinates from ORCA-job run
  C   -0.00462888057572     -0.14686629010906     -0.38139516464837
  C   1.32130602069933      0.21340983129794      0.20590131508987
  F   0.08749466171221     -0.61466471541831     -1.62301362654952
  H   1.95259823052370     -0.67640907459826      0.21335829075363
  H   1.78488237049760      0.97602812712888     -0.42169281582301
  H   1.19752518751415      0.58922020725893      1.21647847196875
  N   -0.96739208395529      1.04407948171416     -0.39914376003844
  O   -0.94872032305152      1.75323505766783      0.59918920174479
  O   -1.67281904978406      1.16027021344077     -1.39080921989856
  N   -0.74030770260787     -1.19339928190356      0.46070097208837
  O   -1.34622272464157     -2.05958488651965     -0.15340187479089
  O   -0.66471570633093     -1.04331866995968      1.67382821010338
