17

C	-0.401917	-0.057754	-1.47545
C	0.0	0.0	0.0
Cl	-0.050277	1.530215	-2.271566
H	1.088803	0.0	0.0
H	-0.385604	-0.910909	0.466175
C	0.54178	-1.085189	-2.091273
H	1.557228	-0.841294	-1.757675
H	0.282355	-2.080493	-1.711638
H	0.459525	-1.091502	-3.181179
C	-1.872542	-0.352495	-1.71498
H	-2.084904	-0.404538	-2.786231
H	-2.126709	-1.313043	-1.255541
H	-2.505063	0.415736	-1.267056
N	-0.640379	1.106822	0.731879
O	-1.743175	0.881563	1.256365
O	-0.070173	2.194428	0.782881
F	2.63787	0.0	0.0
