17

C	-0.201042	0.040179	-1.502184
C	0.0	0.0	0.0
Cl	-1.971985	0.079086	-1.959396
H	1.091593	0.0	0.0
H	-0.419393	-0.904521	0.435609
C	0.521371	1.205665	-2.157076
H	1.534229	1.183408	-1.741279
H	0.053915	2.158086	-1.921867
H	0.545782	1.06651	-3.241559
C	0.405678	-1.266391	-2.000124
H	1.436534	-1.269584	-1.629758
H	0.385266	-1.312824	-3.091388
H	-0.130584	-2.129977	-1.599466
N	-0.550255	1.115321	0.776305
O	-0.376628	2.270631	0.384378
O	-1.136783	0.833827	1.827729
F	2.621998	0.0	0.0
