18

C	-0.469118	-0.003106	-1.457595
C	0.0	0.0	0.0
Br	0.418215	1.527152	-2.355076
H	1.090895	0.0	0.0
C	-0.073569	-1.274328	-2.207978
H	-0.309044	-1.178526	-3.269507
H	0.996236	-1.452153	-2.08737
H	-0.629217	-2.124462	-1.804074
C	-1.90408	0.238702	-1.583881
N	-3.060653	0.424801	-1.698021
N	-0.387946	-1.336219	0.566175
O	0.513331	-2.148322	0.769305
O	-1.581368	-1.534978	0.813029
C	-0.584906	1.095369	0.860546
H	-0.185528	1.010456	1.875698
H	-0.288851	2.070096	0.466792
H	-1.674677	1.039512	0.90529
Br	2.758947	0.0	0.0
