16

C	-0.471062	-0.085148	-1.455583
C	0.0	0.0	0.0
Cl	-0.079699	1.442447	-2.319223
H	1.096395	0.0	0.0
H	-1.563369	-0.159895	-1.49002
C	0.187086	-1.243181	-2.185506
H	1.269957	-1.183724	-2.053269
H	-0.053206	-1.209101	-3.24986
H	-0.170989	-2.196103	-1.787417
C	-0.44245	-1.236075	0.79738
H	-1.521344	-1.407275	0.716096
H	0.094223	-2.11771	0.446548
H	-0.190871	-1.098818	1.850239
C	-0.524699	1.196442	0.653046
N	-0.997693	2.109753	1.220753
Cl	3.371389	0.0	0.0
