16

C	-0.326714	-0.010325	-1.489368
C	0.0	0.0	0.0
Cl	-2.111585	-0.088166	-1.786412
H	1.098316	0.0	0.0
H	0.070471	-0.943036	-1.89656
C	0.270053	1.176482	-2.215781
H	-0.176043	2.108076	-1.860865
H	1.343924	1.19166	-2.007837
H	0.104824	1.095862	-3.292143
C	-0.476483	-1.240268	0.751715
H	-0.100808	-1.216371	1.776117
H	-1.566086	-1.309977	0.770237
H	-0.06755	-2.130185	0.266856
C	-0.486654	1.220519	0.636388
N	-0.903285	2.18835	1.156334
Cl	3.346103	0.0	0.0
