16

C	-0.326909	-0.010973	-1.489283
C	0.0	0.0	0.0
Cl	-2.112061	-0.088195	-1.785885
H	1.098374	0.0	0.0
H	0.069665	-0.944117	-1.896041
C	0.270136	1.175149	-2.216584
H	0.104402	1.094151	-3.292843
H	1.344119	1.189864	-2.009146
H	-0.175312	2.107139	-1.86198
C	-0.476512	-1.2398	0.752522
H	-0.067996	-2.130054	0.267935
H	-0.100442	-1.215488	1.776787
H	-1.566128	-1.309201	0.771465
C	-0.486563	1.220831	0.635867
N	-0.903765	2.188282	1.156036
Cl	3.34619	0.0	0.0
