15

C	0.0	0.0	0.0
C	-0.229596	-0.194426	-1.59734
Br	1.941323	0.0	0.0
H	0.262917	-1.159693	-1.754285
H	0.462467	0.553848	-1.979693
N	-0.360278	1.396873	0.528759
O	-0.419693	2.278543	-0.308736
O	-0.416118	1.520876	1.742124
C	-0.358403	-1.069381	0.918794
N	-0.600771	-1.990151	1.609326
C	-1.4429	-0.168316	-2.59079
H	-0.826199	-0.118382	-3.517728
H	-2.066265	-1.055979	-2.590684
H	-2.059419	0.718733	-2.539899
Br	-2.934704	0.0	0.0
