15

C	0.0	0.0	0.0
C	-0.522027	0.142795	-1.417011
Br	1.946753	0.0	0.0
H	0.041889	0.946023	-1.894737
H	-1.568439	0.444817	-1.307917
N	-0.37327	1.223445	0.851162
O	-0.49139	1.044294	2.053937
O	-0.437083	2.287483	0.254353
C	-0.417946	-1.213094	0.690656
N	-0.633869	-2.25068	1.19953
C	-0.45115	-1.16424	-2.194158
H	-0.694636	-0.975449	-3.242615
H	-1.192083	-1.861906	-1.799516
H	0.538666	-1.627423	-2.152238
Br	-3.607023	0.0	0.0
