15

C	-0.488556	0.073874	-1.458223
C	0.0	0.0	0.0
F	-0.26746	-1.177241	-2.018965
H	1.091353	0.0	0.0
H	-1.572139	0.237991	-1.47147
C	0.27318	1.109644	-2.246661
H	1.34397	0.938988	-2.123191
H	0.040949	2.116567	-1.897013
H	-0.001022	1.03013	-3.301068
C	-0.548506	-1.164317	0.68012
N	-0.989253	-2.113629	1.211667
N	-0.493438	1.245354	0.681026
O	-1.65112	1.230106	1.109123
O	0.263543	2.210923	0.702349
Cl	3.262271	0.0	0.0
