15

C	-0.486277	0.042376	-1.458967
C	0.0	0.0	0.0
F	-0.234186	-1.211247	-2.001568
H	1.091344	0.0	0.0
H	-1.573798	0.181977	-1.478229
C	0.252916	1.08812	-2.259017
H	-0.011001	0.982578	-3.313657
H	-0.013859	2.094257	-1.929897
H	1.328491	0.951226	-2.125555
C	-0.553083	-1.148427	0.703171
N	-1.01029	-2.083149	1.246684
N	-0.496707	1.260348	0.651872
O	-1.668095	1.26912	1.032147
O	0.272533	2.211605	0.699514
Cl	3.262737	0.0	0.0
