15

C	-0.535208	-0.008352	-1.438563
C	0.0	0.0	0.0
F	0.082375	0.977992	-2.179703
H	1.092379	0.0	0.0
H	-0.236829	-0.97099	-1.865962
C	-2.033294	0.194665	-1.526985
H	-2.347511	0.125842	-2.570398
H	-2.296936	1.187382	-1.155838
H	-2.568002	-0.557214	-0.943253
C	-0.490339	-1.191606	0.682566
N	-0.889295	-2.194628	1.145396
N	-0.486039	1.225686	0.712473
O	-1.318175	1.092347	1.612179
O	-0.043242	2.293269	0.304999
Cl	3.208988	0.0	0.0
