15

C	-0.501983	0.017271	-1.450921
C	0.0	0.0	0.0
F	-0.143979	-1.20143	-2.011092
H	1.091382	0.0	0.0
H	-1.596267	0.061442	-1.459703
C	0.12945	1.13978	-2.238988
H	-0.242411	2.109538	-1.901278
H	-0.12446	1.021094	-3.29453
H	1.213375	1.110133	-2.111152
C	-0.541433	-1.137647	0.730852
N	-0.97687	-2.065928	1.302778
N	-0.506195	1.266122	0.633353
O	0.290093	2.183178	0.795205
O	-1.713743	1.311417	0.88258
Cl	3.267241	0.0	0.0
