15

C	-0.468616	0.224884	-1.448637
C	0.0	0.0	0.0
F	-0.16734	1.537824	-1.779887
H	1.092932	0.0	0.0
H	0.158261	-0.421288	-2.070593
C	-1.939378	-0.008396	-1.710738
H	-2.20127	-1.052719	-1.537297
H	-2.549413	0.618066	-1.060587
H	-2.154864	0.240642	-2.751474
C	-0.489504	-1.278601	0.49647
N	-0.871102	-2.333793	0.843018
N	-0.536071	1.105344	0.860882
O	-1.68834	0.978211	1.284876
O	0.187077	2.075569	1.039112
Cl	3.238075	0.0	0.0
