15

C	-0.50128	0.107687	-1.454547
C	0.0	0.0	0.0
F	-0.568776	-1.195455	-1.949038
H	1.09566	0.0	0.0
H	-1.521564	0.501023	-1.467061
C	0.433965	0.89871	-2.335767
H	1.44014	0.485753	-2.259654
H	0.084709	0.845923	-3.369351
H	0.46103	1.939265	-2.017623
C	-0.528701	-1.177606	0.672099
N	-0.981801	-2.127208	1.193233
N	-0.391944	1.212617	0.798453
O	-0.683856	2.231614	0.173418
O	-0.349861	1.121732	2.018597
Cl	3.197975	0.0	0.0
