14
Coordinates from ORCA-job run
  C   0.52791411682549      0.13267760257362     -0.23280547393326
  C   -0.42809987244162     -0.64138731274209      0.66891606443220
  Br  1.56245855275239      1.44398768215946      0.85027642805388
  H   -1.00426394182540     -1.28388165017583     -0.01001125293540
  H   0.20763354036094     -1.29128588659633      1.27782201650277
  N   1.32340041095105     -0.73819436090580     -1.00275683853178
  H   1.91684785946899     -0.22035123672733     -1.63970448679545
  H   1.88933664678349     -1.33191883865814     -0.41065738675401
  N   -0.23381321213366      0.98113320420792     -1.24712892518302
  O   -1.44872650270705      1.08022615444160     -1.10946691053695
  O   0.43097312502439      1.48062031643799     -2.14501418752327
  N   -1.21888087059525      0.19325495263791      1.54331424653099
  H   -1.46870742507250     -0.30783555072229      2.38297368691810
  H   -2.05707242739125      0.50195492406930      1.07424301975522
