14
Coordinates from ORCA-job run
  C   0.36614118120231      0.22872846167210     -0.34687009198514
  C   -0.74501659283118      0.07210690818499      0.68103977397610
  Br  2.03164069059294      0.83289616189944      0.67170593260392
  H   -0.82466588127955      0.98649881995844      1.27161819812547
  H   -1.67215470176276     -0.05510654970987      0.11597833243308
  N   0.52430541312008     -0.91506470284597     -1.10365809782763
  H   0.52132377950612     -1.72958942178922     -0.50142942621653
  H   1.29673608760623     -0.88283681267313     -1.75302509646915
  N   0.11599890962792      1.40007221644052     -1.27918290302470
  O   0.76015677263691      1.41255390232432     -2.31970478357959
  O   -0.70494338055450      2.23675656629481     -0.91933730005258
  N   -0.48122696608998     -1.14394619997859      1.44279635753596
  H   0.15337433134229     -0.94257935185726      2.20535680630594
  H   -1.34166964311683     -1.50048999792059      1.83571229817483
