14
Coordinates from ORCA-job run
  C   0.64885675371580      0.02161789030387     -0.10208669990934
  C   -0.52358342008489     -0.63924567085074      0.61028461808310
  Br  1.81482058278948      0.89985636009307      1.16905388482610
  H   -0.09531058210013     -1.37062437470987      1.30654250080900
  H   -1.08272429214100     -1.18319676331283     -0.15646096119553
  N   1.39681631718161     -0.92805507687790     -0.84058428983932
  H   0.81381886348607     -1.32510731384375     -1.56862775696351
  H   2.22687479741534     -0.51899186831469     -1.25122461586284
  N   0.01055719844395      1.10453081123102     -1.02547895563219
  O   0.15059795315756      2.29432761013899     -0.80831785365715
  O   -0.62825462543486      0.60096389117938     -1.94787848714915
  N   -1.39462145195649      0.36441139152393      1.18965696246525
  H   -2.31478909486107     -0.01833310883819      1.35555790300331
  H   -1.02405899961142      0.69584622227776      2.07056375102226
