14
Coordinates from ORCA-job run
  C   0.64624382473505      0.06327679979431     -0.11284865577419
  C   -0.46571989667705     -0.61725445140670      0.67498148055986
  Br  1.74789148094940      1.14353292097466      1.05586457781390
  H   0.02484493801283     -1.24359718112089      1.42987521822598
  H   -0.98519996994617     -1.27380300421179     -0.02890987441578
  N   1.46090387796618     -0.89021744501092     -0.77121103724825
  H   2.25426035950270     -0.45888781946798     -1.22890383068730
  H   0.90598507452979     -1.39674031147505     -1.45171805624868
  N   -0.08171520432372      1.00311129585281     -1.12234959633756
  O   -0.69072462077346      0.36719845065444     -1.98126756310226
  O   -0.03111561790775      2.21512699903963     -1.02060956121799
  N   -1.40879520488189      0.36488208438524      1.17154366380700
  H   -1.07210690584596      0.78954576417953      2.02532125310691
  H   -2.30375213533998     -0.06417410218729      1.35923198151835
