14
Coordinates from ORCA-job run
  C   0.60985817066680      0.12938483514201     -0.19558687517549
  C   -0.18584385902267     -0.02055456947350      1.08696025305066
  Br  2.42032746796311      0.86963002472583      0.27112721341779
  H   -0.17930316629169      0.93145119202005      1.61480402903752
  H   0.33745064279970     -0.75966476455871      1.71248800229000
  N   0.64597422060789     -1.05965380918661     -0.93424120337187
  H   1.20514940903748     -1.76096876227219     -0.46696712555836
  H   0.97038367569896     -0.91053864680790     -1.88097462345033
  N   -0.02087390177893      1.22084034408833     -1.05776725843773
  O   -0.04579784475182      1.02253744861107     -2.26710448690188
  O   -0.42393186191831      2.21441143521631     -0.47581812893690
  N   -1.54588565849351     -0.35557686280941      0.70934091368147
  H   -1.60766496036106     -1.31654452311720      0.40399960938228
  H   -2.18084233415600     -0.20475334157811      1.48073968097283
