14
Coordinates from ORCA-job run
  C   0.39215911388065      0.21605809779382     -0.32564573662161
  C   -0.76255670518104      0.09738065227767      0.65793156443959
  Br  2.05422185868175      0.68124271578105      0.76803002325446
  H   -0.80650586204452      0.99592647591719      1.27591544274433
  H   -1.67469762978979      0.04690791953489      0.05731090104219
  N   0.50573070214850     -0.91049419729811     -1.11576086278467
  H   0.43299358461194     -1.74212665263114     -0.54187136560052
  H   1.30163113383215     -0.90509844965364     -1.73713488020753
  N   0.24845538363987      1.42981190793552     -1.22567260224848
  O   0.92502170589470      1.43240908665421     -2.24598213622237
  O   -0.53399741071668      2.30365247175729     -0.86705283564341
  N   -0.60267459132578     -1.15628170203615      1.38642963275174
  H   0.01554428154442     -1.01941795222750      2.17636697628001
  H   -1.49732556517609     -1.46897037380503      1.73813587881626
