14
Coordinates from ORCA-job run
  C   0.52697285470256      0.11044890501465     -0.24908350139392
  C   -0.43309206929842     -0.62178835390503      0.68305894422188
  Br  1.65223679419139      1.36867454979491      0.80454566669857
  H   0.19304916212061     -1.28920804041540      1.28283464184784
  H   -1.05024236776491     -1.24799588704526      0.02607172157004
  N   1.25813086639258     -0.79189061735980     -1.04652551124384
  H   1.80505196971481     -1.42206778462390     -0.47450930970855
  H   1.86355537910474     -0.29927203679486     -1.69217774607853
  N   -0.22966116838933      0.99141621762783     -1.23895148382093
  O   -1.44169509408042      1.10635234796208     -1.08894989586226
  O   0.43502289985319      1.49292123595545     -2.13577765035622
  N   -1.17171256714164      0.25349684034329      1.56300850780460
  H   -1.37638040856366     -0.20507036099601      2.43799344335614
  H   -2.03123625084145      0.55298298444212      1.12846217296512
