14
Coordinates from ORCA-job run
  C   0.64148706391176      0.04103510996419     -0.12626864790794
  C   -0.47496303516732     -0.60400276527923      0.68315121620817
  Br  1.80232889135872      1.08575820693451      1.01856177347468
  H   -1.02985553939397     -1.24130985441374     -0.01170116762900
  H   0.00960373851923     -1.24744209450839      1.42780618733048
  N   1.41235046466164     -0.93781063479515     -0.79993424226450
  H   0.82759082552908     -1.42808709470338     -1.46718967682949
  H   2.20777350820766     -0.53082268336298     -1.27596937791959
  N   -0.07634263810902      1.00427372743336     -1.12163944281991
  O   -0.70292928456120      0.38901702884692     -1.98254186637039
  O   0.00568103291818      2.21398789206773     -1.01243718971411
  N   -1.37849728358356      0.40733139548971      1.19603247090103
  H   -0.98441840940296      0.85724312535226      2.01213026190633
  H   -2.26080933488823     -0.00917135902578      1.45899970163425
