14
Coordinates from ORCA-job run
  C   0.48863619483819      0.26541700910229     -0.24544045886215
  C   -0.73893806527065      0.11257099335711      0.68319263500807
  Br  2.06223561324313      0.65031909525028      0.82727265908534
  H   -0.84837645638492      1.03028167893104      1.26557061270383
  H   -1.60745247687592      0.02874611859692      0.01825148005644
  N   0.80219351773484     -0.81628627222418     -1.11724548773265
  H   0.02280224566843     -1.02459913137656     -1.72886808257154
  H   1.08469946902018     -1.63111931686521     -0.59108821658307
  N   0.15773677634057      1.47683055687389     -1.11826155354789
  O   0.28092938372942      2.59167919853667     -0.63102042740248
  O   -0.33636865453986      1.21104951389811     -2.21124524107721
  N   -0.72684056826173     -1.02041209756692      1.57312414269139
  H   -0.70139564031963     -1.89516504322293      1.06731278675900
  H   0.05813866107797     -0.97831230329047      2.20944515147292
