14
Coordinates from ORCA-job run
  C   0.73458993932980      0.19380314247360     -0.00450384087098
  C   -0.29037908108346     -0.18105752326936      1.05459192091372
  Br  2.23688364283359      1.12857531880511      0.81201376877101
  H   0.20130736602744     -0.90571953739097      1.70584789329807
  H   -0.54596567521120      0.70249341381749      1.64175292538768
  N   1.17187538419152     -0.92861193890280     -0.71702962768606
  H   1.71879828833896     -0.66989228059340     -1.52783003135229
  H   0.34929946129689     -1.45848880154089     -0.98964549034300
  N   0.08771246154432      1.26740764541981     -0.93608549984183
  O   -0.77882514092411      1.99124944207441     -0.45557781212772
  O   0.50035943324983      1.30661111042698     -2.08848386692434
  N   -1.42166750855523     -0.80531137325650      0.37553375231842
  H   -1.83186943746218     -1.52761508295852      0.95062253996583
  H   -2.13311913357615     -0.11344353510496      0.17879336849148
