14
Coordinates from ORCA-job run
  C   0.43223769872343      0.19576424489928     -0.13218181126474
  C   -0.89093403209776      0.08218485575807      0.64089201949723
  Br  1.89552919889539      0.55768688487517      1.08607564918627
  H   -1.10366230424462      1.04393382821524      1.11186102948141
  H   -1.67759835674318     -0.09573403311994     -0.09604561262232
  N   0.70475689081685     -1.00162651120250     -0.84652877532544
  H   -0.03972272881627     -1.19114177939000     -1.50961914058248
  H   1.59859402228451     -0.97041708156194     -1.32203165959034
  N   0.34590280237865      1.39391085565561     -1.12113058266325
  O   1.36696360923365      1.98504657401466     -1.44223437861659
  O   -0.77268020431236      1.57389510429817     -1.60193549481455
  N   -0.93031481280709     -0.96602130343195      1.63469011984072
  H   -0.64906754621943     -1.84330047625193      1.21490496408717
  H   -0.27900423709180     -0.76418116275796      2.38228367338695
