14
Coordinates from ORCA-job run
  C   0.49049445839496      0.24366141527537     -0.26361921378110
  C   -0.71160338000735      0.14659001618092      0.70483952803777
  Br  2.11675712838692      0.54042640786390      0.74971932492129
  H   -1.60348583641660      0.09785902682734      0.06867910843843
  H   -0.76295946296351      1.07038265427246      1.28659440326006
  N   0.71433317976993     -0.84957443513975     -1.15192775817624
  H   1.03966435501896     -1.66330638021751     -0.64995828291257
  H   -0.12020728386886     -1.05642700503332     -1.68634437562372
  N   0.18642279014635      1.47013118645908     -1.12692507485192
  O   0.47960605457765      2.57987119160619     -0.70641192887450
  O   -0.46444871665414      1.22381770946972     -2.13987456964725
  N   -0.71812064952598     -0.98209125360479      1.60047840235994
  H   0.08282475679905     -0.96323288489524      2.21778232553868
  H   -0.72827739365739     -1.85810764906440      1.09596811131112
