14
Coordinates from ORCA-job run
  C   0.67137677211926      0.12362226306634     -0.18070610407855
  C   -0.40608898830014     -0.60596886090169      0.62719806366823
  Br  1.94488492425336      0.94824177491524      1.00600630224212
  H   -0.96349526380483     -1.22670608962356     -0.08420919234577
  H   0.11399814140905     -1.27359162787516      1.31807552908626
  N   1.37848801115962     -0.65436326811825     -1.15639652343184
  H   2.09137751506770     -1.22188132242488     -0.71957296605548
  H   0.72747523673850     -1.23955610203406     -1.66797456048001
  N   -0.06661071359786      1.19901414029800     -0.99159449961530
  O   0.25878670246210      2.37046335215079     -0.94427170305113
  O   -0.95932017475628      0.71736429183759     -1.69092978129565
  N   -1.23978493967935      0.33882406185952      1.34320434798960
  H   -1.43964020647276      0.03030644680806      2.28228766612821
  H   -2.11144701659837      0.49423094004209      0.85688342123926
