14
Coordinates from ORCA-job run
  C   0.59813057424242      0.18196308953098     -0.19040824638369
  C   -0.33383950610447     -0.60055853872341      0.75918254370042
  Br  1.51051413899375      1.57769525139687      0.78945958368495
  H   0.30817936424657     -1.03380262913137      1.53181182870449
  H   -0.74240233040646     -1.42446721902048      0.16421898234012
  N   1.57299755257294     -0.58617124995518     -0.90293792905815
  H   2.28851215036713     -0.92043604192116     -0.27119839273144
  H   1.12216759016522     -1.36622910797084     -1.36705655592960
  N   -0.32198677560914      0.79414631251282     -1.24801536748933
  O   -0.65241160118590      1.96839836234970     -1.18556930378151
  O   -0.73625308051207     -0.03468358566998     -2.05672825572072
  N   -1.42334355002912      0.10944139351899      1.37937695491197
  H   -1.08892948841304      0.91016303591828      1.89908188163196
  H   -2.10133503832783      0.42554092716479      0.69878227612052
