14
Coordinates from ORCA-job run
  C   0.44320121983321      0.02038925784285     -0.27917238212843
  C   -0.41563357619799     -0.54724330768642      0.86261405925049
  Br  1.40709375716873      1.66529407446699      0.38685905545874
  H   0.28782803528433     -1.05596605997716      1.53004240851328
  H   -1.03476100501289     -1.31946575527656      0.39731324106643
  N   1.27781455168458     -0.95610815349609     -0.82649356441999
  H   1.80184579256324     -0.61621920701769     -1.62281932379341
  H   1.88977294097143     -1.36481737581170     -0.13381634365982
  N   -0.39830156480141      0.55188810448474     -1.43484621890584
  O   0.18840502246762      0.74781604524645     -2.49112416873675
  O   -1.59166669577962      0.74383909740752     -1.22708740257229
  N   -1.24855325040571      0.32154125154750      1.64933739462919
  H   -0.69355605025668      1.01460140828906      2.13229185166446
  H   -1.91448917751878      0.79445061998053      1.05590139363398
