17

C	0.0	0.0	0.0
C	-0.353293	0.027586	-1.505755
F	1.38874	0.0	0.0
H	0.50404	0.505695	-1.985062
H	-0.324545	0.956283	0.421289
C	-0.59426	-1.138641	0.780617
H	-0.30599	-1.056178	1.831594
H	-1.68795	-1.065347	0.697247
H	-0.245962	-2.099877	0.396394
C	-1.654652	0.693311	-1.879267
H	-1.839986	0.574754	-2.951609
H	-1.556505	1.763254	-1.665908
H	-2.514241	0.320346	-1.289301
N	-0.279042	-1.383077	-2.027826
O	-1.325657	-1.986872	-2.249556
O	0.849717	-1.862906	-2.165923
H	-3.818703	0.0	0.0
