17

C	0.0	0.0	0.0
C	-0.531749	-0.147165	-1.439756
Cl	1.765931	0.0	0.0
H	-1.611431	-0.305408	-1.332663
C	-0.460902	1.2472	0.601194
N	-0.615239	2.326059	1.043533
N	-0.410555	-1.173262	0.897998
O	-0.458626	-2.263906	0.351472
O	-0.54988	-0.926738	2.08482
N	0.004116	-1.348161	-2.177856
O	-0.8086	-2.213203	-2.487348
O	1.189517	-1.344407	-2.511762
C	-0.205737	1.077669	-2.276301
H	0.87018	1.253458	-2.317832
H	-0.711757	1.950776	-1.864001
H	-0.571269	0.919695	-3.292933
Cl	-3.322556	0.0	0.0
