17

C	0.0	0.0	0.0
C	-0.390372	-0.150534	-1.523779
Cl	1.762542	0.0	0.0
H	0.55222	0.012541	-2.053204
C	-0.431125	1.209971	0.694172
N	-0.508335	2.17733	1.360728
N	-0.36365	-1.200191	0.917805
O	-0.600448	-0.929912	2.081677
O	-0.236707	-2.317797	0.443365
N	-1.162145	1.046878	-2.052862
O	-0.754297	2.142151	-1.677158
O	-1.980734	0.865597	-2.941126
C	-0.958919	-1.460113	-2.030352
H	-1.880506	-1.704879	-1.51318
H	-1.166578	-1.329496	-3.091807
H	-0.223449	-2.252137	-1.907324
Cl	-2.980421	0.0	0.0
