15

C	-0.615788	-0.057082	-1.368707
C	0.0	0.0	0.0
Br	0.194727	1.286595	-2.526934
H	1.086191	0.0	0.0
H	-1.689349	0.098772	-1.394913
N	-0.345941	-1.3804	-2.03285
O	0.703193	-1.949221	-1.761925
O	-1.191405	-1.75303	-2.841401
N	-0.402044	-1.134359	0.81096
O	0.158415	-1.27223	1.905088
O	-1.253654	-1.914567	0.334454
N	-0.380171	1.216927	0.700481
O	0.217529	1.45226	1.758029
O	-1.245648	1.952767	0.184681
H	2.314074	0.0	0.0
