15

C	-0.467592	-0.007531	-1.420072
C	0.0	0.0	0.0
Br	-2.342218	-0.450264	-1.681352
H	1.088115	0.0	0.0
H	0.098489	-0.774583	-1.950737
N	-0.122231	1.292843	-2.120321
O	-0.684477	1.535138	-3.180894
O	0.784929	1.942595	-1.616512
N	-0.293913	-1.286208	0.623724
O	0.000977	-2.26286	-0.079914
O	-0.707909	-1.346361	1.782271
N	-0.479734	1.123283	0.781721
O	-1.297255	1.899732	0.263091
O	0.039128	1.272631	1.89228
H	2.330446	0.0	0.0
