15

C	-0.649853	0.006505	-1.354549
C	0.0	0.0	0.0
Br	-0.081986	1.566125	-2.363163
H	1.086184	0.0	0.0
H	-1.736381	0.008631	-1.33086
N	-0.248974	-1.201112	-2.169937
O	0.792877	-1.773788	-1.880128
O	-1.005567	-1.481358	-3.096917
N	-0.488055	-1.068563	0.79261
O	-1.208295	-1.93739	0.251141
O	-0.048717	-1.131023	1.964073
N	-0.388316	1.258442	0.730754
O	0.476923	1.87609	1.34793
O	-1.592945	1.568689	0.66337
H	2.332342	0.0	0.0
