15

C	-0.427985	-0.000459	-1.436792
C	0.0	0.0	0.0
Br	0.213336	-1.485673	-2.490725
H	1.089771	0.0	0.0
H	-0.031952	0.896157	-1.907273
N	-1.922759	0.068713	-1.633985
O	-2.317097	0.710047	-2.601255
O	-2.622847	-0.53992	-0.83383
N	-0.421026	-1.141024	0.822562
O	0.048015	-2.22475	0.468623
O	-1.147882	-0.962867	1.79881
N	-0.365972	1.259771	0.623957
O	0.071385	1.451675	1.761774
O	-0.956126	2.110438	-0.068917
H	2.374236	0.0	0.0
