15

C	-0.453146	-0.007567	-1.421482
C	0.0	0.0	0.0
Br	0.4827	-1.309755	-2.488403
H	1.089408	0.0	0.0
H	-0.221299	0.968808	-1.844948
N	-1.967269	-0.148814	-1.564821
O	-2.435357	-0.77887	-2.499513
O	-2.605602	0.48842	-0.733283
N	-0.425915	-1.16145	0.75405
O	-1.157651	-1.99044	0.188149
O	0.067931	-1.298825	1.877705
N	-0.323224	1.263732	0.661216
O	-0.763716	1.276605	1.808509
O	-0.033342	2.269047	-0.00021
H	2.335507	0.0	0.0
