15

C	-0.545247	-0.008766	-1.393908
C	0.0	0.0	0.0
Br	-2.411927	0.526678	-1.551433
H	1.089836	0.0	0.0
H	-0.493398	-1.026467	-1.767713
N	0.328033	0.794447	-2.338197
O	1.396955	0.23096	-2.570281
O	-0.03853	1.880045	-2.767379
N	-0.358712	-1.192141	0.731465
O	0.111441	-1.271337	1.87565
O	-0.953512	-2.114084	0.143108
N	-0.322623	1.235224	0.712452
O	0.086562	2.242232	0.126735
O	-0.940209	1.222432	1.775318
H	2.305847	0.0	0.0
