15

C	-0.452551	0.009264	-1.42184
C	0.0	0.0	0.0
Br	0.467172	-1.299055	-2.495956
H	1.089425	0.0	0.0
H	-0.205244	0.985112	-1.838113
N	-1.968669	-0.111068	-1.571028
O	-2.44122	-0.729483	-2.512204
O	-2.602004	0.529464	-0.738175
N	-0.43766	-1.162662	0.745164
O	0.059447	-1.318108	1.864114
O	-1.188486	-1.973454	0.177194
N	-0.317582	1.260645	0.673067
O	-0.759225	1.264505	1.820501
O	-0.022091	2.270212	0.020161
H	2.338179	0.0	0.0
