11
Coordinates from ORCA-job run
  C   -0.73991233046120     -0.00809862309229     -0.47414226484428
  C   0.36507619101303      0.05736754391245      0.56571581383768
  Cl  -0.52157891558440      1.28367696424065     -1.68278550920591
  H   0.45299640700620      1.04707030279277      1.00882095371932
  H   -0.67927681140899     -0.95720622506332     -1.00851192697589
  H   0.20747453601007     -0.70020500183171      1.33716007635310
  C   -2.03870717368236      0.11601913623303      0.17799708205535
  N   -3.06992053362983      0.20162218877955      0.73296621394672
  N   1.68193318657235     -0.26008231728614     -0.07102595402001
  O   2.63994180575425      0.42667985254691      0.26441688564336
  O   1.70097363841088     -1.20784382123189     -0.85061137050944
