11
Coordinates from ORCA-job run
  C   -0.89390814432467     -0.45984109243238     -0.03092941951552
  C   0.46818379463316     -0.30201009794543      0.62041867712723
  Cl  -0.77310368098903     -1.45281245519887     -1.50610860804051
  H   0.39466114054214      0.31893426951718      1.51700520830331
  H   -1.51424832721002     -1.02910953221210      0.66719320912793
  H   0.88501723522316     -1.27430693520506      0.87680933577740
  C   -1.57641432583436      0.80372371326240     -0.29595938373522
  N   -2.17890318262979      1.80200755207198     -0.43193722821084
  N   1.47603949828043      0.36088870933559     -0.26736039769369
  O   2.64563631774612      0.05452613180068     -0.06379619849472
  O   1.06603967456285      1.17599973700602     -1.08533519464538
