17

C	0.0	0.0	0.0
C	-0.280708	-0.09835	-1.550601
F	1.350948	0.0	0.0
H	0.663063	0.27848	-1.95703
C	-0.496854	1.263801	0.537024
N	-0.561091	2.377162	0.913936
N	-0.403274	-1.13392	0.914286
O	-0.301299	-0.8695	2.106682
O	-0.62983	-2.233729	0.441265
C	-1.413981	0.637691	-2.224102
H	-2.353919	0.160447	-1.988316
H	-1.452285	1.664103	-1.857308
H	-1.21486	0.652066	-3.303816
N	-0.23823	-1.537163	-2.014167
O	-1.273686	-2.070021	-2.39154
O	0.871126	-2.070075	-2.013769
F	-2.261818	0.0	0.0
