17

C	0.0	0.0	0.0
C	-0.278454	0.027138	-1.553256
F	1.35521	0.0	0.0
H	0.670919	0.41854	-1.92833
C	-0.493684	1.219223	0.63463
N	-0.560913	2.303508	1.089329
N	-0.411436	-1.200661	0.81895
O	-0.406314	-1.017362	2.03092
O	-0.556989	-2.274063	0.255039
C	-1.394032	0.841632	-2.164304
H	-1.400539	1.838242	-1.720158
H	-2.348267	0.376381	-1.966861
H	-1.183618	0.938037	-3.237159
N	-0.263165	-1.366328	-2.137127
O	0.840244	-1.910115	-2.203487
O	-1.311091	-1.848964	-2.548807
F	-2.247037	0.0	0.0
