17

C	0.0	0.0	0.0
C	-0.289209	-0.106584	-1.547444
F	1.350232	0.0	0.0
H	0.680468	0.180549	-1.965088
C	-0.485023	1.272102	0.534187
N	-0.551649	2.382702	0.920335
N	-0.423349	-1.115976	0.931162
O	-0.640965	-2.226448	0.476915
O	-0.36498	-0.821722	2.120091
C	-1.358254	0.728072	-2.212718
H	-1.18809	0.698281	-3.295667
H	-2.33425	0.356514	-1.931817
H	-1.269974	1.761653	-1.873227
N	-0.375338	-1.544755	-2.00142
O	-1.445199	-1.976984	-2.412084
O	0.68281	-2.176339	-1.978157
F	-2.258394	0.0	0.0
