17

C	0.0	0.0	0.0
C	-0.429787	-0.072631	-1.482464
F	1.358711	0.0	0.0
H	-1.398164	-0.556091	-1.497905
C	-0.498152	1.113996	0.802916
N	-0.607422	2.015083	1.551364
N	-0.382663	-1.300925	0.691484
O	-0.486634	-2.298983	-0.013458
O	-0.388756	-1.287774	1.914358
C	0.6162	-0.698297	-2.393956
H	1.528184	-0.101743	-2.429309
H	0.194831	-0.773878	-3.399058
H	0.853016	-1.700287	-2.040614
N	-0.670451	1.299707	-2.013716
O	-1.543171	1.420509	-2.869506
O	0.087544	2.200168	-1.646759
F	-2.3228	0.0	0.0
