15
Coordinates from ORCA-job run
  C   1.01685280031626      0.28982225018642      0.40038345662538
  C   -0.45524913665142      0.33153029382856      0.00372076597506
  F   1.82029683802658      0.09956688776485     -0.66918195854902
  H   -1.03090416148559      0.25148758547187      0.93525560081907
  H   1.32921797094392      1.18793688776145      0.93561017267606
  N   1.22594369764178     -0.85223245873884      1.36611876698343
  O   1.79657447219408     -1.85983263054545      0.97000516746796
  O   0.75481563956103     -0.66424550523276      2.48478096503530
  C   -0.79558341023330     -0.83750543939977     -0.90770427459483
  H   -0.25339216067426     -0.74188766415322     -1.84927197085979
  H   -0.53622798810612     -1.79647800229847     -0.45689159609267
  H   -1.86788696370763     -0.84264102679648     -1.11648973224384
  N   -0.66742501022704      1.59639009598926     -0.69313296553397
  H   -1.42078573076769      1.50838218685385     -1.36199417044872
  H   -0.91624685683061      2.32970653930873     -0.04120822725943
