15
Coordinates from ORCA-job run
  C   0.64160772823271     -0.50623801256426      0.62235280998915
  C   -0.53230723478218      0.19752064127296     -0.05174786300355
  F   0.22711715508898     -1.18075821133802      1.73060154666377
  H   -1.01069186124416      0.78925546346348      0.73629036915401
  H   1.18724354219124     -1.18347401231902     -0.03744693448573
  N   1.63488329769533      0.53356166878383      1.05804784187134
  O   1.34311660268417      1.19966694054918      2.04480812420659
  O   2.62396133283238      0.67621845935199      0.34147243410168
  C   -1.50859871729956     -0.84466037500210     -0.57594966145553
  H   -1.04868008740995     -1.43020479170936     -1.37844157703364
  H   -2.38322431464423     -0.33951646573603     -0.98587924331963
  H   -1.82518732897286     -1.52805107013327      0.21290237535170
  N   -0.14505787964439      1.10121456144455     -1.11876193413534
  H   0.40525925002082      0.62533813566709     -1.82356469868647
  H   0.38955851525170      1.88912706826897     -0.77668358921835
