15
Coordinates from ORCA-job run
  C   0.81041256221011     -0.56285333818153      0.43102709392296
  C   -0.45721719311335      0.16479024810399      0.03977439910795
  F   0.54132449470849     -1.56998319991785      1.31343313293677
  H   -0.87002127189334      0.55700686051919      0.97376579382208
  H   1.36950919768166     -0.96330150592527     -0.41660526447942
  N   1.73998656161703      0.40068558514831      1.11642749919050
  O   1.32685268589538      0.90649697904513      2.15398315187202
  O   2.82826183814698      0.59711783439400      0.58599526406197
  C   -1.44907400245997     -0.79569351529797     -0.60652903030142
  H   -1.69907558694169     -1.62458978151343      0.05805291589614
  H   -1.03407974149937     -1.20943076704999     -1.53139584565501
  H   -2.36960591334051     -0.26432057605625     -0.85768311504430
  N   -0.04833449421160      1.29761189067806     -0.78092809928801
  H   -0.72765232415817      2.04385947747136     -0.72657321034698
  H   0.03771318735833      1.02460380858227     -1.75274468569524
