15
Coordinates from ORCA-job run
  C   0.45253078211549     -0.10992718744531      1.14171717483006
  C   -0.65224965228383      0.24223768741775      0.15070004838626
  F   0.53800146510122      0.82202956351766      2.11829690829807
  H   -1.51340681140219      0.44529660448496      0.79760771351002
  H   0.31972848539845     -1.09636849260555      1.58963055041233
  N   1.77979698013088     -0.16714611096436      0.42764927050874
  O   2.52733490698429      0.79652880415683      0.50572279650348
  O   1.97093321001162     -1.19713160998340     -0.21856003630187
  C   -0.99715005068384     -0.91472806681569     -0.78437351476176
  H   -1.22877246142528     -1.83242516761648     -0.23657182275858
  H   -1.87113404086155     -0.64307877025506     -1.38047456625372
  H   -0.16974394318245     -1.12989076530133     -1.46232009445178
  N   -0.30731535312605      1.49418251849704     -0.50604238122309
  H   -1.14151415290016      1.96027278879981     -0.83585406318166
  H   0.29096063612342      1.32814820411314     -1.30712798351649
