15

C	-0.027532	0.047385	-0.017528
C	-0.49956	0.109421	-1.458382
F	1.381185	0.082454	0.006093
H	-1.596829	0.082756	-1.413181
H	-0.345368	0.992781	0.442348
N	-0.506013	-1.134214	0.603308
H	-1.5529	-1.032924	0.524752
H	-0.301474	-1.064372	1.596127
N	-0.068937	-1.17143	-2.163278
O	-0.864235	-2.102836	-2.216192
O	1.062285	-1.182843	-2.658835
N	0.018295	1.270537	-2.10775
H	-0.338906	1.335113	-3.051775
H	1.026843	1.193704	-2.147961
H	-3.044966	-0.242607	0.249837
