15

C	-0.055395	-0.009135	-0.034075
C	-0.401061	-0.009673	-1.522569
F	1.339933	0.036709	0.080191
H	0.411238	-0.513061	-2.061423
H	-0.423549	0.910378	0.429205
N	-0.514252	-1.212692	0.594493
H	-0.252004	-1.130649	1.573851
H	-1.541536	-1.135131	0.583222
N	-0.247096	1.454479	-2.063073
O	-0.779488	1.678737	-3.150725
O	0.430234	2.271686	-1.44391
N	-1.661547	-0.561245	-1.800392
H	-2.372971	-0.26531	-1.092487
H	-1.950565	-0.357209	-2.746871
H	-3.149151	-0.010828	0.369055
