15

C	-0.073904	-0.088238	0.016472
C	-0.49541	-0.219022	-1.45313
F	1.297472	0.22298	0.020029
H	-1.521452	-0.590155	-1.44918
H	-0.631164	0.777475	0.378108
N	-0.306595	-1.202953	0.875884
H	-0.226934	-2.069642	0.357829
H	-1.250387	-1.124439	1.233048
N	0.359006	-1.287194	-2.080777
O	1.299838	-0.956778	-2.793145
O	0.090493	-2.459124	-1.780414
N	-0.456635	0.988178	-2.205938
H	-1.302195	1.476446	-1.853839
H	0.363009	1.520627	-1.937278
H	-2.706422	1.391922	-0.608636
