13
Coordinates from ORCA-job run
  C   -0.57440769021862      0.32244347854242      0.02763994591542
  C   0.82794106925827     -0.22260640458766      0.22233486164837
  Br  -0.49939339206451      1.88663073329166     -1.16319310440602
  H   1.22431758314476     -0.52733344411112     -0.75860054516615
  H   -0.93195804702645      0.72141956880813      0.97818374748268
  H   0.73047233745176     -1.12760747534133      0.83344810964446
  C   -1.53378713859143     -0.69741268997889     -0.55365214046632
  H   -1.61762478299426     -1.54772104560385      0.13058379167809
  H   -2.52755613432142     -0.27108072565353     -0.69455282314661
  H   -1.17659548598878     -1.06131015896574     -1.51925538591265
  N   1.66545837475202      0.72050095957980      0.95213680816971
  H   2.54971833634718      0.28511963807916      1.18297450315363
  H   1.86541497025149      1.51895756594095      0.36195223140537
