13
Coordinates from ORCA-job run
  C   -0.71340485906611      0.43653837762314      0.21232679981205
  C   0.66784245816555      0.16495921010435      0.78964150674360
  Br  -0.65090172160321      2.09395273352662     -0.85075450062063
  H   0.96299995813062      1.01959403341744      1.41512386361247
  H   -1.40010199221076      0.67489505737882      1.02756134778760
  H   0.56511818816705     -0.70412412705750      1.45059960615402
  C   -1.25025984575954     -0.69487378141300     -0.64045379638429
  H   -1.31279356782287     -1.60031532581835     -0.02766060778381
  H   -2.24638804818942     -0.46357367660804     -1.01994468616623
  H   -0.57956496400037     -0.89476437454915     -1.47389774741886
  N   1.62379258947332     -0.17472249699551     -0.25658711067814
  H   1.85375485793344      0.65859111165681     -0.78439907390859
  H   2.47990694678229     -0.51815674126563      0.15944439885080
