13

C	0.0	0.0	0.0
C	-0.537448	0.139782	-1.422088
Cl	1.839576	0.0	0.0
H	-0.775662	1.204391	-1.590235
H	-0.231351	-1.006224	0.345854
H	0.24104	-0.139614	-2.13487
N	-0.568594	0.941702	0.872032
H	-0.424358	1.898664	0.590041
H	-0.335651	0.80219	1.843068
N	-1.657756	-0.775527	-1.56802
H	-2.034468	-0.702599	-2.505501
H	-2.429354	-0.51532	-0.94982
Br	-4.718718	0.0	0.0
