13

C	0.0	0.0	0.0
C	-0.505342	0.552496	-1.321645
Cl	1.78472	0.0	0.0
H	-0.037405	-0.015807	-2.132258
H	-0.277077	-1.05796	0.0545
H	-1.582135	0.353299	-1.324588
N	-0.509433	0.798177	1.087891
H	-0.270996	0.360966	1.970475
H	-1.529827	0.763114	0.994736
N	-0.181098	1.978112	-1.460138
H	-0.94201	2.418937	-1.963038
H	-0.200803	2.368899	-0.523207
Br	-3.859312	0.0	0.0
