13

C	0.0	0.0	0.0
C	-0.520775	-0.113387	-1.411272
Cl	1.85469	0.0	0.0
H	-1.608695	-0.149461	-1.28563
H	-0.254288	-0.90285	0.550444
H	-0.266407	0.809025	-1.958245
N	-0.512533	1.13405	0.645158
H	-0.263725	1.999301	0.190804
H	-0.316505	1.166001	1.632638
N	-0.054641	-1.337964	-2.051203
H	-0.690343	-1.580977	-2.799035
H	0.866725	-1.1992	-2.446619
Br	-4.232581	0.0	0.0
