13

C	0.0	0.0	0.0
C	-0.432493	-0.195024	-1.445016
Cl	1.804272	0.0	0.0
H	-1.527353	-0.180229	-1.420806
H	-0.300914	-0.873435	0.576662
H	-0.079053	0.678872	-2.022999
N	-0.504675	1.181551	0.635328
H	-1.514562	1.024784	0.734039
H	-0.388667	1.966743	0.002399
N	0.015115	-1.479368	-1.977074
H	-0.544761	-1.715078	-2.788071
H	0.982024	-1.41078	-2.273198
Br	-3.814899	0.0	0.0
