13

C	0.0	0.0	0.0
C	-0.341882	-0.275441	-1.482032
Cl	1.80058	0.0	0.0
H	0.200554	0.482553	-2.055472
H	-0.274068	-0.857144	0.627295
H	0.106756	-1.243205	-1.731996
N	-0.53826	1.257051	0.42827
H	-1.54208	1.213334	0.248058
H	-0.43016	1.357148	1.431111
N	-1.718513	-0.267652	-1.903286
H	-2.1238	0.656298	-1.840446
H	-2.319369	-0.841881	-1.323786
Br	-4.40999	0.0	0.0
