19

C	-0.597519	0.020384	-1.390685
C	0.0	0.0	0.0
Br	0.273464	1.460379	-2.441323
H	1.0889	0.0	0.0
N	-0.222459	-1.239809	-2.178065
O	-1.045059	-1.645039	-2.996639
O	0.889779	-1.706492	-1.986999
C	-2.090176	0.243582	-1.452805
H	-2.330608	1.179198	-0.944597
H	-2.582362	-0.590224	-0.949493
H	-2.436832	0.295826	-2.484505
N	-0.432214	-1.164517	0.721354
O	-0.970505	-2.115604	0.106248
O	-0.14924	-1.210791	1.933886
C	-0.276826	1.245129	0.830606
H	-1.30288	1.281879	1.206707
H	0.413763	1.228813	1.674204
H	-0.06547	2.138452	0.242654
H	2.407632	0.0	0.0
