19

C	-0.396365	-0.035202	-1.465068
C	0.0	0.0	0.0
Br	-2.351991	-0.377526	-1.715818
H	1.091648	0.0	0.0
N	-0.13597	1.383379	-1.987791
O	-1.001323	2.242924	-1.860661
O	0.989816	1.570431	-2.443251
C	0.392963	-0.999217	-2.318915
H	0.068975	-2.015353	-2.118746
H	1.44531	-0.896389	-2.032259
H	0.253118	-0.763772	-3.375115
N	-0.368775	-1.260134	0.651573
O	0.064432	-2.308832	0.155246
O	-1.018568	-1.221444	1.707787
C	-0.468035	1.190927	0.801747
H	-0.148053	1.050603	1.833695
H	0.02137	2.090126	0.425976
H	-1.550756	1.322957	0.779134
H	2.536397	0.0	0.0
