19

C	-0.396307	-0.052314	-1.459354
C	0.0	0.0	0.0
Br	0.061979	-1.709617	-2.403166
H	1.114856	0.0	0.0
N	-1.921702	0.041203	-1.623716
O	-2.356593	0.650413	-2.599769
O	-2.610152	-0.501247	-0.76547
C	0.275828	1.076234	-2.215681
H	1.338457	1.039587	-1.948004
H	-0.145724	2.037933	-1.922869
H	0.143247	0.955966	-3.288584
N	-0.431871	-1.135472	0.833739
O	-0.081557	-2.26608	0.48874
O	-1.02816	-0.897231	1.892613
C	-0.393238	1.313524	0.654032
H	-1.47078	1.498167	0.653744
H	0.13448	2.134271	0.167104
H	-0.053477	1.285127	1.688715
H	2.574229	0.0	0.0
