19

C	-0.40611	-0.09251	-1.454673
C	0.0	0.0	0.0
Br	0.071531	-1.764846	-2.366555
H	1.114297	0.0	0.0
N	-1.931662	-0.023939	-1.611944
O	-2.610711	-0.525412	-0.720778
O	-2.378034	0.523284	-2.619162
C	0.246938	1.023619	-2.246737
H	0.111669	0.868723	-3.314673
H	1.31111	1.009539	-1.983432
H	-0.18795	1.987934	-1.98198
N	-0.416013	-1.116969	0.86639
O	-0.946618	-0.848423	1.953271
O	-0.11427	-2.260391	0.522589
C	-0.402608	1.321576	0.632504
H	0.035077	2.150546	0.076014
H	0.02357	1.351494	1.635267
H	-1.485283	1.447788	0.715658
H	2.572692	0.0	0.0
