14
Coordinates from ORCA-job run
  C   -0.66034084269058      0.15667053430832      0.39515842236705
  C   0.35027757298283     -0.49026633567469     -0.55404667218084
  H   -0.76945223973645     -0.42759102365899      1.31131105139413
  H   0.36237554619051      0.08984156625432     -1.48067534986365
  H   -0.02116226034476     -1.49268538604615     -0.78793575603720
  N   -2.01802110095958      0.12519219640971     -0.26582627558823
  O   -2.24102461309856      0.97316301539811     -1.12173332015705
  O   -2.75664432069588     -0.79515233843086      0.06947656335222
  C   -0.30797184785650      1.53575099533359      0.71798624488978
  N   0.02753533597359      2.62675432943479      0.99259423463482
  C   1.74052032124444     -0.55937174566852      0.06686843780512
  H   2.43204942270020     -1.05870758605616     -0.61400957015877
  H   1.72820479637639     -1.12299391201436      1.00303773092656
  H   2.13365422991434      0.43839569041088      0.27179425861605
