14
Coordinates from ORCA-job run
  C   -0.78950422674555      0.12731159077138      0.59720452717830
  C   0.43130965385757     -0.78733990131136      0.45832244727620
  H   -1.51255023277814     -0.29842531549683      1.29726141346850
  H   0.91273937811148     -0.83218367811551      1.43964116986017
  H   0.05846339711583     -1.78887759620490      0.22913573009414
  N   -1.50321514568779      0.16198017745114     -0.73681318144828
  O   -1.40092498904497      1.16832365066066     -1.42819949873556
  O   -2.08815760042023     -0.87445129097980     -1.03239251494660
  C   -0.43136031143174      1.48052568903987      1.00940281790553
  N   -0.10438464010248      2.53946875601785      1.39660447242238
  C   1.41403436954473     -0.31046485138168     -0.60417323997686
  H   1.75601568729397      0.70712533422727     -0.40382627123252
  H   2.28868496380193     -0.96308779863806     -0.62037214663441
  H   0.96884969648542     -0.32990476604000     -1.60079572523099
