14
Coordinates from ORCA-job run
  C   -0.65348591904637      0.11723604822923      0.41808045063452
  C   0.34668313736955     -0.44589555894324     -0.59351448376615
  H   -0.73107943317696     -0.52783305538693      1.29582084023569
  H   0.32665356817740      0.19405157019109     -1.47970094321075
  H   -0.01166505938359     -1.43793728459432     -0.88500700423763
  N   -2.02497875799647      0.10312320357349     -0.21408161978657
  O   -2.74108852715728     -0.84923746922691      0.07786038135500
  O   -2.28056478645891      0.99930741356834     -1.00961472037270
  C   -0.31951479632694      1.47877434636827      0.82441536366069
  N   -0.00210988879659      2.55437130978222      1.17175727826417
  C   1.75181221556771     -0.52855324443155     -0.00894890656676
  H   2.43646066915491     -0.96600833468930     -0.73768912234100
  H   2.13115168125903      0.46054348516251      0.25537889949740
  H   1.77172589681450     -1.15494242960290      0.88624358663408
