14
Coordinates from ORCA-job run
  C   -0.66040342926148      0.14835931142985      0.39841054988155
  C   0.35289648170229     -0.48379766380212     -0.55794025863778
  H   -0.76057567959085     -0.44158059171091      1.31188778389383
  H   -0.00984950649473     -1.48859432409963     -0.79539414820725
  H   0.35578028975973      0.10137867713779     -1.48147162680006
  N   -2.01987081587678      0.10690163730499     -0.25811195667867
  O   -2.74835631977328     -0.82242141219154      0.07435051329083
  O   -2.25337416816283      0.95701669364549     -1.10916175246283
  C   -0.32055765293077      1.52918199876086      0.72710881909323
  N   0.00571220347293      2.62173140666071      1.00687337772329
  C   1.74614288965551     -0.54309718018073      0.05717279349434
  H   2.12961035285830      0.45685753062212      0.26974451090318
  H   1.74365074168583     -1.11568451526674      0.98792916751364
  H   2.44019461295614     -1.02825156831012     -0.63139777300729
