13
Coordinates from ORCA-job run
  C   0.90382055093549     -0.11804293681411     -0.06078759244623
  C   -0.46053294760847      0.49194578744352      0.27993102116311
  H   1.66905534529308      0.30125387481207      0.60412165244690
  H   -0.71570685392677      0.19391426990014      1.31118567238226
  H   1.14003721934021      0.17770056971958     -1.08537027551192
  N   0.78595464304397     -1.57357313871795      0.00134745062178
  H   0.98198991432589     -1.90473882194012      0.93730920153563
  H   1.44900848346098     -2.01113122603106     -0.62345777718109
  N   -1.42054527755042      0.04377199225704     -0.71794319583497
  H   -2.36409757673773      0.27888143685822     -0.43557480455833
  H   -1.33452722829480     -0.96629403746491     -0.76107243684527
  C   -0.36419055625878      1.95781324473467      0.27063475770085
  N   -0.26926571602264      3.12749898524291      0.27867632652727
