13
Coordinates from ORCA-job run
  C   0.85212695999119     -0.09170967792568     -0.08519765677639
  C   -0.50316832035551      0.44912239756520      0.40496123662862
  H   0.98429438860395      0.22352003145882     -1.12435714657654
  H   -0.64098515192293      0.12124594828721      1.44323673019152
  H   1.66568233727501      0.35370273209709      0.50408383092339
  N   0.80202932584574     -1.55096011959312     -0.03625083424520
  H   1.45916029241521     -1.95282065098000     -0.69110590586773
  H   1.05592952421409     -1.87876347722002      0.88730545777740
  N   -1.65213736938100     -0.02246709860131     -0.35749967309831
  H   -1.53580407903168     -1.02688973837544     -0.45278621761671
  H   -1.61965850062760      0.37554424674052     -1.29027595100853
  C   -0.47073690992122      1.91632991060274      0.41396805828878
  N   -0.39773249710526      3.08714549594399      0.38391807137969
