13
Coordinates from ORCA-job run
  C   0.88805004226539     -0.09584388388675     -0.18723845421667
  C   -0.43214522476267      0.48887958212245      0.32728602679115
  H   0.96373319340347      0.16671421114290     -1.24473596489855
  H   -0.52792120970805      0.22017303880972      1.39303944308601
  H   1.72707387474788      0.36980536775562      0.34452467405713
  N   0.82820103322470     -1.55067474332573     -0.05925404545635
  H   1.41125016689020     -1.99342628267304     -0.75595308984073
  H   1.16467741835911     -1.83937479305731      0.85035009432829
  N   -1.51024853201451     -0.01922466499293     -0.50792517588400
  H   -1.39900089342640     -1.02748245361418     -0.53338504686343
  H   -2.41084687252178      0.19909949405232     -0.09988781610000
  C   -0.38291681586087      1.95552795634158      0.25807693932454
  N   -0.32190618059646      3.12682717132536      0.21610241567260
