13
Coordinates from ORCA-job run
  C   0.97623437346716     -0.05244878985070      0.12972927954559
  C   -0.49973676274046      0.24699305503868      0.38533599184443
  H   1.57174639743713      0.35790198583634      0.94964244692276
  H   -0.79282656100118     -0.32198223221901      1.27240486439133
  H   1.27568277025265      0.47287708757034     -0.79274595469736
  N   1.13514940874339     -1.49810384879796      0.09372142184787
  H   2.09467910932447     -1.73988604106623     -0.11861779649624
  H   0.54352155027715     -1.86272976042053     -0.64277910920558
  N   -1.29065754473048     -0.24156803570619     -0.74294812212428
  H   -1.18254667989419      0.38647291614195     -1.53185534458786
  H   -2.27437822383400     -0.26145512496970     -0.50323023957752
  C   -0.69583509603391      1.68304414628802      0.66378533199008
  N   -0.86103274126774      2.83288464215498      0.83855723014678
