12
Coordinates from ORCA-job run
  C   0.75913254278456      0.18195978954531     -0.28912069303879
  C   -0.66021212578788     -0.32568544771417     -0.49492719130816
  Br  1.23102208026559      1.16759815045125     -2.02129335180973
  H   -0.64009223077407     -1.01399928370843     -1.35022419882697
  H   1.49184250929900     -0.62529873836686     -0.31156842302540
  H   -1.29336557983558      0.51972455621435     -0.78006394174910
  N   0.90975353688336      0.94140884582871      0.87536249085829
  H   1.82377773414190      1.36022657950773      0.96854162433621
  H   0.17991882895226      1.62932654675732      0.99664085548568
  N   -1.18591082398965     -0.89224886490828      0.74557855359149
  H   -0.54807370506274     -1.58990773294198      1.10926921539199
  H   -2.06679276687675     -1.35410440066494      0.55380506009448
