12
Coordinates from ORCA-job run
  C   0.48952703118643      0.50389428040129     -0.25475002624082
  C   -0.44220949317995     -0.54838394073892      0.31219434953826
  Br  -0.56274016004167      2.05083338286443     -0.86056293081465
  H   0.19164750224292     -1.35365586319806      0.70414212991077
  H   0.94093436898680      0.12715704874624     -1.17829906696553
  H   -0.97688021469079     -0.10182749065379      1.16120654520386
  N   1.40412157249485      0.96490692103402      0.76161636735263
  H   1.94691561102657      0.17732260161550      1.09956343947102
  H   2.04367317819653      1.65118906967792      0.38086243798902
  N   -1.28176405262353     -1.11425820298653     -0.73516149223735
  H   -1.97803412734929     -0.43297391115155     -1.01204781401285
  H   -1.77419121624886     -1.92320389561054     -0.37876393919437
