12
Coordinates from ORCA-job run
  C   0.61187513796565      0.33562114816246     -0.28643974184735
  C   -0.44142307585946     -0.57556982650126      0.30925778479597
  Br  -0.35268968880676      1.99452449914911     -0.98276076469699
  H   -0.90224990152109     -0.06353966126376      1.16902117268651
  H   1.01400196895795     -0.09822143661533     -1.19995600684024
  H   0.10301640943742     -1.44456607900616      0.69069156070873
  N   1.63667836931890      0.63624985674589      0.63099186828340
  H   1.28167842586134      1.09863702790076      1.45793085457539
  H   2.36714474012024      1.20206063084418      0.22163564762924
  N   -1.37764621511574     -1.02742327858504     -0.70779455691982
  H   -2.00223630633748     -0.27211230384934     -0.96064600069752
  H   -1.93914986402099     -1.78566057698151     -0.34293181767732
