13
Coordinates from ORCA-job run
  C   0.53980428543574     -0.43985620503423     -0.75853529152990
  C   -0.53384443017274      0.55812014394502     -0.33394919194192
  H   0.05232721118341     -1.25802110367552     -1.29701524587433
  H   -1.18603588368202      0.83332921205252     -1.17107566002977
  H   1.19765401070186      0.07797076048337     -1.46136714270976
  N   1.28124972016776     -0.85757058606888      0.41743066614264
  H   2.26633993215500     -0.95620744997955      0.22334520998362
  H   0.92795534313006     -1.73407084163775      0.77386928995589
  C   0.04430974636112      1.76390626597563      0.24891550412023
  N   0.53504084783085      2.75448038345678      0.64279517894082
  N   -1.46749621764585     -0.08917152905299      0.67662102652642
  O   -2.04279443722309      0.64987001163946      1.46301011577264
  O   -1.61551012824210     -1.30277906210386      0.57695554064343
