13
Coordinates from ORCA-job run
  C   0.38035342011264     -0.47334883179087     -0.81617002660826
  C   -0.51568203885945      0.63173369716701     -0.25420336298595
  H   1.00410676620784     -0.02962349568739     -1.60428452995141
  H   -1.15212556269986      1.05669609076245     -1.03598645805491
  H   -0.27510946587470     -1.21270537934920     -1.27797024806587
  N   1.10318244155778     -1.08597897885411      0.28222230247933
  H   1.94787300941303     -0.57394249206514      0.50073524644306
  H   1.35513955770311     -2.03946173930138      0.06481082016342
  C   0.27349556836509      1.67948513820802      0.38366614784341
  N   0.97481281876756      2.51082033471835      0.82547324657303
  N   -1.46443634683714      0.00434674949529      0.74586967331816
  O   -1.44237189268968      0.39898172192067      1.90237369312120
  O   -2.18923827516622     -0.86700281522370      0.28046349572480
