13
Coordinates from ORCA-job run
  C   0.36262882297396     -0.78289075984127     -0.13355687609974
  C   -0.45164352118569      0.52324623817195     -0.07915562469380
  H   -0.30306653610044     -1.57067026677653     -0.50255011680986
  H   -0.73758984655355      0.82543894817117     -1.08635912250342
  H   0.64879013504569     -1.03786746100150      0.89067985925938
  N   1.51246624887236     -0.56743489254018     -0.98850261197054
  H   2.38345639673626     -0.72811904544679     -0.50760409506062
  H   1.47974535185437     -1.13246809808895     -1.82373871865174
  C   0.29457346066443      1.58257420414983      0.58770533919097
  N   0.92545412132175      2.41773405267307      1.11881823596865
  N   -1.73143829985985      0.24814574220233      0.66408699412612
  O   -1.66108554620210      0.18493278597495      1.88734501893236
  O   -2.72329078756721      0.03637855235192     -0.02716828168777
