13
Coordinates from ORCA-job run
  C   0.91327185249823     -0.18191938962439     -0.25690751041048
  C   -0.41926275624900      0.55550156879053     -0.26526457218064
  H   1.51904424162147      0.25480583090012     -1.05531859199064
  H   -0.93754142800713      0.38814601705705     -1.21073069028942
  H   1.42036883175761      0.01028715621657      0.69422021168133
  N   0.65802854146681     -1.58566946403148     -0.54094697791770
  H   1.43671949296351     -1.99689103544575     -1.03564437275339
  H   0.52956318424385     -2.09550363296221      0.32257191218583
  C   -0.28096642391372      1.98455509826336      0.00219315795992
  N   -0.11822583228883      3.12895815648637      0.20838954428812
  N   -1.34752429415049     -0.02136941117691      0.78888857246534
  O   -0.82854819902432     -0.56113773862096      1.76058332336280
  O   -2.54592721091801      0.12223684414771      0.58696599359892
