13
Coordinates from ORCA-job run
  C   0.84510649503024     -0.20584096151426     -0.41977479733929
  C   -0.54229291789938      0.41092975124688     -0.30099061951196
  H   1.52613412867897      0.31809420903468      0.25860553418240
  H   -1.23746348599029     -0.09000193248410     -0.97653545594775
  H   1.18395252634833     -0.02362784050934     -1.44302633441872
  N   0.72867702853092     -1.63667164914255     -0.18436708815250
  H   0.87677083367969     -1.83965989012333      0.79501591718525
  H   1.41924016443279     -2.14406178066998     -0.71915321013848
  C   -0.54563771496798      1.85290651620111     -0.53281340338158
  N   -0.50132714651759      3.00797579487054     -0.73932998985155
  N   -1.11066192242036      0.16746311531225      1.08564384720492
  O   -2.33123169778671      0.17084707847467      1.17484199780727
  O   -0.31026629111861      0.00964758930344      2.00188360236199
