13
Coordinates from ORCA-job run
  C   0.46207746330251     -0.75949371445782      0.02696734549545
  C   -0.57161937094795      0.35159145160147     -0.20262987736883
  H   0.77230901111838     -0.72632524038001      1.07959258268316
  H   -0.97932020282155      0.27029549245489     -1.21026200273976
  H   -0.04381655526186     -1.71086247886293     -0.15451255656913
  N   1.52819235232835     -0.58322004082507     -0.94356026889249
  H   2.21576880428155      0.07686696199716     -0.60298110865723
  H   1.99751676165061     -1.46068282712219     -1.12018380942015
  C   0.01953478668826      1.66744132657179      0.00992785116547
  N   0.55657761432687      2.70115853154033      0.15519756196457
  N   -1.71582886773665      0.13526636163592      0.75140723565799
  O   -1.59685684365204      0.58244026370705      1.88695196244175
  O   -2.64353495327649     -0.54447608786059      0.32308508423920
