14

C	-0.438692	-0.034699	-1.437095
C	0.0	0.0	0.0
Cl	-2.244284	-0.125571	-1.563028
H	1.092649	0.0	0.0
H	-0.353102	-0.908371	0.491833
H	-0.387808	0.874314	0.517301
N	-0.102863	1.292811	-2.124262
O	0.112268	1.260495	-3.333069
O	-0.122446	2.305813	-1.43487
C	0.182803	-1.171498	-2.210213
H	-0.141196	-1.170688	-3.248611
H	-0.108444	-2.109719	-1.735179
H	1.270157	-1.07056	-2.149674
Cl	3.504356	0.0	0.0
