15

C	-0.287078	-0.018769	-1.520577
C	0.0	0.0	0.0
F	0.030008	1.281231	-1.98422
H	1.098274	0.0	0.0
N	0.483889	-1.024572	-2.119561
H	1.454409	-0.951567	-1.810549
H	0.423073	-1.004489	-3.129357
C	-1.726644	-0.173981	-1.81845
N	-2.883986	-0.260578	-1.997285
C	-0.497132	-1.237432	0.601784
N	-0.932853	-2.201757	1.110664
N	-0.493733	1.15003	0.720683
H	-1.484249	1.286717	0.547616
H	0.013359	1.965771	0.401858
Br	3.46267	0.0	0.0
