15

C	-0.529088	0.018272	-1.438803
C	0.0	0.0	0.0
F	-0.231069	-1.17999	-2.052476
H	1.094392	0.0	0.0
N	-1.953209	0.179315	-1.423676
H	-2.150684	0.974059	-0.823575
H	-2.293381	0.376649	-2.357804
C	0.146641	1.089113	-2.217541
N	0.556336	1.996205	-2.841516
C	-0.494555	-1.198041	0.674717
N	-0.912289	-2.116668	1.275303
N	-0.453503	1.231919	0.672851
H	-0.921129	1.008543	1.541704
H	0.376191	1.769295	0.900654
Br	3.410326	0.0	0.0
