15

C	-0.568235	0.00969	-1.432687
C	0.0	0.0	0.0
F	-0.148426	-1.13458	-2.070473
H	1.099129	0.0	0.0
N	-2.006746	0.045756	-1.515519
H	-2.314666	0.865106	-1.003016
H	-2.363873	-0.778326	-1.041382
C	-0.042328	1.191226	-2.15151
N	0.317359	2.14409	-2.73346
C	-0.500033	-1.196398	0.671183
N	-0.978739	-2.135123	1.191603
N	-0.474157	1.230174	0.660271
H	-0.896192	1.016996	1.555116
H	0.344527	1.801006	0.84049
Br	3.412438	0.0	0.0
