14

C	-0.277491	0.083369	-1.501086
C	0.0	0.0	0.0
F	-0.050501	-1.175302	-2.058673
H	1.093877	0.0	0.0
H	-0.329389	0.926198	0.482317
C	-1.681956	0.421089	-1.822839
N	-2.791513	0.713044	-2.077299
C	0.71208	1.054767	-2.121969
H	0.688937	0.964448	-3.210111
H	1.690711	0.792298	-1.697052
H	0.466185	2.080878	-1.839677
C	-0.625823	-1.140838	0.635026
N	-1.131502	-2.059038	1.166279
F	2.606826	0.0	0.0
