14

C	-0.273084	0.060956	-1.50411
C	0.0	0.0	0.0
F	-0.06265	-1.211977	-2.038929
H	1.093888	0.0	0.0
H	-0.329264	0.933456	0.468024
C	-1.672003	0.413229	-1.834285
N	-2.776961	0.718951	-2.094457
C	0.726161	1.007808	-2.144182
H	0.70378	0.89525	-3.229572
H	1.700199	0.742259	-1.711834
H	0.492059	2.04359	-1.883034
C	-0.631028	-1.130584	0.648918
N	-1.143708	-2.038206	1.192449
F	2.607663	0.0	0.0
