14

C	-0.277911	0.072833	-1.50288
C	0.0	0.0	0.0
F	-0.082132	-1.197843	-2.047174
H	1.093844	0.0	0.0
H	-0.327478	0.931173	0.473929
C	-1.672692	0.445803	-1.825724
N	-2.769999	0.781873	-2.078525
C	0.731755	1.014934	-2.136533
H	0.6974	0.921621	-3.224709
H	0.509526	2.047742	-1.855922
H	1.70683	0.733376	-1.714836
C	-0.629717	-1.133327	0.6428
N	-1.139611	-2.045205	1.180819
F	2.611474	0.0	0.0
