14

C	-0.258918	0.050303	-1.509428
C	0.0	0.0	0.0
F	0.019421	-1.230473	-2.000115
H	1.093881	0.0	0.0
H	-0.418541	-0.918625	0.416874
C	-1.66772	0.319702	-1.871207
N	-2.782602	0.5423	-2.168186
C	0.709668	1.022826	-2.156439
H	0.682813	0.916092	-3.242909
H	0.451522	2.049272	-1.884056
H	1.692109	0.774355	-1.732936
C	-0.524898	1.168757	0.67481
N	-0.948295	2.12242	1.21684
F	2.603782	0.0	0.0
