14

C	-0.287982	0.061203	-1.499658
C	0.0	0.0	0.0
F	-0.013894	-1.191009	-2.050515
H	1.09393	0.0	0.0
H	-0.331229	0.932417	0.468028
C	-1.706779	0.33871	-1.812093
N	-2.832097	0.573687	-2.059196
C	0.660609	1.066804	-2.127971
H	0.377002	2.082671	-1.843078
H	1.648507	0.835291	-1.711927
H	0.638661	0.976756	-3.214761
C	-0.617158	-1.134606	0.653374
N	-1.111904	-2.05125	1.197772
F	2.605911	0.0	0.0
