14

C	-0.430595	-0.036577	-1.460079
C	0.0	0.0	0.0
F	-0.006113	1.159449	-2.042402
H	1.093064	0.0	0.0
H	-0.361905	0.942518	0.424609
C	0.243689	-1.139579	-2.179299
N	0.675961	-2.035019	-2.803164
C	-1.930169	-0.12946	-1.692698
H	-2.411944	0.709652	-1.184866
H	-2.323562	-1.063357	-1.288733
H	-2.149246	-0.075537	-2.761727
C	-0.55282	-1.116776	0.735601
N	-1.006119	-2.025448	1.330044
F	2.529188	0.0	0.0
