12

C	-0.461081	0.006297	-1.448215
C	0.0	0.0	0.0
Cl	-2.264037	0.113312	-1.549715
H	1.10069	0.0	0.0
H	-0.079839	0.904913	-1.934163
H	-0.356094	-0.91697	0.486141
C	-0.046171	-1.181868	-2.188791
N	0.255559	-2.145733	-2.787451
N	-0.432171	1.235793	0.643616
H	-1.273741	1.095479	1.185975
H	0.307226	1.541491	1.261811
Br	3.570531	0.0	0.0
