12

C	-0.530016	-0.011972	-1.440108
C	0.0	0.0	0.0
Cl	0.002836	-1.469438	-2.329479
H	1.09488	0.0	0.0
H	-1.623967	-0.056487	-1.425158
H	-0.344803	-0.921068	0.479798
C	-0.164847	1.197468	-2.176668
N	0.054075	2.204332	-2.737775
N	-0.457069	1.15912	0.748278
H	-1.430285	1.377688	0.568045
H	0.110505	1.96303	0.513613
Br	3.636883	0.0	0.0
