12

C	-0.577413	-0.009285	-1.40642
C	0.0	0.0	0.0
Cl	0.037962	-1.399699	-2.358701
H	1.098616	0.0	0.0
H	-1.656884	-0.158074	-1.331218
H	-0.3488	0.923944	0.474436
C	-0.313284	1.229217	-2.134139
N	-0.136333	2.230837	-2.718407
N	-0.56565	-1.141287	0.735704
H	-0.024651	-1.958683	0.470313
H	-0.353781	-0.994575	1.716529
Br	3.636339	0.0	0.0
