19
Coordinates from ORCA-job run
  C   0.60614798026894     -0.28673331642316     -0.62594239675828
  C   -0.82156757886898      0.00542139363188     -0.13614752676820
  Br  0.54241177119580     -2.15266387914607     -1.51397356277991
  H   -1.47271618404964     -0.10329834864749     -1.01378409722622
  N   1.00710516341617      0.67916016539208     -1.57834358503663
  H   0.34853651685701      0.74380413145798     -2.34556522898892
  H   1.92638891013065      0.47840100036424     -1.95178871751071
  C   1.64951770715172     -0.41013768427016      0.46799289712721
  H   2.62814595484120     -0.62248397505640      0.03198646354192
  H   1.41064642816767     -1.21578297890075      1.15989178462350
  H   1.71318165303855      0.53541102633699      1.01259943105353
  C   -0.93924801144358      1.44869781618221      0.36794110772200
  H   -0.63179259888831      2.17202416968298     -0.38596018248211
  H   -0.32522577107590      1.60523640409687      1.25871355018473
  H   -1.97727097525715      1.65139020336845      0.64550422031464
  C   -1.31355049729522     -0.95659163742726      0.94169966467965
  H   -2.37021544998287     -0.76517789317160      1.14529593405786
  H   -1.21122863910313     -1.99930784083598      0.64147539381737
  H   -0.77026637910292     -0.80636875663481      1.87840485042856
