19
Coordinates from ORCA-job run
  C   0.60741188127938     -0.17711144588338     -0.56462367654517
  C   -0.50500935312789      0.36688499217634      0.34538568444364
  Br  -0.13500929817529     -1.52815667908335     -1.81328448366090
  H   -0.00489323122044      1.17096887032500      0.91084256739594
  N   1.08916889329244      0.90644969093406     -1.40182873322142
  H   1.83935785186446      0.57722100896684     -1.99969078507552
  H   1.46059891490463      1.63802256938703     -0.80226668403261
  C   1.71355776293620     -0.88323770839767      0.21297033209621
  H   2.11820598695277     -0.18966679883229      0.95968860554128
  H   2.52000573275376     -1.16955383229059     -0.46569350254858
  H   1.36309404791018     -1.78198220702427      0.71995474314260
  C   -1.02522713270811     -0.65131307974833      1.35644961166953
  H   -0.25845823539558     -0.97317988893362      2.06327939854973
  H   -1.84007500195265     -0.20861697337056      1.93486714634954
  H   -1.41937311574486     -1.53333377525072      0.84550881117617
  C   -1.65932797923571      0.99392443812398     -0.43386488164991
  H   -1.29253125099903      1.63037436518917     -1.23833312894077
  H   -2.27734978370940      1.59307549403219      0.24066770916916
  H   -2.29214668962486      0.21823095968017     -0.87002873385894
