19
Coordinates from ORCA-job run
  C   0.58598695372723     -0.27713597557607     -0.64004434317946
  C   -0.76520189984814     -0.24887955247397      0.09741819717954
  Br  0.31492160807430     -1.19752522997462     -2.38376395591734
  H   -1.12370421986545     -1.28487406640341      0.11097475450711
  N   1.01111055698165      1.06868029015243     -0.96417354965441
  H   1.11014235900592      1.59876191952208     -0.10406576622080
  H   1.91474433740214      1.04641625839904     -1.42397936985401
  C   1.63882010014210     -1.10651833367662      0.08974201003576
  H   2.52659255991046     -1.22304918480347     -0.53505986950442
  H   1.26367446445798     -2.10135337707211      0.34190490042128
  H   1.93570710663535     -0.59404933522780      1.00891872815601
  C   -1.80600583776717      0.61804183612988     -0.60708209320716
  H   -1.51555322037721      1.66956480705349     -0.58688860942930
  H   -2.77136920191029      0.51539662952038     -0.10373993373687
  H   -1.93091961230474      0.32637965824288     -1.64963626964794
  C   -0.61041992649402      0.20606605305438      1.55431758655392
  H   0.02224665023508     -0.46129973101423      2.14115849658014
  H   -0.20606799748911      1.22072984447516      1.62631398115619
  H   -1.59470478051608      0.22464748967259      2.02868510576177
