19
Coordinates from ORCA-job run
  C   0.63028918147131     -0.25015724337010     -0.55195263688184
  C   -0.74955059161321     -0.24992623452069      0.12170685983249
  Br  0.37138153908711     -1.22944295003633     -2.36165725108158
  H   -1.12398904788863     -1.27695236573348      0.05827771596806
  N   1.11564613304975      1.05999938051511     -0.74842114399601
  H   0.50863598283391      1.61335984877894     -1.33850498695670
  H   2.04840481938586      1.06067890840598     -1.14159691648780
  C   1.66475585057696     -1.09232002694070      0.17249664570248
  H   2.56530991324145     -1.19821170726155     -0.43564438930641
  H   1.93410681350142     -0.60390245516536      1.11145161223306
  H   1.27561436532810     -2.09017442403816      0.37789745687092
  C   -1.74827956877488      0.67374244696110     -0.57303435351537
  H   -1.79170552234515      0.49193824671595     -1.64828774125489
  H   -1.49950077454747      1.72425816210294     -0.39528528425817
  H   -2.74847790018270      0.50860949540129     -0.16544670734191
  C   -0.62732737085603      0.13775380069715      1.59920656491099
  H   -1.62498064735129      0.23512970814927      2.03556408742488
  H   -0.11352564082047      1.09614579402945      1.70136387400118
  H   -0.08780753409604     -0.61152838469079      2.18086659413661
