19
Coordinates from ORCA-job run
  C   0.49691093616193     -0.42543905966803     -0.68583419080010
  C   -0.86911154366972     -0.06966539372914     -0.07505399598149
  Br  0.38849297802912     -2.27396440718252     -1.39533522688462
  H   -1.60536776696850     -0.32306405828845     -0.84516156993459
  N   0.72701773804350      0.41248375907256     -1.85522770767275
  H   0.97676131165155      1.34483821269337     -1.53842501787929
  H   1.51799347376610      0.05192537892924     -2.37827004226995
  C   1.64726318845002     -0.41555810625564      0.31539359290330
  H   1.74062640825873      0.58462362307491      0.75201767982996
  H   1.50529730820698     -1.13651310900916      1.12098051559900
  H   2.58310538583112     -0.65278646161633     -0.19464209700313
  C   -0.98534176360431      1.43455101818910      0.19317683058494
  H   -0.21659413192268      1.78747992994496      0.88744050369393
  H   -0.93087095495934      2.01538685026633     -0.72858739112542
  H   -1.95406635915028      1.64587234337792      0.65301777953466
  C   -1.18595889862941     -0.85136866031707      1.19731365118603
  H   -2.22989092069463     -0.68958647245767      1.47804026278215
  H   -1.03868049091784     -1.92440265878914      1.06472758233566
  H   -0.56758589788235     -0.51581272823525      2.03442884110172
