19
Coordinates from ORCA-job run
  C   0.67704388594184     -0.16363413209710     -0.47424488255636
  C   -0.46723597568406      0.35240341077706      0.41056917568627
  Br  -0.06994856991834     -1.67444704842751     -1.66307065533770
  H   0.04030413584973      1.07604742203130      1.06474548836025
  N   1.20033159408800      0.88243408488482     -1.27148410658086
  H   1.99292302073766      0.56776554155829     -1.81716177442140
  H   0.50905971241819      1.26883898118593     -1.89991192569799
  C   1.80537283635242     -0.80991607914310      0.31058818125992
  H   2.19903536292810     -0.07846942655264      1.02279459849942
  H   1.47406297878729     -1.69769800250517      0.84419831746599
  H   2.61085128481338     -1.10956044619647     -0.36366360846513
  C   -1.10956816803383     -0.71299932861937      1.29546476115249
  H   -1.80321201493050     -0.23166715186330      1.98987830905844
  H   -1.67228232499719     -1.43332862191545      0.69948352434966
  H   -0.37776521029329     -1.25853494762809      1.89308148735098
  C   -1.53978547608816      1.11020069965860     -0.37061911279338
  H   -1.14803501476366      2.01603840692408     -0.83827122607071
  H   -1.98469201324704      0.47418901901102     -1.13971714088352
  H   -2.33646004396055      1.42333761891711      0.30834058962366
