14

C	0.0	0.0	0.0
C	-0.522719	0.028074	-1.455574
Cl	1.843758	0.0	0.0
H	0.24619	-0.441398	-2.080979
H	-0.222708	0.932103	0.520131
N	-0.495593	-1.128971	0.681428
H	-0.923361	-1.79414	0.054382
H	0.126416	-1.515448	1.368475
C	-0.591073	1.440331	-1.90318
N	-0.633533	2.550057	-2.286961
N	-1.746561	-0.742452	-1.552463
H	-2.091219	-0.708617	-2.506179
H	-2.53868	-0.369953	-0.899641
H	-3.651104	0.0	0.0
