14

C	0.0	0.0	0.0
C	-0.579553	-0.037518	-1.410479
Cl	1.773751	0.0	0.0
H	-1.662171	-0.223022	-1.209642
H	-0.28475	0.972533	0.422048
N	-0.513769	-1.141017	0.706152
H	-1.541497	-1.000937	0.668736
H	-0.227094	-1.086492	1.680617
C	-0.032648	-1.131856	-2.200705
N	0.340547	-1.997141	-2.901994
N	-0.375517	1.252084	-2.089023
H	-0.58563	1.125169	-3.072728
H	-1.108616	1.861421	-1.726216
H	-3.044233	0.0	0.0
