14

C	0.0	0.0	0.0
C	-0.355733	0.097565	-1.527824
Cl	1.785215	0.0	0.0
H	0.413684	-0.492959	-2.036779
H	-0.293583	0.916001	0.522094
N	-0.558275	-1.20953	0.529926
H	-1.579619	-1.036657	0.50265
H	-0.301688	-1.278583	1.511034
C	-0.145867	1.493869	-1.956627
N	0.014611	2.605273	-2.298994
N	-1.644001	-0.372965	-1.980191
H	-2.38191	-0.104363	-1.286232
H	-1.611633	-1.386729	-1.946211
H	-3.254782	0.0	0.0
