16

C	0.0	0.0	0.0
C	-0.302015	0.113048	-1.550003
Cl	1.841433	0.0	0.0
H	0.598417	0.549534	-1.985115
C	-0.332351	1.285381	0.654188
N	-0.488681	2.318629	1.193331
N	-0.581032	-1.143071	0.581117
H	-0.416289	-1.113497	1.582713
H	-1.626172	-0.903346	0.411935
C	-1.459894	0.986713	-2.047259
H	-1.388746	1.03955	-3.13842
H	-1.345942	1.991942	-1.640207
H	-2.402088	0.579792	-1.688772
C	-0.384418	-1.234052	-2.113073
N	-0.419068	-2.261999	-2.678377
F	-2.757631	0.0	0.0
