16

C	0.0	0.0	0.0
C	-0.260782	0.004416	-1.565868
Cl	1.787545	0.0	0.0
H	0.523924	0.653157	-1.968216
C	-0.373374	1.3339	0.529507
N	-0.604053	2.40488	0.955949
N	-0.625102	-1.096987	0.629094
H	-1.667818	-0.836153	0.455077
H	-0.443337	-1.046907	1.628326
C	-1.571946	0.52125	-2.16059
H	-1.444955	0.543955	-3.249147
H	-1.753378	1.535241	-1.799799
H	-2.419819	-0.071531	-1.836314
C	0.032648	-1.34197	-2.071772
N	0.231377	-2.393121	-2.558096
F	-2.835064	0.0	0.0
