16

C	0.0	0.0	0.0
C	-0.423146	0.247272	-1.51
Cl	1.797183	0.0	0.0
H	0.492816	0.231949	-2.110186
C	-0.363825	1.165993	0.824404
N	-0.486441	2.137898	1.47181
N	-0.491121	-1.180833	0.63873
H	-0.255187	-1.975156	0.051491
H	-1.527761	-0.988636	0.553821
C	-1.157348	1.569214	-1.761349
H	-0.537858	2.416265	-1.456549
H	-2.072834	1.518114	-1.175244
H	-1.378227	1.666803	-2.829852
C	-1.212025	-0.884223	-2.003665
N	-1.713266	-1.799919	-2.545192
F	-2.631473	0.0	0.0
