16

C	0.0	0.0	0.0
C	-0.519844	-0.009691	-1.464628
Cl	1.792133	0.0	0.0
H	-1.607579	0.152081	-1.263459
C	-0.373643	1.297314	0.604179
N	-0.569839	2.341708	1.103493
N	-0.532988	-1.039135	0.825017
H	-0.283236	-1.933919	0.417046
H	-1.566911	-0.859921	0.698724
C	-0.321586	-1.357757	-2.153401
H	0.72191	-1.684758	-2.118948
H	-0.958616	-2.102342	-1.674
H	-0.626035	-1.28729	-3.199954
C	0.047478	1.072138	-2.255567
N	0.507456	1.917913	-2.930903
F	-2.754295	0.0	0.0
