16

C	0.0	0.0	0.0
C	-0.513878	-0.102165	-1.462987
Cl	1.793608	0.0	0.0
H	-1.603905	0.06134	-1.278393
C	-0.374523	1.332903	0.517984
N	-0.558113	2.419096	0.923099
N	-0.535608	-0.98507	0.886844
H	-1.569265	-0.807532	0.74815
H	-0.292315	-1.90347	0.53123
C	-0.294846	-1.484024	-2.074276
H	0.754551	-1.788208	-2.029891
H	-0.606985	-1.479036	-3.120734
H	-0.912913	-2.214077	-1.549705
C	0.040619	0.93811	-2.316837
N	0.464914	1.747726	-3.056591
F	-2.752807	0.0	0.0
