16

C	0.0	0.0	0.0
C	-0.425808	0.189914	-1.497859
Cl	1.846593	0.0	0.0
H	0.496339	0.158022	-2.087028
C	-0.327852	1.194893	0.806616
N	-0.489399	2.121745	1.511637
N	-0.492759	-1.218022	0.536952
H	-1.535883	-1.018813	0.45288
H	-0.238074	-1.265063	1.519499
C	-1.136524	1.513772	-1.789405
H	-1.364888	1.573344	-2.857712
H	-2.051936	1.513632	-1.19754
H	-0.491572	2.356534	-1.527233
C	-1.220113	-0.939128	-1.991613
N	-1.751562	-1.802754	-2.583661
F	-2.627505	0.0	0.0
