16

C	0.0	0.0	0.0
C	-0.534485	0.265637	-1.422193
Cl	1.787881	0.0	0.0
H	-1.628474	0.337638	-1.202107
C	-0.35278	1.157288	0.862072
N	-0.561631	2.054606	1.591542
N	-0.551981	-1.2352	0.463566
H	-0.309672	-1.347337	1.443114
H	-1.585808	-1.005207	0.395623
C	-0.253975	-0.890877	-2.378209
H	0.818607	-1.060793	-2.499149
H	-0.713521	-1.793982	-1.981463
H	-0.686264	-0.667705	-3.356212
C	-0.034571	1.525842	-1.9544
N	0.342402	2.528377	-2.43964
F	-2.78075	0.0	0.0
