16

C	0.0	0.0	0.0
C	-0.246935	-0.070891	-1.56243
Cl	1.841724	0.0	0.0
H	0.565904	0.517974	-1.995554
C	-0.33903	1.361742	0.471044
N	-0.541917	2.445462	0.879102
N	-0.61691	-1.055872	0.686913
H	-1.665248	-0.807011	0.482183
H	-0.45773	-0.934926	1.683066
C	-1.535833	0.470289	-2.189607
H	-2.405195	-0.069928	-1.832398
H	-1.406431	0.423159	-3.277129
H	-1.672482	1.511016	-1.891711
C	-0.005805	-1.451742	-1.993362
N	0.20515	-2.528539	-2.412388
F	-2.808947	0.0	0.0
