17

C	-0.422126	0.108508	-1.452986
C	0.0	0.0	0.0
Cl	-0.312796	1.797876	-2.020834
H	1.107388	0.0	0.0
C	0.42905	-0.781712	-2.319731
H	0.1952	-0.644334	-3.374173
H	1.472524	-0.532182	-2.101016
H	0.251726	-1.817394	-2.0307
N	-1.904689	-0.264955	-1.601178
O	-2.253636	-0.829574	-2.633325
O	-2.653357	0.038276	-0.676081
N	-0.342861	-1.3374	0.47919
H	-1.16878	-1.314632	1.063692
H	0.448381	-1.664907	1.026111
C	-0.469682	1.069405	0.869958
N	-0.789013	1.88044	1.66032
H	2.652955	0.0	0.0
