17

C	-0.46529	0.0734	-1.448334
C	0.0	0.0	0.0
Cl	-2.235808	0.375256	-1.582405
H	1.093788	0.0	0.0
C	0.307974	1.130054	-2.201381
H	0.02293	2.113135	-1.822932
H	1.372464	0.964253	-2.007438
H	0.093311	1.08346	-3.270877
N	-0.1893	-1.297275	-2.066525
O	-1.089468	-2.123155	-2.126419
O	0.969227	-1.469818	-2.430246
N	-0.387032	-1.225909	0.664315
H	0.368113	-1.480526	1.293419
H	-1.251686	-1.13317	1.180216
C	-0.402002	1.218972	0.699235
N	-0.728407	2.173143	1.305742
H	2.648957	0.0	0.0
