17

C	-0.407688	0.158177	-1.450061
C	0.0	0.0	0.0
Cl	-2.19972	0.197884	-1.654084
H	1.109222	0.0	0.0
C	0.235029	1.3769	-2.069608
H	1.315541	1.295719	-1.890533
H	-0.139277	2.277901	-1.58263
H	0.016271	1.419133	-3.13622
N	0.079955	-1.049101	-2.253341
O	-0.208632	-1.054704	-3.448917
O	0.7649	-1.887529	-1.682463
N	-0.495248	-1.225347	0.615751
H	0.321086	-1.739078	0.934062
H	-1.081416	-1.016885	1.412826
C	-0.402469	1.188364	0.737524
N	-0.714519	2.124523	1.378696
H	2.643376	0.0	0.0
