14

C	-0.363016	-0.013903	-1.447609
C	0.0	0.0	0.0
Cl	-2.128193	-0.243787	-1.802703
H	1.093677	0.0	0.0
H	0.163228	-0.806261	-1.973289
H	-0.315874	-0.977067	0.386614
N	0.047386	1.242465	-2.174284
O	-0.489454	2.298032	-1.85475
O	0.907411	1.114979	-3.041534
C	-0.566807	1.124986	0.849813
H	-1.652327	1.239373	0.758399
H	-0.326217	0.919517	1.896711
H	-0.099036	2.075259	0.591801
F	2.636268	0.0	0.0
