14

C	-0.383243	0.024098	-1.452977
C	0.0	0.0	0.0
Cl	0.070746	-1.443947	-2.337359
H	1.093138	0.0	0.0
H	0.08789	0.865216	-1.956092
H	-0.321054	0.968346	0.407674
N	-1.870918	0.253924	-1.623348
O	-2.212263	1.436981	-1.68601
O	-2.642932	-0.699604	-1.589829
C	-0.568753	-1.151991	0.809319
H	-0.239835	-2.107347	0.395724
H	-1.663105	-1.162094	0.865926
H	-0.17051	-1.088535	1.825313
F	2.643	0.0	0.0
