18

C	-0.428717	-0.005511	-1.477949
C	0.0	0.0	0.0
Br	0.445464	1.451267	-2.411556
H	1.096339	0.0	0.0
C	-0.089601	-1.305339	-2.177272
H	-0.615246	-2.133272	-1.702735
H	-0.367213	-1.254609	-3.231836
H	0.988765	-1.454726	-2.088677
N	-1.942414	0.231388	-1.51708
O	-2.627657	-0.767697	-1.299297
O	-2.37973	1.366044	-1.670253
C	-0.447988	-1.226888	0.657403
N	-0.804889	-2.194371	1.221698
C	-0.469296	1.218442	0.798598
H	-1.553022	1.230213	0.938333
H	0.01392	1.191368	1.776628
H	-0.160492	2.133561	0.293513
Br	3.409691	0.0	0.0
