14
Coordinates from ORCA-job run
  C   -0.71083887814670     -0.57381041395958      0.35211938081880
  C   0.37570464563649      0.43082952673367     -0.05038755332643
  Br  -0.01425230912235     -1.61905732205854      1.94352917604005
  H   0.53901184153841      1.10752439669731      0.79785705436140
  H   -0.82317108625512     -1.34320233114990     -0.41244240693828
  N   -1.94351057045923      0.05747994049417      0.59305037906706
  H   -2.69090892947429     -0.60009953011777      0.76750358410276
  H   -1.89566317663944      0.72727370214565      1.35013998873402
  C   -0.13657907347476      1.23262004513709     -1.16836285328541
  N   -0.51590205086236      1.89780196189217     -2.05836707189501
  C   1.70673119238564     -0.21278130999323     -0.45028300059639
  H   2.16187693198984     -0.71662912944114      0.40058412104708
  H   1.55082225434582     -0.94049858888802     -1.24999670867825
  H   2.39467920853803      0.55154905250811     -0.81494408945142
