14
Coordinates from ORCA-job run
  C   -0.47406190884586     -0.47135492598390      0.82453646718652
  C   0.63653609197739      0.37447135634390      0.19410071529375
  Br  -0.95501936567459      0.37199443747369      2.59751914062623
  H   1.38992277166622      0.57261449139220      0.96162096969486
  H   -0.06751556770622     -1.43800449493415      1.12262988960187
  N   -1.56177205189799     -0.64956917254675     -0.05228868389470
  H   -2.01705132123897      0.22722953141714     -0.27882995435552
  H   -2.24608449949113     -1.29821785585549      0.31238243175608
  C   0.08568671340836      1.65980411544398     -0.24176930790003
  N   -0.38506086549995      2.66022936398986     -0.63709109828325
  C   1.27746103045799     -0.36414142471837     -0.98719043187265
  H   2.08303984208671      0.23424320509926     -1.41612745826868
  H   1.69781196116105     -1.31240517749220     -0.64430344938336
  H   0.53410716959699     -0.56889344962918     -1.75618923020113
