14
Coordinates from ORCA-job run
  C   -0.65980885063937     -0.52260020383867      0.51148996011345
  C   0.43034627672832      0.42211644235876     -0.01393198355328
  Br  -0.01412156271445     -1.42784383394544      2.12079292848270
  H   0.64543288642527      1.13600024899851      0.78840329165075
  H   -0.81372816280652     -1.33680344332943     -0.20844789512995
  N   -1.83810550070788      0.22642065219354      0.87153804965373
  H   -2.22681098714258      0.66957811119239      0.04498924139429
  H   -2.54080458685538     -0.38936418550340      1.26200661320381
  C   -0.14397235098899      1.16818917158674     -1.13917316471878
  N   -0.62859844462648      1.72852662724218     -2.05079406181597
  C   1.70888617959021     -0.28892286345554     -0.46213644885064
  H   2.41336442324826      0.43119416324218     -0.88104026770024
  H   2.18124913088400     -0.78497936683736      0.38486006791447
  H   1.48567154960559     -1.03451151990447     -1.22855633064433
