14
Coordinates from ORCA-job run
  C   -0.71137351217676     -0.02007468893145      0.80987236147405
  C   0.61595024939214      0.34845369382953      0.13549684858157
  Br  -2.22644776205315      0.86345059006177     -0.17868664324323
  H   1.38403433202516     -0.08056739827458      0.79155793730490
  H   -0.76350879518378      0.44548451740859      1.79387332671571
  N   -0.84550605981024     -1.42304137025759      0.93797373250398
  H   -1.62736921220523     -1.66481941349676      1.53253382787908
  H   -0.97427904804865     -1.87407264202485      0.04143214481355
  C   0.81021102356382      1.79924191891919      0.13285873189793
  N   0.99934875320112      2.95787533038863      0.12404454634634
  C   0.79423439496531     -0.23007087109764     -1.26956218440211
  H   0.78190365257202     -1.32109497448868     -1.23520911630505
  H   1.75814806982259      0.07685544113321     -1.67801952369196
  H   0.00765391393566      0.12237986683064     -1.93716598987474
