14
Coordinates from ORCA-job run
  C   -0.66388867319183     -0.61955651710031      0.51848994611747
  C   0.37402034321709      0.39184594673400     -0.02057800679240
  Br  0.05206415362906     -1.39940523273937      2.17133539775269
  H   0.53680650366811      1.14754916541720      0.75759812522146
  H   -0.74959628945694     -1.45232267183720     -0.18379813764369
  N   -1.97367517233467     -0.10872543964588      0.78644588016427
  H   -1.93846847231430      0.72951138898741      1.35359350146934
  H   -2.46436286022510      0.08696394445672     -0.07786451637008
  C   -0.24528466571315      1.05721316482627     -1.17193326564031
  N   -0.76321505729102      1.54981104277771     -2.10394763283056
  C   1.71097577901017     -0.23061805032412     -0.42945988332972
  H   2.36347213547755      0.52443138748718     -0.87101490788898
  H   2.20952795952091     -0.65791767783495      0.43941811977409
  H   1.55262431600410     -1.01978045120466     -1.16828462000359
