14
Coordinates from ORCA-job run
  C   -0.49231257781400     -0.42213131782523      0.94660895012660
  C   0.61652271978057      0.38133193094559      0.23332508794635
  Br  -0.89629090977028      0.48237518373724      2.64546242303177
  H   1.42217644254507      0.57164189561065      0.94959225159755
  H   -0.07823698558435     -1.39101078901669      1.23437246442582
  N   -1.70248839908587     -0.63590636801263      0.22285762844083
  H   -2.06330385664507      0.21548986405370     -0.18929302715755
  H   -1.60605467920636     -1.36157133466570     -0.47373208854182
  C   0.08354758039035      1.67119439027496     -0.20706180338955
  N   -0.37942149078244      2.67169581910275     -0.61170212202736
  C   1.16791709705201     -0.40017377052607     -0.96436090953901
  H   0.39127228294518     -0.56867572424206     -1.71214670550664
  H   1.97981564775180      0.15186384551069     -1.44055399410640
  H   1.55785712842339     -1.36612362494721     -0.63336815530059
