14
Coordinates from ORCA-job run
  C   -0.67249573602226     -0.59088843240060      0.54312143050252
  C   0.38904129073955      0.37320040649464     -0.03398920688490
  Br  0.07203925551553     -1.41482482854131      2.16107158542713
  H   0.61784852696374      1.11682269915392      0.73938272375948
  H   -0.82718870648491     -1.41412991109170     -0.15861749196417
  N   -1.94424627232476     -0.01946367593562      0.86681532981946
  H   -1.84593036242949      0.81189461141139      1.43649684996463
  H   -2.46026994077066      0.20497811384842      0.02465246320114
  C   -0.24234915217516      1.07438375134496     -1.15717577686848
  N   -0.75473489201763      1.59783699710617     -2.07542479032002
  C   1.67797262319655     -0.30845593401324     -0.49863695399819
  H   2.19440030218672     -0.75640576758408      0.34919440099331
  H   2.34340563242681      0.41609422510147     -0.97087791845842
  H   1.45250743119597     -1.09104225489442     -1.22701264517347
