14
Coordinates from ORCA-job run
  C   -0.91761447949053     -0.04820013855295      0.66786231143123
  C   0.47213039272887      0.41337197505028      0.16808114342382
  Br  -2.29598827127301      0.53307604557063     -0.59231165044072
  H   1.17558180873392      0.07324707443249      0.94146833004020
  H   -1.14431652246081      0.47839406133094      1.59720400056660
  N   -1.06964161815547     -1.45621548375580      0.90003370960902
  H   -0.86728087002434     -2.00219570230473      0.07325650109833
  H   -0.48154205333930     -1.75969269228408      1.66695764037416
  C   0.54940298821964      1.87513806578013      0.14310907203489
  N   0.62129071180263      3.04703891498841      0.12753956978521
  C   0.90319708705709     -0.17765043601225     -1.17454728289898
  H   0.88171136744583     -1.26837388111459     -1.13818216744287
  H   1.92472945422089      0.12845230509509     -1.40520887474422
  H   0.24934000453459      0.16360989177643     -1.97626230283668
