14
Coordinates from ORCA-job run
  C   -0.50672285770791     -0.45404867665299      0.92432259946201
  C   0.60066736100715      0.39137546396995      0.25865455132496
  Br  -0.97959029601617      0.40473660275399      2.62942076542864
  H   1.38221217647088      0.58349524496973      1.00059379191761
  H   -0.07584011337567     -1.41793411615110      1.20398099731193
  N   -1.69025450414105     -0.68280035533937      0.16243978577197
  H   -2.05939345270392      0.16683591209630     -0.24582411819971
  H   -1.55761947170552     -1.39451100915489     -0.54239866532727
  C   0.04843957361556      1.67762645755334     -0.16805711722874
  N   -0.42835024423568      2.67521489016656     -0.56377261565052
  C   1.20141397132562     -0.34981037984968     -0.94101990850167
  H   0.45012168191409     -0.51339120232622     -1.71514701135263
  H   1.59980828190914     -1.31648045674512     -0.62277781431486
  H   2.01610789364348      0.22869162470950     -1.37941524064173
