14
Coordinates from ORCA-job run
  C   -0.83494040963815     -0.03127305359370      0.63325726946351
  C   0.57465510070391      0.32130888743030      0.13626892521599
  Br  -2.20184735297849      0.76145785550759     -0.51083617281705
  H   1.26183755305728     -0.19846005021399      0.82010343427863
  H   -1.00228335491489      0.44503246448486      1.60618509758364
  N   -1.00132849114317     -1.46848792160215      0.61887590086315
  H   -1.95628701878295     -1.71220315783021      0.85234154734046
  H   -0.39224086498767     -1.87813735118844      1.32053962240974
  C   0.82553490568934      1.75403476384084      0.30238974416355
  N   1.03427402475422      2.90217443953432      0.43065560334175
  C   0.86884745275008     -0.13897468949038     -1.29230256892228
  H   0.29453472051057      0.44503413043336     -2.01077970760822
  H   0.59886363123569     -1.18954174201811     -1.39412392499442
  H   1.93038010374423     -0.01296457529429     -1.51257477031844
