14
Coordinates from ORCA-job run
  C   -0.78439533520801     -0.01875720767926      0.73916049606789
  C   0.58878184833167      0.37372940826511      0.18037079836503
  Br  -2.22534263601607      0.78181382018290     -0.41761232366415
  H   1.30403862646793     -0.00729184303545      0.92040892302635
  H   -0.94499763830072      0.47514908896417      1.69723487671351
  N   -0.88656289100258     -1.42068732000168      0.90166356018526
  H   -0.91625564395479     -1.90364708089234      0.01313377940247
  H   -1.71266251408671     -1.67064017668760      1.42913408985939
  C   0.73744068802955      1.82962862579034      0.14558046662304
  N   0.89058098889311      2.99324560615148      0.11780318258148
  C   0.91817489161779     -0.24321746465551     -1.18035687255430
  H   1.90558473134152      0.08525847372199     -1.50783675034674
  H   0.93870200007008     -1.33221808130647     -1.10814060215396
  H   0.18691288381723      0.05863415118233     -1.93054362410526
