14
Coordinates from ORCA-job run
  C   -0.50187906052508     -0.43369685688042      0.93669040046093
  C   0.59881262689531      0.40163944273873      0.24739744125537
  Br  -0.97597150246203      0.46484698762707      2.62073303559083
  H   1.38072233216048      0.61701049331427      0.98240815450344
  H   -0.06441505501906     -1.38766097441900      1.23926752377173
  N   -1.68581790400505     -0.68887058123850      0.18379360600069
  H   -1.54944999932116     -1.41650216808707     -0.50392327702657
  H   -2.06119175273876      0.14807472063567     -0.24460822396264
  C   0.03692795160523      1.67258216174994     -0.21121124983115
  N   -0.44764389775976      2.65612787484858     -0.63178879392162
  C   1.20203019487168     -0.36566874141044     -0.93468180473204
  H   0.45027384525421     -0.55391628929073     -1.70276655725981
  H   2.01177555592038      0.20728542623937     -1.38923439789201
  H   1.60782666512360     -1.32125149582748     -0.59307585695713
