19

C	-0.503823	-0.002446	-1.417646
C	0.0	0.0	0.0
F	-1.889495	0.339424	-1.440214
H	1.092262	0.0	0.0
N	0.074184	1.119634	-2.292495
O	-0.20118	1.042835	-3.49243
O	0.72219	2.014805	-1.772618
N	-0.262706	-1.180606	-2.130611
H	-0.590488	-1.990182	-1.629175
H	-0.662255	-1.121401	-3.056701
C	-0.393833	-1.308675	0.690313
H	-1.464011	-1.53171	0.599614
H	-0.154811	-1.223169	1.752935
H	0.199695	-2.144318	0.310363
C	-0.516055	1.183298	0.813272
H	-1.584824	1.092054	1.032925
H	0.037184	1.207427	1.756281
H	-0.338553	2.132127	0.31077
H	2.925917	0.0	0.0
