19

C	-0.53327	-0.015467	-1.407456
C	0.0	0.0	0.0
F	0.017307	1.04243	-2.128063
H	1.092743	0.0	0.0
N	-0.088176	-1.224475	-2.240148
O	0.704973	-2.025116	-1.76736
O	-0.567209	-1.273274	-3.376069
N	-1.946692	-0.016697	-1.502213
H	-2.315645	0.761605	-0.97322
H	-2.212692	0.068359	-2.474476
C	-0.495294	-1.171235	0.838501
H	-0.164803	-2.122893	0.425749
H	-0.060213	-1.084053	1.837193
H	-1.586161	-1.180865	0.928341
C	-0.381535	1.326115	0.667291
H	-1.437209	1.375417	0.963945
H	-0.146672	2.175235	0.024061
H	0.225511	1.427669	1.568485
H	2.935401	0.0	0.0
