14

C	0.0	0.0	0.0
C	-0.263916	0.195728	-1.515516
Cl	1.776359	0.0	0.0
H	0.398174	-0.50807	-2.021654
H	-0.343967	0.865557	0.567337
N	-0.502248	-1.285441	0.385669
H	-0.254057	-1.447803	1.355798
H	-1.526281	-1.177606	0.348337
N	0.250078	1.558075	-1.937396
O	-0.011235	2.511417	-1.212852
O	0.876109	1.605181	-2.992446
C	-1.563118	0.048335	-2.181729
N	-2.293731	-0.041395	-3.100829
Cl	-3.364659	0.0	0.0
