14

C	0.0	0.0	0.0
C	-0.264328	0.014471	-1.529076
Cl	1.776213	0.0	0.0
H	0.402661	-0.740889	-1.9472
H	-0.336486	0.930594	0.459221
N	-0.506038	-1.22648	0.537788
H	-0.246153	-1.278482	1.517126
H	-1.529995	-1.118784	0.497832
N	0.239793	1.320023	-2.109209
O	-0.016354	2.349301	-1.494931
O	0.851088	1.248856	-3.171386
C	-1.560799	-0.22379	-2.17275
N	-2.289654	-0.450828	-3.069636
Cl	-3.365493	0.0	0.0
