14

C	0.0	0.0	0.0
C	-0.596743	0.173557	-1.388653
Cl	1.829894	0.0	0.0
H	-1.704943	0.102757	-1.190497
H	-0.285092	0.898995	0.546321
N	-0.516181	-1.123942	0.661034
H	-0.159214	-1.995824	0.308138
H	-0.474239	-1.05267	1.663653
N	-0.247652	-0.916396	-2.359023
O	0.069023	-2.011412	-1.901512
O	-0.360168	-0.65532	-3.552282
C	-0.257815	1.459009	-1.980475
N	0.010313	2.521578	-2.402358
Cl	-3.551253	0.0	0.0
