14

C	0.0	0.0	0.0
C	-0.400283	-0.125937	-1.508077
Cl	1.828393	0.0	0.0
H	0.498326	-0.042213	-2.126844
H	-0.318977	0.985319	0.328593
N	-0.455934	-0.985044	0.911144
H	-0.280358	-1.915422	0.548246
H	-1.470903	-0.849563	0.97271
N	-1.214717	1.044359	-2.022585
O	-0.972476	2.131537	-1.517987
O	-1.914266	0.836247	-3.001612
C	-1.018019	-1.400716	-1.82906
N	-1.354731	-2.502786	-2.057099
Cl	-3.266154	0.0	0.0
