14

C	0.0	0.0	0.0
C	-0.256369	0.144471	-1.518212
Cl	1.823638	0.0	0.0
H	0.475316	-0.498077	-2.009414
H	-0.317646	0.887892	0.546225
N	-0.484531	-1.271989	0.428997
H	-1.509953	-1.177538	0.384936
H	-0.238991	-1.401684	1.404472
N	0.121206	1.538863	-1.975891
O	-0.111848	2.476506	-1.22258
O	0.625492	1.620378	-3.092852
C	-1.524748	-0.186201	-2.176272
N	-2.223252	-0.503933	-3.068905
Cl	-3.327998	0.0	0.0
