15

C	0.049752	-0.065821	0.012029
C	-0.449563	0.123086	-1.417872
Cl	1.886074	0.250769	0.043989
H	-1.491363	-0.215751	-1.4221
H	0.137891	-0.530779	-2.068368
N	-0.593354	0.815784	0.904335
H	-0.535841	0.507846	1.865422
H	-1.575798	0.969959	0.635719
C	-0.035636	-1.491507	0.389518
N	-0.138842	-2.616727	0.71471
C	-0.401642	1.570572	-1.889866
H	-0.666909	1.611497	-2.949785
H	0.594228	1.999588	-1.763323
H	-1.130147	2.167988	-1.344092
Br	-3.801564	1.120119	-0.097099
