15

C	-0.019858	-0.066402	-0.009935
C	-0.53493	0.182015	-1.42781
Cl	1.794252	0.190593	-0.008994
H	-0.251974	1.209504	-1.682038
H	-1.627708	0.170727	-1.3404
N	-0.575594	0.783563	1.008504
H	-0.40077	1.745339	0.730907
H	-1.599529	0.67613	0.972937
C	-0.220382	-1.473453	0.373367
N	-0.370711	-2.608098	0.636147
C	-0.048139	-0.795489	-2.488019
H	-0.485509	-0.538231	-3.456045
H	-0.353617	-1.816735	-2.248336
H	1.03925	-0.77628	-2.588226
Br	-3.872796	0.885254	0.102345
