18

C	0.0	0.0	0.0
C	-0.203943	0.016018	-1.554579
F	1.390224	0.0	0.0
H	0.396492	-0.833998	-1.889395
C	-0.360087	1.229161	0.821576
H	-1.441594	1.335144	0.856262
H	0.054023	1.074831	1.826606
H	0.117068	2.098727	0.375391
C	-0.536025	-1.242239	0.5539
N	-0.579033	-2.305449	1.066033
N	0.585835	1.179555	-2.107204
O	0.104504	2.306787	-1.998447
O	1.643335	0.932404	-2.68634
C	-1.535681	0.017828	-2.273062
H	-1.320398	-0.007237	-3.355575
H	-2.122135	-0.847986	-1.982305
H	-2.130178	0.889312	-2.005425
H	-2.680329	0.0	0.0
