17

C	-0.554198	0.005162	-1.431985
C	0.0	0.0	0.0
Cl	0.139106	-1.312274	-2.400127
H	1.09323	0.0	0.0
N	-1.966007	-0.082911	-1.41745
H	-2.281872	0.650807	-0.788535
H	-2.331936	0.068822	-2.348321
N	-0.09481	1.29533	-2.167848
O	-0.773888	1.630348	-3.138044
O	0.892203	1.882571	-1.749375
N	-0.44496	-1.173359	0.72362
H	0.261038	-1.892521	0.64118
H	-1.31488	-1.517037	0.33536
N	-0.570684	1.200206	0.632956
H	0.123104	1.938106	0.574047
H	-0.678407	0.958792	1.610539
Br	3.625031	0.0	0.0
