17

C	-0.328623	-0.040266	-1.496829
C	0.0	0.0	0.0
Cl	-0.145714	1.598196	-2.258977
H	1.102969	0.0	0.0
N	0.464036	-1.038764	-2.085652
H	0.321661	-1.105682	-3.083973
H	1.443388	-0.865491	-1.857671
N	-1.802104	-0.367317	-1.738709
O	-2.06739	-1.165185	-2.633906
O	-2.620691	0.216785	-1.041848
N	-0.522148	-1.263219	0.557969
H	-0.129247	-1.33677	1.491753
H	-0.113175	-2.023143	0.020781
N	-0.486082	1.150778	0.697329
H	0.133417	1.356837	1.469088
H	-1.424558	0.973412	1.031328
Br	3.543459	0.0	0.0
