17

C	-0.630236	0.019198	-1.389495
C	0.0	0.0	0.0
Cl	0.173318	-1.265276	-2.436617
H	1.093501	0.0	0.0
N	-2.018166	-0.113119	-1.294328
H	-2.465285	-0.141841	-2.198243
H	-2.218691	-0.921954	-0.719503
N	-0.313205	1.308487	-2.127475
O	-1.164631	1.690835	-2.929472
O	0.765297	1.833299	-1.912702
N	-0.485282	-1.248371	0.642201
H	0.079597	-2.010806	0.275075
H	-0.222567	-1.168013	1.618854
N	-0.459874	1.179392	0.68898
H	-1.365029	1.026264	1.111581
H	0.225013	1.464156	1.374486
Br	3.588819	0.0	0.0
