17

C	-0.610384	0.005812	-1.41731
C	0.0	0.0	0.0
Cl	0.280774	-1.124114	-2.440395
H	1.095021	0.0	0.0
N	-2.002408	-0.304842	-1.481671
H	-2.089096	-1.224641	-1.061313
H	-2.486127	0.369313	-0.896583
N	-0.418562	1.411053	-1.988422
O	-1.426309	2.09078	-2.170537
O	0.737412	1.785637	-2.144573
N	-0.440537	-1.226913	0.640341
H	0.326023	-1.614074	1.174585
H	-1.221447	-1.028817	1.254255
N	-0.551764	1.167852	0.71255
H	-0.077363	1.999823	0.369576
H	-0.236863	1.073861	1.674082
Br	3.594946	0.0	0.0
