15

C	0.0	0.0	0.0
C	-0.599916	0.020451	-1.398942
Cl	1.793984	0.0	0.0
H	-0.342722	0.941391	-1.918693
H	-1.711309	-0.06642	-1.145582
C	-0.399966	1.272123	0.620821
N	-0.597487	2.309355	1.135366
C	-0.473613	-1.15454	0.881164
H	-0.112008	-2.097834	0.47769
H	-1.567676	-1.087397	0.848474
H	-0.084621	-1.014236	1.892265
N	-0.122221	-1.074799	-2.261907
O	-0.250024	-2.235976	-1.871762
O	0.3513	-0.766394	-3.360244
F	-2.821126	0.0	0.0
