15

C	0.0	0.0	0.0
C	-0.571447	0.197694	-1.403825
Cl	1.786271	0.0	0.0
H	-0.106907	1.054404	-1.896345
H	-1.668887	0.258046	-1.208413
C	-0.431665	1.123061	0.837012
N	-0.614929	2.024512	1.567803
C	-0.473521	-1.31852	0.607193
H	-0.107085	-1.400095	1.63289
H	-1.569402	-1.260062	0.5586
H	-0.062699	-2.147636	0.025511
N	-0.309824	-0.981141	-2.284042
O	0.858193	-1.310034	-2.502721
O	-1.286881	-1.550658	-2.76986
F	-2.796693	0.0	0.0
