15

C	0.0	0.0	0.0
C	-0.631031	-0.011069	-1.370095
Cl	1.792118	0.0	0.0
H	-1.751831	0.063807	-1.077631
H	-0.41096	-0.939432	-1.895163
C	-0.398413	1.168782	0.799161
N	-0.60301	2.056227	1.540393
C	-0.471594	-1.262141	0.726826
H	-0.107546	-2.143041	0.190993
H	-1.565768	-1.195436	0.712719
H	-0.076248	-1.275014	1.743908
N	-0.216413	1.083312	-2.257161
O	0.086912	2.167621	-1.760686
O	-0.238487	0.855786	-3.470219
F	-2.843495	0.0	0.0
