15

C	0.0	0.0	0.0
C	-0.630307	-0.018648	-1.37036
Cl	1.793325	0.0	0.0
H	-1.751175	0.053509	-1.076504
H	-0.404883	-0.947507	-1.892427
C	-0.399409	1.171748	0.794013
N	-0.604772	2.062789	1.530704
C	-0.46927	-1.25977	0.732382
H	-0.105109	-2.142232	0.199292
H	-1.563515	-1.195207	0.720515
H	-0.071838	-1.268616	1.748886
N	-0.22457	1.07521	-2.261867
O	0.072366	2.163792	-1.77037
O	-0.253786	0.844357	-3.474177
F	-2.841897	0.0	0.0
