15

C	0.0	0.0	0.0
C	-0.632445	0.075516	-1.366884
Cl	1.793846	0.0	0.0
H	-1.753791	0.130269	-1.06586
H	-0.412878	-0.817426	-1.950062
C	-0.397992	1.113313	0.874885
N	-0.584334	1.957108	1.669922
C	-0.466213	-1.309107	0.644097
H	-1.560255	-1.247959	0.637803
H	-0.068207	-1.386454	1.657386
H	-0.099487	-2.151989	0.051878
N	-0.224099	1.224677	-2.182863
O	0.06305	2.281556	-1.619475
O	-0.242791	1.071851	-3.408231
F	-2.841746	0.0	0.0
