15

C	0.0	0.0	0.0
C	-0.614921	-0.01194	-1.391018
Cl	1.7925	0.0	0.0
H	-0.374892	0.899161	-1.935291
H	-1.729743	-0.088632	-1.114814
C	-0.393455	1.291749	0.586003
N	-0.581622	2.344732	1.070922
C	-0.4714	-1.124139	0.922025
H	-0.087016	-0.943556	1.928547
H	-1.564962	-1.065931	0.887454
H	-0.102451	-2.079197	0.555364
N	-0.168636	-1.122998	-2.247081
O	0.144098	-0.846409	-3.40892
O	-0.175082	-2.268259	-1.794829
F	-2.827852	0.0	0.0
