15

C	0.0	0.0	0.0
C	-0.6425	-0.142285	-1.355382
Cl	1.796234	0.0	0.0
H	-1.766219	-0.046954	-1.054237
H	-0.427921	-1.114519	-1.796339
C	-0.396182	1.23936	0.684948
N	-0.614469	2.196356	1.329674
C	-0.467486	-1.186547	0.848104
H	-1.561072	-1.11906	0.834746
H	-0.065624	-1.101947	1.859208
H	-0.107915	-2.115232	0.397208
N	-0.261833	0.869039	-2.347127
O	0.069172	1.989914	-1.95833
O	-0.357064	0.545422	-3.534376
F	-2.850022	0.0	0.0
