17

C	0.0	0.0	0.0
C	-0.257456	0.010013	-1.553208
Br	1.911367	0.0	0.0
H	0.380585	0.821709	-1.920923
N	-0.507512	1.162759	0.669663
O	-0.62912	2.206612	-0.022245
O	-0.490218	1.139021	1.915928
N	-0.322246	-1.417586	0.854927
O	0.602706	-2.18737	1.042433
O	-1.475554	-1.603309	1.206719
C	-1.671217	0.246971	-2.096777
H	-1.588366	0.372799	-3.185089
H	-2.33099	-0.596484	-1.893243
H	-2.076513	1.159081	-1.662112
C	0.240686	-1.245711	-2.122832
N	0.534001	-2.260191	-2.640253
H	-1.661872	0.0	0.0
