17

C	0.0	0.0	0.0
C	-0.395888	0.033156	-1.496373
Br	1.899613	0.0	0.0
H	-1.426469	0.405337	-1.496377
N	-0.681241	1.048664	0.750678
O	-0.626384	0.924843	2.000866
O	-0.717034	2.161119	0.151555
N	-0.348782	-1.438839	0.732889
O	0.585104	-2.207601	0.907492
O	-1.501847	-1.683855	1.04649
C	-0.361818	-1.353207	-2.141295
H	0.638743	-1.789309	-2.074947
H	-0.637197	-1.279395	-3.196623
H	-1.076667	-2.008369	-1.639481
C	0.409606	0.962167	-2.295035
N	0.979636	1.649626	-3.059588
H	-2.077035	0.0	0.0
