15

C	-0.393332	0.013653	-1.448239
C	0.0	0.0	0.0
F	-1.787356	-0.045509	-1.626897
H	1.094229	0.0	0.0
H	0.032379	-0.858075	-1.944129
C	0.07181	1.239168	-2.113264
N	0.370062	2.218624	-2.686112
N	-0.405717	-1.313673	0.548655
O	-0.201924	-2.316133	-0.142455
O	-0.878234	-1.358637	1.688727
C	-0.552656	1.141341	0.818632
H	-1.645787	1.150301	0.847811
H	-0.17572	1.073122	1.837739
H	-0.193118	2.079818	0.390918
F	2.51	0.0	0.0
