15

C	-0.367076	0.035202	-1.453654
C	0.0	0.0	0.0
F	-1.756836	0.071319	-1.666018
H	1.094217	0.0	0.0
H	0.010423	-0.862343	-1.942247
C	0.199746	1.224578	-2.105995
N	0.587415	2.178867	-2.667932
N	-0.425448	-1.298408	0.557078
O	-0.35438	-2.297564	-0.1634
O	-0.776402	-1.33937	1.73808
C	-0.517137	1.160016	0.817323
H	-0.154589	2.086832	0.367348
H	-1.609096	1.187657	0.8726
H	-0.113381	1.100484	1.826359
F	2.505798	0.0	0.0
