15

C	-0.506601	0.095466	-1.431891
C	0.0	0.0	0.0
F	-0.382285	1.414948	-1.863938
H	1.09088	0.0	0.0
H	-1.566927	-0.165974	-1.512629
C	0.245325	-0.749009	-2.375994
N	0.774887	-1.393774	-3.200965
N	-0.463911	-1.270228	0.563863
O	-0.39391	-1.434566	1.782467
O	-0.876409	-2.141211	-0.218869
C	-0.441795	1.161453	0.865749
H	-0.040467	1.012401	1.866635
H	-1.533157	1.265935	0.925074
H	-0.011402	2.075064	0.458861
F	2.506265	0.0	0.0
