15

C	-0.435393	0.084315	-1.441062
C	0.0	0.0	0.0
F	0.090739	-0.913109	-2.2362
H	1.091072	0.0	0.0
H	-0.03692	1.0309	-1.820559
C	-1.903373	0.109061	-1.618617
N	-3.066795	0.218502	-1.734206
N	-0.519073	-1.208926	0.656836
O	-1.028243	-2.093832	-0.040198
O	-0.389244	-1.292356	1.880049
C	-0.403271	1.23649	0.783339
H	-1.488511	1.379489	0.845739
H	0.053531	2.109421	0.311259
H	0.007536	1.156447	1.787785
F	2.516608	0.0	0.0
