15

C	-0.515813	-0.04106	-1.431272
C	0.0	0.0	0.0
F	-0.409312	1.235603	-1.983513
H	1.090941	0.0	0.0
H	-1.575054	-0.318843	-1.478876
C	0.23798	-0.957646	-2.304604
N	0.767011	-1.658535	-3.082513
N	-0.458405	-1.211517	0.68193
O	-0.420192	-1.249892	1.911634
O	-0.834129	-2.163976	-0.017224
C	-0.426167	1.241873	0.754075
H	0.011307	2.106759	0.257755
H	-0.016145	1.185251	1.760755
H	-1.515044	1.365591	0.812999
F	2.504537	0.0	0.0
