15

C	-0.373339	0.026561	-1.452201
C	0.0	0.0	0.0
F	-1.764082	0.021075	-1.657096
H	1.094233	0.0	0.0
H	0.029036	-0.858204	-1.944666
C	0.15223	1.235435	-2.10495
N	0.504829	2.203911	-2.666807
N	-0.419781	-1.301145	0.557472
O	-0.338317	-2.300376	-0.162735
O	-0.775379	-1.343708	1.736872
C	-0.524816	1.15713	0.81617
H	-0.126191	1.097614	1.827308
H	-0.163595	2.085921	0.369205
H	-1.617199	1.180432	0.865976
F	2.505797	0.0	0.0
