15
Coordinates from ORCA-job run
  C   0.78986374505265      0.33573239176891      0.22213639530030
  C   -0.71832786510859      0.14772809015407      0.41709545888062
  F   0.98206196796398      1.32049985608967     -0.74560379944982
  H   -0.89182865879314     -0.47187803705462      1.29781031041518
  H   1.17425788527933      0.74735769498820      1.16239043158688
  C   1.55070595239763     -0.90263849010586     -0.18475924233757
  H   1.24071285214581     -1.22444633877014     -1.17981487128556
  H   2.61896001311529     -0.68400222001883     -0.21083578170837
  H   1.37184332146157     -1.72044433321767      0.51577816305738
  N   -1.22870694285555     -0.67849140411796     -0.73740706990134
  O   -1.43695976920623     -0.08609263143381     -1.78993668062557
  O   -1.33582261485632     -1.88967731422840     -0.55090492496952
  N   -1.48577034076057      1.35088490846644      0.48823182505208
  H   -1.10894391645285      2.05122904863733     -0.13565010301665
  H   -1.52104562938302      1.70623877884268      1.43246988900198
