15
Coordinates from ORCA-job run
  C   0.70120062049239     -0.39552229002686      0.68497609656433
  C   -0.67786306457564      0.25116602209395      0.53865678757755
  F   1.33730477681851      0.24829589975861      1.73823430078319
  H   -1.15899505610827      0.26019643564688      1.51783389507690
  H   0.56211939981658     -1.43695460271769      0.98577975113705
  C   1.56083477449102     -0.28100382184960     -0.55052583358699
  H   1.06630358790680     -0.71702829038252     -1.42172194319607
  H   2.50377161150240     -0.80515795181380     -0.39078752907706
  H   1.78453352876074      0.76857006541044     -0.74555301653505
  N   -1.51475258093036     -0.74922742792053     -0.27971250615486
  O   -1.86314812324890     -1.77366033607878      0.30005227590539
  O   -1.74252623828224     -0.47337198583455     -1.45557813520294
  N   -0.63568969823853      1.54940715123797     -0.01581569970330
  H   -0.40361101416358      1.52466525643328     -0.99960344171741
  H   -1.51848252424091      2.02862587604320      0.09576499812926
