15
Coordinates from ORCA-job run
  C   0.59378855239759     -0.73983381141097      0.02678354177420
  C   -0.55154370275825      0.20973923837097      0.34611361430008
  F   0.70198646803867     -1.61255818890825      1.10851380398193
  H   -0.51359665189536      0.44205326788042      1.41354366124480
  H   0.34902135995705     -1.35664719220898     -0.84126209815102
  C   1.91549136324355     -0.02853463467268     -0.14396131086153
  H   1.89326100832942      0.65202819043336     -0.99340173592652
  H   2.70031397922766     -0.77217421124149     -0.29126320354841
  H   2.14446094174244      0.55131011062562      0.75197953055565
  N   -1.90337402724721     -0.53291368574869      0.21890447037646
  O   -2.89693308113479      0.18752274070940      0.28069449314988
  O   -1.90537916239909     -1.73090382804869     -0.04572247649265
  N   -0.54489805563725      1.41726162418931     -0.40553903566233
  H   -1.23299505351587      2.06246372785481     -0.04291326663352
  H   -0.74960393834855      1.25118665217588     -1.38346998810705
