15
Coordinates from ORCA-job run
  C   0.80354174871124      0.36455636500547      0.08812024153739
  C   -0.66721262688527      0.18827354614217      0.47975894119642
  F   0.86116420095370      1.23739383347453     -0.99752514538156
  H   -0.72359329085619     -0.33011195996436      1.43772213080511
  H   1.28612379394939      0.88110256595314      0.92568478080358
  C   1.53679735122282     -0.90538914009120     -0.26853644400161
  H   1.11858361506033     -1.33774926408501     -1.17845752817419
  H   2.58983672007318     -0.68310545531981     -0.44544234515808
  H   1.45830125128432     -1.64188931946541      0.53331955176987
  N   -1.29143307055970     -0.76706994390817     -0.50757884229891
  O   -1.35336062444300     -1.94975165962786     -0.17446922082889
  O   -1.63100066930991     -0.29995405933897     -1.58853818191933
  N   -1.44458177929030      1.38620265205914      0.50758345873129
  H   -1.15028345445835      2.02115493525876     -0.22154174956097
  H   -1.39188316545227      1.83733690390756      1.40890035247987
