13

C	0.0	0.0	0.0
C	-0.417837	-0.245291	-1.473931
Cl	1.79475	0.0	0.0
H	-1.497792	-0.38581	-1.378331
H	0.097499	-1.156922	-1.789467
C	-0.46771	1.294422	0.497637
N	-0.625331	2.389103	0.897426
C	-0.448063	-1.101337	0.857652
N	-0.585813	-2.049017	1.539661
N	-0.041036	0.900458	-2.284908
H	-0.872422	1.360192	-2.627751
H	0.543409	0.637269	-3.06446
F	-2.480683	0.0	0.0
