13

C	0.0	0.0	0.0
C	-0.410204	0.281774	-1.472061
Cl	1.794493	0.0	0.0
H	-1.481908	0.474754	-1.382841
H	0.156345	1.163161	-1.787356
C	-0.466996	1.078323	0.873126
N	-0.576457	2.035406	1.546945
C	-0.466742	-1.307024	0.464663
N	-0.612599	-2.410179	0.841851
N	-0.084212	-0.874743	-2.294912
H	-0.937806	-1.361451	-2.53797
H	0.40253	-0.604568	-3.135799
F	-2.463233	0.0	0.0
