13

C	0.0	0.0	0.0
C	-0.401549	-0.174475	-1.490607
Cl	1.794585	0.0	0.0
H	0.068237	-1.106607	-1.823758
H	-1.488388	-0.265281	-1.415817
C	-0.45404	1.281427	0.539945
N	-0.609387	2.368448	0.959299
C	-0.469067	-1.131173	0.800819
N	-0.591623	-2.110928	1.439099
N	0.031065	0.978188	-2.260137
H	0.743651	0.743636	-2.934442
H	-0.758102	1.395662	-2.730322
F	-2.465866	0.0	0.0
