13

C	0.0	0.0	0.0
C	-0.415984	-0.10744	-1.488204
Cl	1.794461	0.0	0.0
H	-1.506689	-0.171732	-1.394274
H	0.020677	-1.041724	-1.860769
C	-0.449672	1.252718	0.606803
N	-0.615849	2.310093	1.092635
C	-0.463876	-1.167139	0.752481
N	-0.623153	-2.174816	1.336911
N	0.030741	1.066024	-2.215672
H	0.797449	0.862169	-2.83814
H	-0.734388	1.458015	-2.743127
F	-2.485032	0.0	0.0
