13

C	0.0	0.0	0.0
C	-0.404975	0.228152	-1.482372
Cl	1.794606	0.0	0.0
H	-1.485051	0.372743	-1.401939
H	0.114348	1.135874	-1.806496
C	-0.46247	1.107781	0.837762
N	-0.588029	2.077154	1.491495
C	-0.463925	-1.292763	0.501442
N	-0.610738	-2.387052	0.904801
N	-0.022546	-0.926921	-2.277
H	-0.849712	-1.390795	-2.624344
H	0.570207	-0.673147	-3.052872
F	-2.463416	0.0	0.0
