13

C	0.0	0.0	0.0
C	-0.436231	0.048938	-1.539012
Cl	1.792714	0.0	0.0
H	-1.040733	-0.839289	-1.699954
H	0.482414	-0.012942	-2.12898
C	-0.440315	1.192655	0.72108
N	-0.587669	2.220091	1.272791
C	-0.447636	-1.227895	0.653695
N	-0.56544	-2.282121	1.161152
N	-1.218232	1.18417	-1.947061
H	-2.026883	1.108965	-1.316388
H	-0.719143	2.044289	-1.748361
F	-2.403994	0.0	0.0
