13

C	0.0	0.0	0.0
C	-0.392416	0.066121	-1.502621
Cl	1.794794	0.0	0.0
H	0.074537	-0.80487	-1.977006
H	-1.479859	-0.028993	-1.45318
C	-0.46471	1.174032	0.737803
N	-0.604344	2.163426	1.357131
C	-0.464646	-1.249029	0.604358
N	-0.594838	-2.325876	1.05874
N	0.053621	1.323363	-2.075296
H	0.772461	1.195025	-2.770854
H	-0.727234	1.813555	-2.484661
F	-2.454679	0.0	0.0
