13

C	0.0	0.0	0.0
C	-0.398458	0.168009	-1.492937
Cl	1.794621	0.0	0.0
H	0.100404	1.079122	-1.840401
H	-1.482494	0.290084	-1.422174
C	-0.465751	1.140393	0.79008
N	-0.58508	2.135892	1.404314
C	-0.460184	-1.274465	0.550481
N	-0.607373	-2.355408	0.988031
N	0.01027	-1.003574	-2.24806
H	-0.798116	-1.45459	-2.64987
H	0.667122	-0.775128	-2.978879
F	-2.458997	0.0	0.0
