13

C	0.0	0.0	0.0
C	-0.419141	-0.083713	-1.489776
Cl	1.785812	0.0	0.0
H	-1.437454	-0.466504	-1.4593
H	0.282472	-0.759487	-1.987727
C	-0.471438	1.223981	0.655287
N	-0.603097	2.24158	1.228526
C	-0.457658	-1.173783	0.749899
N	-0.621209	-2.153541	1.378794
N	-0.300719	1.252957	-2.067009
H	-0.252326	1.179862	-3.07578
H	-1.160868	1.741637	-1.836502
F	-2.43883	0.0	0.0
