13

C	0.0	0.0	0.0
C	-0.394963	-0.065394	-1.504266
Cl	1.791984	0.0	0.0
H	0.133791	0.758223	-1.995856
H	-1.472935	0.097288	-1.470761
C	-0.466456	1.249025	0.597414
N	-0.590731	2.327803	1.049763
C	-0.465109	-1.175215	0.733506
N	-0.607111	-2.167134	1.346734
N	-0.004653	-1.353822	-2.056154
H	0.562833	-1.248074	-2.881811
H	-0.828719	-1.888566	-2.285155
F	-2.451488	0.0	0.0
