12
Coordinates from ORCA-job run
  C   -0.66157847680456     -0.25594622339218     -0.53800360979218
  C   0.55714745800377     -0.71730400103959      0.23404052925145
  Cl  -1.69078758541213     -1.70124523490240     -0.75357014305791
  H   0.26928825159986     -1.05996739490229      1.22685823064370
  H   -0.37594924609636      0.05632949581557     -1.54675525915545
  H   1.09885660782175     -1.50638116600242     -0.28961877644888
  N   -1.39273278734676      0.72754492985812      0.22728196039473
  H   -0.89056448922004      1.60667250856375      0.17207254495201
  H   -2.31045561235034      0.86587223047664     -0.17773030281832
  N   1.54435466745934      0.39100663998865      0.43664586919874
  O   1.41072820602631      1.41703665637742     -0.23107601628141
  O   2.44369300631916      0.17438155915872      1.23885497311352
