12
Coordinates from ORCA-job run
  C   -0.66122728422232     -0.39220459685803     -0.37820103336657
  C   0.44023838821278     -0.50752929653329      0.65705704977724
  Cl  -2.02828673923487     -1.45916096710637      0.23610824668551
  H   0.76378166211134     -1.54110356651289      0.77053769137327
  H   -0.34833578075614     -0.85437766344520     -1.31216613218983
  H   0.13958076828542     -0.08827359070483      1.61605001829861
  N   -1.00230857099730      0.95690213469225     -0.59823381681685
  H   -1.64727552707610      1.07451320883540     -1.36686357831313
  H   -1.37038435090929      1.40624384579428      0.23021298233211
  N   1.61496199946874      0.27512156717565      0.17516601147336
  O   1.96413565965857      1.24732427669981      0.83702377685231
  O   2.13311977545916     -0.11745535203678     -0.86669121610604
