12
Coordinates from ORCA-job run
  C   -0.75376760378448     -0.40056705814516     -0.33467470391038
  C   0.76041983791757     -0.39627005209978     -0.43269638641669
  Cl  -1.18825676213759     -1.31689274962638      1.20731746425900
  H   1.06314288924583      0.19807178862068     -1.29744363093851
  H   -1.12893095558666     -1.05084538456865     -1.12556777642486
  H   1.15339031476744     -1.40761667756851     -0.49601955639988
  N   -1.33265453860282      0.87786668457666     -0.46176976982630
  H   -1.00306377488897      1.50956456819175      0.25514548468277
  H   -2.34213076086006      0.83381893469323     -0.45727656821464
  N   1.41891219355415      0.22315971447171      0.75624819485741
  O   2.36772016298485     -0.37715683181313      1.24779717931951
  O   0.98321899739074      1.30786706326758      1.13894006901257
