12
Coordinates from ORCA-job run
  C   -0.75513796754224     -0.48653896054025     -0.32616621604314
  C   0.42445856610769     -0.54714361319897      0.64137585941951
  Cl  -2.01195520006777     -1.56695505970319      0.38331593689192
  H   0.14926154784159     -0.18188641334175      1.62937080236985
  H   -0.46692331409203     -0.93668949236842     -1.27523652946284
  H   0.84935450090502     -1.54910461818205      0.69637367959968
  N   -1.27678993104860      0.81355813041476     -0.57035340863426
  H   -1.30139576371513      1.39894629603722      0.25295254385583
  H   -0.80712479097742      1.27947829184885     -1.33236260747069
  N   1.48058467026545      0.35906499837135      0.11329896361203
  O   1.73810642978885      1.37620311600583      0.75315393638313
  O   1.97856125253459      0.04206732465663     -0.96572296052101
