12
Coordinates from ORCA-job run
  C   -0.64856617596285     -0.10651328263498     -0.33650939879471
  C   0.69005881381000      0.31971555665943      0.22614022236879
  Cl  -1.41890414074580     -1.24487327598247      0.87314376160029
  H   1.17958088566182      0.98310922443310     -0.48876485812239
  H   -0.49682930196710     -0.71110875273171     -1.22810822035552
  H   0.59317687958928      0.79660465965485      1.20004528434436
  N   -1.42483835105906      1.03919861854339     -0.64323300076099
  H   -2.27306758057335      0.78945862083340     -1.13355686121224
  H   -1.67363766412835      1.55546018717314      0.19132196610877
  N   1.59277573790798     -0.85292426223757      0.40816429646411
  O   1.70140391886138     -1.61248808725304     -0.55076274946665
  O   2.17884697860607     -0.95563920645755      1.48111955782620
