12
Coordinates from ORCA-job run
  C   -0.77603477850739     -0.33356615895990     -0.44736785135535
  C   0.60029769799684     -0.72289406875213      0.08709031037084
  Cl  -1.75280562161435     -1.84784904422134     -0.40143360208495
  H   0.54235299706315     -1.08554657706077      1.11198442405389
  H   -0.69057025539837     -0.05724128866340     -1.49747225427666
  H   1.09339160566319     -1.44825669261616     -0.55960045782750
  N   -1.42926334688927      0.71660398680513      0.25488886557734
  H   -1.30480991814144      0.66870874790422      1.25661501456601
  H   -1.17751203680069      1.62803027869945     -0.09793982636309
  N   1.43792401821665      0.50778195376689      0.09995163394801
  O   1.77723304162713      0.96143061001134      1.19038372081336
  O   1.67979659678454      1.01079825308666     -0.99609997742190
