12
Coordinates from ORCA-job run
  C   -0.85202556478097     -0.38029888581210     -0.24097048192568
  C   0.66892704077385     -0.56459239257160     -0.24458984329383
  Cl  -1.45187616212328     -0.98949181103701      1.34384749815498
  H   1.08182192496929     -0.16199380515576     -1.17230276350876
  H   -1.24823637786266     -1.06997525340213     -0.98939062822610
  H   0.94332514273791     -1.60942038143509     -0.11621586880864
  N   -1.37379971771872      0.92046552216465     -0.50148717244134
  H   -0.84648791904163      1.63321807590954     -0.01627625350649
  H   -1.39765163492631      1.11302130170310     -1.49316136075181
  N   1.32731317293812      0.17815661950849      0.86682900348794
  O   2.00379862392930     -0.46567192447383      1.66135289683168
  O   1.14489147110510      1.39558293460175      0.90336497398804
