10
Coordinates from ORCA-job run
  C   1.01959475016292     -0.11283599175577      0.39290134819143
  C   -0.20916694806661      0.02848070926595     -0.48749790076168
  Br  2.57824117518321     -0.60817783381729     -0.66175111623822
  H   -0.36179970893239     -0.89860723050721     -1.05570812955254
  H   1.24393342602599      0.82911502457528      0.88883773551261
  H   0.88810082758173     -0.89493515709656      1.14077859902167
  H   -0.03334705899487      0.82744310702589     -1.21109191500105
  N   -1.33382588456197      0.40870300891074      0.36597543859326
  H   -1.72469328055060     -0.41036776918774      0.81392957953536
  H   -2.06803729784741      0.83018213258671     -0.18737363930083
