10
Coordinates from ORCA-job run
  C   1.02189653810110     -0.36619527606448      0.33137463318547
  C   -0.29360716343283     -0.26691518590316     -0.41747610303786
  Br  2.17517845658159      1.16243158874885      0.00699701580100
  H   -0.08710975308762     -0.10334535755159     -1.47764514109099
  H   0.85986748365160     -0.41042753589375      1.40931927410164
  H   1.57990115684238     -1.24890316919435      0.01877590683119
  H   -0.78162678675471     -1.25244742540404     -0.32966565363701
  N   -1.10238044618682      0.83923677657822      0.07199574768853
  H   -1.85098394925838      1.04471162642715     -0.57550846855519
  H   -1.52213553645631      0.60185395825714      0.96183278871322
