10
Coordinates from ORCA-job run
  C   0.94783913194078     -0.00548722052663      0.33188609482006
  C   -0.30048719388541     -0.30439921654136     -0.48967775060646
  Br  2.49302287166225     -0.98239811727579     -0.34269400347288
  H   -0.12188093767604     -0.03665748262628     -1.53363383176466
  H   1.20459414778727      1.05367207873216      0.29066846683422
  H   0.81792311911234     -0.30496619115911      1.37249909881498
  H   -0.50349613008980     -1.37755003164120     -0.46592945585314
  N   -1.48746640828873      0.40183102100011     -0.02699034617928
  H   -1.34760128173595      1.40364509249871     -0.06535015653485
  H   -1.70344731882671      0.15331006753939      0.93022188394201
