10
Coordinates from ORCA-job run
  C   1.11382378501757     -0.20427390555068      0.06781050589062
  C   -0.32243155785752     -0.33125323775919     -0.39116855845526
  Br  1.23163916745665     -0.13233625246396      2.01591152414348
  H   -0.29649772492616     -0.46075750872819     -1.47911345889730
  H   1.55011435331735      0.72216282200115     -0.30168386910538
  H   1.71293580044995     -1.06097505002440     -0.23855201676346
  H   -0.75790525857337     -1.24452318163331      0.03985658167198
  N   -1.06301171302677      0.89033910707247     -0.10188701848317
  H   -1.18039276288240      0.98421034993718      0.89965767326379
  H   -1.98727408897531      0.83740685714894     -0.51083136326530
