12

C	0.0	0.0	0.0
C	-0.55827	-0.23731	-1.388776
Br	1.928929	0.0	0.0
H	-0.246682	0.576522	-2.046959
H	-0.361604	-0.712194	0.736912
H	-1.658681	-0.214232	-1.266367
N	-0.408022	1.365041	0.500257
O	-0.476617	2.269157	-0.323332
O	-0.566556	1.467588	1.709367
C	-0.122649	-1.511709	-1.94076
N	0.227122	-2.526868	-2.417125
Cl	-3.428956	0.0	0.0
