12

C	0.0	0.0	0.0
C	-0.590116	0.038076	-1.395012
Br	1.916947	0.0	0.0
H	-1.674783	0.192999	-1.249463
H	-0.357816	-0.864425	0.554029
H	-0.455826	-0.950747	-1.842718
N	-0.41214	1.202463	0.820022
O	-0.715541	2.21895	0.211294
O	-0.367475	1.056899	2.03519
C	-0.011771	1.039134	-2.283564
N	0.457735	1.802799	-3.041398
Cl	-3.502604	0.0	0.0
