15
Coordinates from ORCA-job run
  C   0.74580218712843     -0.32306904426777      0.31952503969521
  C   -0.65405449204480      0.20440513380560     -0.01297884394204
  F   0.72231990460121     -0.69376252369746      1.66498525369990
  H   -0.82197190502916      1.08715793329213      0.61582395771067
  H   0.93511647558079     -1.23635014286177     -0.25540543638063
  C   1.85004337752905      0.68727617418836      0.11860914400097
  H   2.79903813539709      0.26325971193667      0.45038326028334
  H   1.93985703198319      0.96373770533143     -0.93329369253797
  H   1.64856658639397      1.58591772309204      0.70603124333890
  C   -1.74250238321172     -0.83535267858566      0.26743449860139
  H   -2.73116512472813     -0.42995164529160      0.04612723088672
  H   -1.58894050786881     -1.72452035503361     -0.34844645211889
  H   -1.70648499096076     -1.12470634253202      1.31757422145606
  C   -0.68838435955767      0.63175888015434     -1.41222051544419
  N   -0.70723993521267      0.94619947046932     -2.54314890924943
