15
Coordinates from ORCA-job run
  C   0.76441535263310      0.63665903921158      0.01981286766387
  C   -0.69471164093037      0.27839127372578      0.32618710493505
  F   0.85832678049160      0.93540663354858     -1.33783022554042
  H   -0.76036117937771      0.06538581232769      1.40040532550060
  H   1.02562787348499      1.55331081580992      0.55849933959155
  C   1.74883088066735     -0.46595818485791      0.33891072462977
  H   1.67573194516136     -0.76240573503025      1.38814394510752
  H   1.57187466779299     -1.33785066692290     -0.29166158189440
  H   2.76388667643478     -0.11338288827999      0.14983329440849
  C   -1.20070963996592     -0.92990834180499     -0.46870761370271
  H   -2.26426763398190     -1.08721846005748     -0.28437365269419
  H   -1.05476681218351     -0.76209955713698     -1.53582421606983
  H   -0.66853148642651     -1.83563096048887     -0.17591657176964
  C   -1.54095162345699      1.44702008107759      0.06423406312350
  N   -2.22239416034326      2.37828113887823     -0.15071280328917
