15
Coordinates from ORCA-job run
  C   0.61856127725248      0.16351190480854      0.84625901474772
  C   -0.81607174355047      0.24323497049506      0.31805453832760
  F   0.85396149124959      1.32021785890331      1.58640563129444
  H   -1.45302044269665      0.45314872024779      1.18470416379798
  H   0.67139395723159     -0.67545735181587      1.54945304334033
  C   1.68665015439811      0.04789224779570     -0.21495130864580
  H   1.58844188698665     -0.88222941834039     -0.77771083407025
  H   1.62958731651447      0.89126686685643     -0.90554401190477
  H   2.66837744900025      0.05704080658076      0.26099018819037
  C   -1.27055899574409     -1.06246585062726     -0.34182891789886
  H   -1.12904884891784     -1.89963752064240      0.34610787573208
  H   -0.70890135214653     -1.26045217142488     -1.25545100203968
  H   -2.32862003909646     -1.00898654420089     -0.60164197387571
  C   -0.95405859063986      1.36834511724259     -0.61023082733083
  N   -1.05569351984124      2.24557036412150     -1.38361557966462
