15
Coordinates from ORCA-job run
  C   0.74867590545261     -0.30641812558571      0.33079688817606
  C   -0.65777476428689      0.18964119007780     -0.02091314325288
  F   0.71592783364200     -0.67363499507964      1.67711667004301
  H   -0.85364238849039      1.06846655206435      0.60535974900793
  H   0.96547083501500     -1.21705809773871     -0.23873028320562
  C   1.83313543794899      0.72726281400259      0.14071281242110
  H   1.60406290213609      1.62377122869169      0.72152385094997
  H   2.78676349902597      0.32580320690604      0.48698271692224
  H   1.93086050008381      1.00124946740411     -0.91129370601753
  C   -1.72684939452332     -0.87404492038443      0.24503074857029
  H   -1.69287973570523     -1.16958825147341      1.29316944815174
  H   -2.72166714448019     -0.48729823753418      0.01886455428193
  H   -1.55088683399817     -1.75552560151084     -0.37537900343792
  C   -0.68433818986849      0.61635040462769     -1.42057475000483
  N   -0.69685846195178      0.93102336553265     -2.55166655260549
