15
Coordinates from ORCA-job run
  C   0.74347362635229      0.65187643583529      0.10218954091588
  C   -0.71812083226264      0.23489000648265      0.30420683638356
  F   0.90041896522499      1.04122432578307     -1.22602345253345
  H   -0.83247167726973     -0.05761316966581      1.35545633794769
  H   0.94773226619431      1.53769231012871      0.71215133514511
  C   1.74274697417133     -0.44173283888760      0.40494164194832
  H   1.62650140616036     -0.80243176767717      1.42971478882930
  H   1.62338465053682     -1.27852989325738     -0.28364905295604
  H   2.75505842249076     -0.05159998793197      0.28950054022510
  C   -1.14830719901875     -0.92412029182708     -0.60095459976901
  H   -2.21311638633844     -1.12613565476516     -0.47767619893705
  H   -0.59973645398890     -1.83330648577087     -0.35209952044138
  H   -0.96164612089526     -0.67206400802441     -1.64489477948458
  C   -1.58461547722642      1.39753043085804      0.08328328534655
  N   -2.28030216413071      2.32532058871969     -0.09714670262000
