15
Coordinates from ORCA-job run
  C   0.62745955161782      0.16211153762346      0.83836927453661
  C   -0.80737621432406      0.27121097562173      0.31638187578066
  F   0.89872199948485      1.32400505860915      1.55775719718874
  H   -1.43308371439488      0.51954694784803      1.18117778270338
  H   0.66136221224986     -0.66621088766406      1.55527480464400
  C   1.68633991435927      0.00033779034929     -0.22612060210323
  H   1.55426982032290     -0.93069955865396     -0.78038764222524
  H   2.67030400264567     -0.01898611853734      0.24488522774213
  H   1.65367486077607      0.83921035088526     -0.92375817630959
  C   -1.30352347958524     -1.03542719848513     -0.31053681046298
  H   -0.75194689936902     -1.27237970654919     -1.22103094079765
  H   -2.36057169861911     -0.95670518994201     -0.56800298463669
  H   -1.18414491938336     -1.85960410347766      0.39697489117051
  C   -0.91936630887381      1.37911430049796     -0.63559672834197
  N   -0.99211912690696      2.24447580187445     -1.42538716888868
