19

C	0.0	0.0	0.0
C	-0.37669	0.082503	-1.492749
F	1.37304	0.0	0.0
H	0.205358	0.947964	-1.835426
N	-0.336191	1.342794	0.670948
O	0.050067	2.348188	0.080484
O	-0.886825	1.332032	1.766646
C	-0.589343	-1.128147	0.786493
H	-1.682444	-1.033055	0.745
H	-0.255407	-1.092904	1.823176
H	-0.277358	-2.071807	0.336238
N	-1.777543	0.276006	-1.804531
H	-2.140239	-0.54971	-2.268251
H	-2.43076	0.365132	-0.988293
C	0.175078	-1.142895	-2.225105
H	1.238955	-1.302305	-2.036823
H	-0.380446	-2.042743	-1.944594
H	0.029235	-0.987468	-3.298035
H	-3.693649	0.0	0.0
