19

C	0.0	0.0	0.0
C	-0.246319	-0.192686	-1.533302
F	1.373999	0.0	0.0
H	0.529177	-0.929889	-1.787202
N	-0.604194	1.240729	0.485683
O	-0.322138	1.590929	1.664421
O	-1.784163	1.403696	-0.085952
C	-0.497885	-1.115532	0.87598
H	-1.595004	-1.048274	0.901944
H	-0.099071	-0.966211	1.879873
H	-0.194513	-2.087282	0.480825
N	0.077653	1.023777	-2.287307
H	-0.622236	1.703351	-2.00041
H	0.965404	1.37001	-1.937324
C	-1.559282	-0.748867	-2.049867
H	-2.361914	-0.026292	-1.932518
H	-1.417674	-0.986886	-3.110552
H	-1.856671	-1.653529	-1.515685
H	-2.996431	0.0	0.0
