19

C	0.0	0.0	0.0
C	-0.242309	-0.177422	-1.538617
F	1.373361	0.0	0.0
H	0.498874	-0.948842	-1.787586
N	-0.596332	1.24381	0.487403
O	-0.302631	1.597623	1.662587
O	-1.776519	1.414729	-0.079319
C	-0.520601	-1.106926	0.868288
H	-1.618157	-1.021217	0.863339
H	-0.226045	-2.086757	0.485992
H	-0.146693	-0.952551	1.882857
N	0.150519	1.025212	-2.279688
H	-0.521027	1.737939	-2.007556
H	1.048239	1.328589	-1.915084
C	-1.573275	-0.660243	-2.080884
H	-1.926728	-1.553794	-1.564763
H	-2.339158	0.102469	-1.961886
H	-1.425254	-0.885027	-3.143372
H	-2.984834	0.0	0.0
