17

C	0.0	0.0	0.0
C	-0.397179	0.081021	-1.501321
Br	1.970232	0.0	0.0
H	0.365501	0.689259	-1.995914
H	-0.290785	-0.973233	0.401159
C	-0.512543	1.120444	0.881017
H	-0.144616	1.013099	1.903424
H	-0.194679	2.09403	0.500161
H	-1.605949	1.082514	0.896211
C	-1.748678	0.731828	-1.747069
H	-2.572822	0.250058	-1.21553
H	-1.744283	1.783135	-1.45344
H	-1.95424	0.678508	-2.818849
N	-0.380749	-1.225511	-2.158675
H	0.443518	-1.744754	-1.879539
H	-1.194605	-1.745158	-1.847607
Br	-4.842815	0.0	0.0
