17

C	0.0	0.0	0.0
C	-0.428991	0.012342	-1.468344
Br	1.973296	0.0	0.0
H	0.025525	0.909859	-1.924231
H	-0.266176	-0.969071	0.426787
C	-0.53102	1.148617	0.828305
H	-0.304473	2.108039	0.356261
H	-1.616352	1.044052	0.918409
H	-0.098682	1.142817	1.830239
C	-1.940222	0.099486	-1.603051
H	-2.45242	-0.69595	-1.062839
H	-2.221573	0.023053	-2.658657
H	-2.350282	1.034987	-1.229027
N	0.027147	-1.227081	-2.105823
H	-0.430215	-1.315121	-3.00502
H	1.026049	-1.18669	-2.267784
Br	-5.123265	0.0	0.0
