17

C	0.0	0.0	0.0
C	-0.440753	0.339094	-1.454572
Br	1.966785	0.0	0.0
H	0.344806	-0.053173	-2.109809
H	-0.238235	-1.051459	0.177592
C	-0.593388	0.847869	1.100392
H	-1.685761	0.792078	1.018543
H	-0.299843	0.471749	2.082496
H	-0.279555	1.88985	1.019006
C	-0.546293	1.840015	-1.681717
H	0.363041	2.362203	-1.369892
H	-0.716891	2.023789	-2.744169
H	-1.399954	2.2454	-1.133516
N	-1.676061	-0.291479	-1.869701
H	-2.47816	-0.012461	-1.302324
H	-1.604734	-1.298865	-1.780119
Br	-4.503118	0.0	0.0
