14

C	0.0	0.0	0.0
C	-0.237522	-0.215597	-1.544252
F	1.389822	0.0	0.0
H	0.557203	0.415193	-1.980222
H	-0.408658	-0.808541	0.594512
C	-0.445684	1.315236	0.466713
N	-0.592843	2.418749	0.839938
N	-1.477985	0.122973	-2.176425
H	-2.193582	-0.031043	-1.403924
H	-1.47173	1.126556	-2.322946
N	0.028868	-1.642569	-1.77173
H	-0.254329	-1.820686	-2.727706
H	1.023797	-1.816234	-1.686826
F	-2.62022	0.0	0.0
