14

C	0.0	0.0	0.0
C	-0.473105	-0.090636	-1.470124
F	1.376425	0.0	0.0
H	0.45298	-0.106165	-2.059345
H	-0.353046	-0.870777	0.548346
C	-0.421178	1.219409	0.710302
N	-0.551857	2.200116	1.342064
N	-1.22297	1.105714	-1.841223
H	-2.075296	1.002385	-1.263458
H	-1.481647	1.007131	-2.8188
N	-1.159181	-1.376628	-1.615906
H	-2.004871	-1.197699	-1.044947
H	-1.455153	-1.448595	-2.585865
F	-2.717847	0.0	0.0
