14

C	0.0	0.0	0.0
C	-0.438356	-0.198808	-1.486377
F	1.387424	0.0	0.0
H	0.511403	-0.295393	-2.026243
H	-0.350107	-0.829394	0.611091
C	-0.411633	1.265106	0.620726
N	-0.559829	2.307014	1.140712
N	-1.13771	0.980808	-1.958096
H	-1.975622	0.970854	-1.356541
H	-1.44392	0.763153	-2.899938
N	-1.223103	-1.411759	-1.705449
H	-2.023508	-1.236729	-1.077342
H	-0.700424	-2.210231	-1.35424
F	-2.622433	0.0	0.0
