14

C	0.0	0.0	0.0
C	-0.481106	-0.32903	-1.456168
F	1.3795	0.0	0.0
H	-1.204575	-1.137383	-1.345595
H	-0.346611	-0.772773	0.682753
C	-0.425495	1.306995	0.521056
N	-0.537111	2.369826	1.008094
N	0.592934	-0.775804	-2.338994
H	1.301879	-0.050996	-2.346593
H	1.024028	-1.601496	-1.937962
N	-1.084802	0.858922	-2.029776
H	-1.923824	0.930844	-1.434666
H	-1.383365	0.603426	-2.966221
F	-2.507111	0.0	0.0
