14

C	0.0	0.0	0.0
C	-0.430536	-0.00368	-1.470305
F	1.393016	0.0	0.0
H	-1.497563	0.226194	-1.423398
H	-0.368142	-0.886801	0.506691
C	-0.434149	1.198844	0.726645
N	-0.534294	2.175679	1.369934
N	-0.276987	-1.339185	-2.065709
H	0.609016	-1.734013	-1.759204
H	-1.015981	-1.914027	-1.672157
N	0.32317	1.014588	-2.179702
H	0.028646	0.973316	-3.147443
H	1.309042	0.779225	-2.154224
F	-2.524148	0.0	0.0
