14

C	0.0	0.0	0.0
C	-0.431905	-0.364251	-1.479217
F	1.385994	0.0	0.0
H	0.529554	-0.47065	-2.000553
H	-0.363944	-0.736503	0.711843
C	-0.420295	1.342772	0.422555
N	-0.526179	2.474013	0.722079
N	-1.227906	0.64064	-2.157281
H	-2.044818	0.715842	-1.534965
H	-0.73282	1.526259	-2.127207
N	-1.162428	-1.622573	-1.534224
H	-0.626308	-2.319595	-1.024438
H	-1.982194	-1.382252	-0.958179
F	-2.591336	0.0	0.0
