14

C	0.0	0.0	0.0
C	-0.234923	0.190494	-1.547401
F	1.387998	0.0	0.0
H	0.555762	0.917577	-1.802714
H	-0.405731	-0.937564	0.362184
C	-0.455745	1.146354	0.790243
N	-0.606381	2.127605	1.418153
N	-1.477712	0.669008	-2.07318
H	-2.192992	0.331577	-1.362882
H	-1.474574	1.678083	-1.977796
N	0.044161	-1.126824	-2.13665
H	-0.248443	-1.054452	-3.103035
H	1.041227	-1.305437	-2.10844
F	-2.625129	0.0	0.0
