13

C	-0.355563	0.115874	-1.478027
C	0.0	0.0	0.0
F	-1.653878	0.672217	-1.631937
H	1.095366	0.0	0.0
H	0.330019	0.837959	-1.927488
N	-0.236521	-1.127672	-2.133522
H	-0.409098	-1.026053	-3.124159
H	-0.873655	-1.809383	-1.739949
C	-0.512938	-1.218062	0.595141
N	-0.913685	-2.236677	1.026742
C	-0.437495	1.169471	0.743361
N	-0.758444	2.142162	1.319759
H	2.531047	0.0	0.0
