13

C	-0.287455	0.070471	-1.509776
C	0.0	0.0	0.0
F	-0.051982	-1.223651	-2.024274
H	1.097607	0.0	0.0
H	-1.337129	0.275937	-1.751183
N	0.57262	1.05355	-2.042605
H	0.55795	1.045095	-3.054838
H	1.521811	0.883012	-1.691188
C	-0.530279	-1.197858	0.623796
N	-0.924609	-2.169121	1.156038
C	-0.475302	1.195679	0.673331
N	-0.838249	2.165744	1.22964
H	2.605176	0.0	0.0
