13

C	-0.287755	0.059432	-1.510919
C	0.0	0.0	0.0
F	-0.075069	-1.245394	-2.011735
H	1.097662	0.0	0.0
H	-1.332777	0.278941	-1.754476
N	0.586251	1.019263	-2.054793
H	0.562582	1.010059	-3.064949
H	1.532773	0.840092	-1.707355
C	-0.534489	-1.190035	0.635634
N	-0.946018	-2.15454	1.166727
C	-0.473997	1.20349	0.662122
N	-0.84335	2.17723	1.207552
H	2.611588	0.0	0.0
