13

C	-0.373095	-0.047823	-1.47965
C	0.0	0.0	0.0
F	0.03147	1.176601	-2.03438
H	1.095282	0.0	0.0
H	0.234801	-0.816268	-1.964252
N	-1.75502	-0.290047	-1.707372
H	-2.30748	0.428579	-1.254224
H	-1.949453	-0.270701	-2.701198
C	-0.442367	-1.200059	0.690619
N	-0.760509	-2.197473	1.225355
C	-0.529446	1.192247	0.636649
N	-0.956178	2.160375	1.151155
H	2.550398	0.0	0.0
