13

C	-0.289017	0.059327	-1.509796
C	0.0	0.0	0.0
F	-0.073522	-1.245004	-2.014177
H	1.09751	0.0	0.0
H	-1.334509	0.274859	-1.752412
N	0.580191	1.023574	-2.050977
H	1.52795	0.84983	-1.70399
H	0.554591	1.017308	-3.060981
C	-0.534068	-1.191726	0.633439
N	-0.95094	-2.156395	1.160494
C	-0.474898	1.201845	0.664116
N	-0.847534	2.173984	1.210324
H	2.613905	0.0	0.0
