13

C	-0.298633	-0.043732	-1.524039
C	0.0	0.0	0.0
F	-0.169865	-1.368573	-1.911947
H	1.095674	0.0	0.0
H	-1.326945	0.257085	-1.749931
N	0.62177	0.754377	-2.259941
H	1.538867	0.692649	-1.807974
H	0.318576	1.718677	-2.27721
C	-0.55761	-1.104145	0.754434
N	-0.991203	-2.006132	1.371869
C	-0.432325	1.282712	0.525286
N	-0.707368	2.365847	0.892959
H	2.595666	0.0	0.0
