13

C	-0.347227	0.136874	-1.48827
C	0.0	0.0	0.0
F	-0.144498	1.47144	-1.823834
H	1.096118	0.0	0.0
H	0.415258	-0.417702	-2.047764
N	-1.682503	-0.239357	-1.826341
H	-1.72575	-0.796303	-2.666538
H	-2.161825	-0.707849	-1.073098
C	-0.431366	-1.283201	0.52118
N	-0.735091	-2.350654	0.912731
C	-0.524047	1.08904	0.800182
N	-0.913342	1.97995	1.462011
H	2.51966	0.0	0.0
