13

C	-0.295564	-0.121234	-1.521439
C	0.0	0.0	0.0
F	-0.191715	-1.468185	-1.836432
H	1.095769	0.0	0.0
H	-1.319422	0.182799	-1.764602
N	0.637499	0.621676	-2.294949
H	1.551708	0.586219	-1.835192
H	0.337172	1.581901	-2.390023
C	-0.556338	-1.064512	0.810731
N	-0.986726	-1.933952	1.475412
C	-0.442008	1.305928	0.456043
N	-0.777444	2.386966	0.776819
H	2.603122	0.0	0.0
