13

C	-0.410078	-0.049547	-1.468686
C	0.0	0.0	0.0
F	0.102028	1.104576	-2.076939
H	1.094832	0.0	0.0
H	0.088509	-0.897603	-1.944598
N	-1.822103	-0.143302	-1.647531
H	-2.263832	0.6647	-1.217989
H	-2.037028	-0.13635	-2.637398
C	-0.449643	-1.189916	0.705233
N	-0.76074	-2.182088	1.253516
C	-0.511793	1.204279	0.631426
N	-0.936286	2.182041	1.129134
H	2.565443	0.0	0.0
