13

C	-0.402393	-0.009105	-1.472414
C	0.0	0.0	0.0
F	0.042154	1.203897	-2.020208
H	1.09025	0.0	0.0
H	0.15865	-0.797448	-1.982246
N	-1.797676	-0.187115	-1.670882
H	-2.304277	0.553432	-1.192488
H	-2.016203	-0.137552	-2.657513
C	-0.447409	-1.207118	0.669839
N	-0.747733	-2.206113	1.22318
C	-0.516348	1.182169	0.666306
N	-0.922486	2.156512	1.19019
H	2.561139	0.0	0.0
