16

C	-0.388615	0.011964	-1.472408
C	0.0	0.0	0.0
F	-0.180365	-1.306876	-1.956535
H	1.092085	0.0	0.0
H	-1.454925	0.199213	-1.622318
N	0.394413	0.979201	-2.13184
H	1.382468	0.849774	-1.922539
H	0.237577	0.98003	-3.130132
C	-0.589336	-1.141585	0.796429
H	-0.18935	-2.077564	0.409659
H	-1.678769	-1.149784	0.721484
H	-0.300173	-1.051258	1.845864
N	-0.480108	1.297541	0.563472
O	0.335724	2.090894	1.017181
O	-1.702515	1.478663	0.543587
Br	3.588483	0.0	0.0
