16

C	-0.456413	-0.016733	-1.450684
C	0.0	0.0	0.0
F	-0.147016	1.243982	-2.000459
H	1.09007	0.0	0.0
H	0.176958	-0.731951	-1.981799
N	-1.823413	-0.352244	-1.644983
H	-2.038552	-0.335108	-2.633687
H	-2.395929	0.329777	-1.163261
C	-0.48608	-1.202131	0.790643
H	-1.574511	-1.238015	0.839268
H	-0.125427	-2.110044	0.303105
H	-0.058691	-1.16999	1.795165
N	-0.497133	1.234717	0.676618
O	0.283061	1.883566	1.362094
O	-1.699667	1.501662	0.545735
Br	3.567189	0.0	0.0
