16

C	-0.469112	0.00674	-1.443309
C	0.0	0.0	0.0
F	-1.859445	0.331274	-1.444637
H	1.092018	0.0	0.0
H	0.022192	0.811272	-1.987876
N	-0.225615	-1.229934	-2.078619
H	-0.423522	-1.171007	-3.06759
H	-0.779836	-1.96864	-1.667357
C	-0.529952	-1.153282	0.82114
H	-0.239577	-1.031996	1.863075
H	-1.618574	-1.221927	0.768158
H	-0.071029	-2.074461	0.456618
N	-0.414633	1.320134	0.579956
O	-0.072794	2.324937	-0.039296
O	-1.059131	1.334912	1.629861
Br	3.518846	0.0	0.0
