16

C	-0.354309	-0.062521	-1.481213
C	0.0	0.0	0.0
F	-1.725455	-0.295076	-1.610272
H	1.092858	0.0	0.0
H	-0.140121	0.900981	-1.941867
N	0.353358	-1.081014	-2.20476
H	0.287256	-1.961064	-1.704924
H	1.339943	-0.825641	-2.199636
C	-0.526664	-1.153567	0.824142
H	-1.616209	-1.156608	0.859517
H	-0.1353	-1.098352	1.837878
H	-0.180831	-2.093189	0.388985
N	-0.440713	1.309996	0.578104
O	-0.278005	2.317576	-0.107536
O	-0.912648	1.319013	1.714739
Br	3.467551	0.0	0.0
