16

C	-0.496083	0.009329	-1.450052
C	0.0	0.0	0.0
F	-0.200778	1.262317	-1.966417
H	1.090221	0.0	0.0
H	0.103978	-0.722955	-1.99874
N	-1.885746	-0.24895	-1.685051
H	-2.064049	-1.243055	-1.698641
H	-2.441622	0.183749	-0.957217
C	-0.464181	-1.228982	0.759935
H	-0.044869	-1.215749	1.768029
H	-0.071699	-2.117584	0.258355
H	-1.55098	-1.290624	0.821946
N	-0.515215	1.224443	0.675464
O	-1.741545	1.276605	0.856434
O	0.268236	2.106073	0.999489
Br	3.561014	0.0	0.0
