16

C	-0.495936	-0.002295	-1.449687
C	0.0	0.0	0.0
F	-0.17482	1.236507	-1.984629
H	1.090211	0.0	0.0
H	0.088604	-0.755874	-1.987163
N	-1.890916	-0.235289	-1.681864
H	-2.438195	0.21476	-0.958078
H	-2.089167	-1.225454	-1.688508
C	-0.46954	-1.217667	0.773574
H	-0.07876	-2.113386	0.283975
H	-0.053219	-1.193437	1.782493
H	-1.556427	-1.275482	0.833342
N	-0.508307	1.234074	0.663377
O	0.281068	2.113324	0.980708
O	-1.734589	1.296714	0.843024
Br	3.560204	0.0	0.0
