13

C	-0.58167	0.11003	-1.383429
C	0.0	0.0	0.0
Br	0.741915	0.313486	-2.793438
H	1.089701	0.0	0.0
H	-1.257826	0.951121	-1.490004
H	-0.307748	-0.914411	0.504586
N	-1.388068	-1.116805	-1.7052
O	-2.580204	-0.93859	-1.967372
O	-0.824697	-2.205306	-1.659033
N	-0.433491	1.122359	0.833529
O	-0.632501	2.219176	0.299177
O	-0.507183	0.926363	2.048004
F	2.482829	0.0	0.0
