13

C	-0.455756	0.123798	-1.419945
C	0.0	0.0	0.0
Br	0.323855	-1.148577	-2.634592
H	1.087803	0.0	0.0
H	-0.132693	1.104657	-1.770239
H	-0.315987	0.876357	0.566136
N	-1.976685	0.166466	-1.555583
O	-2.50636	0.998995	-0.81976
O	-2.564203	-0.544626	-2.355859
N	-0.563165	-1.157828	0.69766
O	-1.160255	-2.020996	0.045363
O	-0.397641	-1.201548	1.915623
F	2.508903	0.0	0.0
