13

C	-0.676018	0.00857	-1.339084
C	0.0	0.0	0.0
Br	-0.293233	1.687949	-2.238819
H	1.096115	0.0	0.0
H	-1.759463	-0.088268	-1.309565
H	-0.286632	0.892896	0.559014
N	-0.240209	-1.09781	-2.271056
O	-1.131147	-1.563563	-2.98246
O	0.936381	-1.421648	-2.276262
N	-0.484556	-1.141192	0.778156
O	-0.379553	-1.090204	2.002225
O	-0.935032	-2.115765	0.160046
F	2.490957	0.0	0.0
