18

C	-0.238875	0.067629	-1.511107
C	0.0	0.0	0.0
Br	-2.163525	0.26589	-1.986545
H	1.097102	0.0	0.0
N	0.402118	1.296292	-1.943214
H	0.329761	1.372707	-2.952738
H	1.392038	1.216495	-1.691549
N	0.195449	-1.169881	-2.107696
H	0.217827	-1.060594	-3.115813
H	1.142123	-1.355625	-1.774142
N	-0.461669	-1.30217	0.561683
O	0.280428	-2.273537	0.44047
O	-1.559339	-1.323951	1.129015
C	-0.54458	1.156724	0.80083
H	-0.239784	1.048067	1.844532
H	-0.124421	2.080696	0.405101
H	-1.632065	1.194753	0.750355
Br	3.466218	0.0	0.0
