18

C	-0.381321	0.100926	-1.474554
C	0.0	0.0	0.0
Br	-0.045685	-1.934758	-2.288798
H	1.089179	0.0	0.0
N	-1.725453	0.399833	-1.735007
H	-2.309549	-0.266258	-1.244111
H	-1.924027	0.358621	-2.726626
N	0.530536	0.947523	-2.091693
H	0.419729	1.002519	-3.093755
H	1.491472	0.715651	-1.839023
N	-0.554278	-1.209916	0.657321
O	0.197873	-1.923306	1.307597
O	-1.776481	-1.378043	0.558913
C	-0.484647	1.215884	0.781158
H	-1.573405	1.261193	0.817862
H	-0.09999	2.111402	0.293594
H	-0.075931	1.167425	1.793783
Br	3.49902	0.0	0.0
