18

C	-0.552244	0.008723	-1.432568
C	0.0	0.0	0.0
Br	0.255294	1.560131	-2.34412
H	1.0908	0.0	0.0
N	-0.070724	-1.142024	-2.160778
H	-0.267913	-1.04029	-3.147808
H	-0.53306	-1.967753	-1.800075
N	-1.986603	0.272211	-1.430252
H	-2.300814	0.365571	-2.390224
H	-2.426451	-0.550865	-1.028147
N	-0.40107	-1.262567	0.714436
O	-1.282622	-1.991514	0.229804
O	0.139736	-1.479877	1.790151
C	-0.484831	1.148642	0.875833
H	-0.24193	2.092152	0.389356
H	-1.563785	1.104817	1.034614
H	0.045312	1.104085	1.827344
Br	3.530222	0.0	0.0
