18

C	-0.448434	0.003938	-1.465052
C	0.0	0.0	0.0
Br	0.353558	-1.584671	-2.339411
H	1.102024	0.0	0.0
N	-1.876396	-0.108726	-1.660525
H	-2.310242	0.740708	-1.307506
H	-2.057446	-0.16311	-2.656255
N	0.087586	1.155069	-2.191501
H	1.079897	1.269387	-1.993005
H	-0.399011	1.986993	-1.867838
N	-0.502176	-1.107082	0.854886
O	0.289417	-1.525413	1.722945
O	-1.726614	-1.337092	0.911786
C	-0.450324	1.24232	0.762165
H	-1.537559	1.375472	0.752531
H	-0.127961	1.148198	1.803805
H	0.040269	2.132023	0.360488
Br	2.901078	0.0	0.0
