18

C	-0.391797	0.05589	-1.486656
C	0.0	0.0	0.0
Br	0.006083	-1.816228	-2.234911
H	1.090259	0.0	0.0
N	-1.73158	0.438165	-1.704681
H	-1.930235	0.411188	-2.696763
H	-2.35557	-0.175136	-1.19519
N	0.470034	0.919235	-2.24107
H	0.277341	1.874607	-1.958776
H	1.443599	0.703676	-2.025299
N	-0.55557	-1.189635	0.696665
O	-1.77794	-1.361822	0.599271
O	0.195008	-1.893865	1.359727
C	-0.468683	1.228128	0.770794
H	-0.055875	2.12417	0.305901
H	-1.555546	1.303137	0.796356
H	-0.07023	1.17432	1.786938
Br	3.51426	0.0	0.0
