17

C	0.0	0.0	0.0
C	-0.183319	0.41378	-1.498433
F	1.418023	0.0	0.0
H	0.270076	-0.459653	-1.995942
C	-0.345878	1.098719	0.940815
N	-0.513187	1.905574	1.777856
N	-0.60253	-1.237438	0.291478
H	-0.447286	-1.440853	1.275805
H	-1.642237	-0.943694	0.197709
N	0.608187	1.638137	-1.702989
H	0.410976	1.989463	-2.632015
H	1.595067	1.426794	-1.646241
C	-1.548718	0.654109	-2.109178
H	-2.260536	-0.122498	-1.857982
H	-1.973947	1.577434	-1.717384
H	-1.405844	0.746114	-3.196407
F	-2.846365	0.0	0.0
