17

C	0.0	0.0	0.0
C	-0.403862	-0.561847	-1.415836
F	1.387022	0.0	0.0
H	0.545766	-0.516809	-1.96213
C	-0.320079	1.46322	0.045212
N	-0.462052	2.628165	0.105224
N	-0.550681	-0.718723	1.089219
H	-0.344967	-0.213664	1.946625
H	-1.579501	-0.607838	0.890265
N	-1.393268	0.192186	-2.16787
H	-2.196481	0.254332	-1.516443
H	-1.046216	1.135126	-2.306839
C	-0.85962	-2.011327	-1.326405
H	-0.963254	-2.396314	-2.344741
H	-0.15682	-2.628569	-0.762002
H	-1.833925	-2.026142	-0.837829
F	-2.834925	0.0	0.0
