17

C	0.0	0.0	0.0
C	-0.433516	-0.049018	-1.484084
F	1.386194	0.0	0.0
H	-1.52145	-0.134111	-1.433384
C	-0.356046	1.300663	0.637338
N	-0.528088	2.345011	1.147573
N	-0.548704	-1.126049	0.67392
H	-1.587477	-0.90608	0.536048
H	-0.340384	-1.046964	1.665064
N	0.136789	-1.230318	-2.135959
H	-0.152037	-2.028619	-1.578266
H	1.146914	-1.177753	-2.029103
C	-0.023025	1.203199	-2.238195
H	-0.554889	2.079184	-1.861943
H	-0.263805	1.071352	-3.295358
H	1.053578	1.386387	-2.150094
F	-2.757797	0.0	0.0
