17

C	0.0	0.0	0.0
C	-0.179373	0.277511	-1.530429
F	1.417935	0.0	0.0
H	0.279541	-0.636415	-1.943198
C	-0.347694	1.173631	0.843875
N	-0.499611	2.04307	1.618935
N	-0.601134	-1.20852	0.398847
H	-0.449195	-1.324343	1.397368
H	-1.63864	-0.928965	0.276405
N	0.609292	1.480337	-1.842513
H	1.596311	1.278937	-1.76235
H	0.414677	1.744972	-2.800184
C	-1.54186	0.45454	-2.167871
H	-2.270869	-0.256387	-1.796762
H	-1.404955	0.385652	-3.25704
H	-1.941333	1.436725	-1.913665
F	-2.849631	0.0	0.0
