17

C	0.0	0.0	0.0
C	-0.348145	-0.229887	-1.532466
F	1.382523	0.0	0.0
H	0.582787	0.045396	-2.045903
C	-0.369905	1.399477	0.344511
N	-0.497126	2.543313	0.572114
N	-0.548764	-0.863725	0.986859
H	-0.379595	-1.820253	0.690162
H	-1.575013	-0.672925	0.856903
N	-1.42741	0.559019	-2.101502
H	-1.159592	1.538274	-2.073666
H	-2.211918	0.441839	-1.429619
C	-0.638844	-1.702606	-1.781829
H	-0.740257	-1.861125	-2.856519
H	0.159976	-2.353338	-1.405521
H	-1.584468	-1.949871	-1.299262
F	-2.837085	0.0	0.0
