18

C	0.0	0.0	0.0
C	-0.514526	0.017412	-1.433416
Cl	1.814199	0.0	0.0
H	-0.118994	0.912532	-1.928898
H	-1.605909	0.132145	-1.317137
C	-0.47454	1.255383	0.7088
H	-0.100421	1.288602	1.736394
H	-0.134807	2.152057	0.18174
H	-1.573677	1.211782	0.707973
C	-0.48618	-1.22444	0.751335
H	-1.585055	-1.19889	0.695042
H	-0.168105	-1.180123	1.797183
H	-0.102161	-2.148733	0.313889
C	-0.212482	-1.222527	-2.265877
H	0.853569	-1.467938	-2.262851
H	-0.77177	-2.084583	-1.896746
H	-0.519269	-1.059164	-3.303596
H	-3.4105	0.0	0.0
