18

C	0.0	0.0	0.0
C	-0.291142	-0.121866	-1.510985
Cl	1.814619	0.0	0.0
H	0.207333	-1.036373	-1.853643
H	0.237228	0.705893	-2.000188
C	-0.519117	1.298412	0.579475
H	-1.615965	1.257566	0.562096
H	-0.171057	2.154511	-0.004625
H	-0.185452	1.421105	1.613638
C	-0.52187	-1.186921	0.782181
H	-1.618478	-1.149245	0.752909
H	-0.193191	-1.137281	1.824051
H	-0.172006	-2.127186	0.348285
C	-1.74495	-0.130842	-1.961042
H	-1.764295	-0.231281	-3.053931
H	-2.334799	-0.929284	-1.51528
H	-2.286764	0.769439	-1.678543
H	-4.006937	0.0	0.0
