13

C	0.0	0.0	0.0
C	-0.302147	-0.139827	-1.505025
Br	1.93968	0.0	0.0
H	0.30108	0.609798	-2.021945
H	0.096969	-1.116225	-1.802801
N	-0.410914	1.347519	0.549968
O	-0.525895	1.433357	1.763045
O	-0.477273	2.265479	-0.255204
C	-0.473956	-1.086028	0.840303
N	-0.577402	-2.045952	1.512724
C	-1.676402	-0.024302	-2.004597
N	-2.494999	0.047384	-2.850502
F	-2.274223	0.0	0.0
