15
Coordinates from ORCA-job run
  C   0.79043408591755     -0.82109234966380     -0.43340600558609
  C   -0.58717159014658     -0.18577513513946     -0.39041373984296
  H   0.74752198835237     -1.86897772325007     -0.14112974948882
  H   -1.23889754429989     -0.80436283243887     -1.01590351841527
  H   1.23247555786419     -0.71548269213213     -1.42397216311623
  N   1.70587251084979     -0.14549948736950      0.53046055196088
  O   1.79373789148395      1.07583593831548      0.42599650458227
  O   2.29327632030322     -0.84673501225220      1.34963001602827
  N   -0.55370833153505      1.13800333434643     -1.12780514427537
  O   -0.06902414022813      1.11000515775361     -2.25464713831206
  O   -1.04406744052603      2.11773184048126     -0.58026378160415
  C   -1.15829844026207     -0.03731712634084      1.00365967664362
  H   -1.16082671726697     -1.01262767159552      1.49657794041942
  H   -2.18040462897590      0.33575112818964      0.96374814927930
  H   -0.56891952153044      0.66054263109598      1.59746840172719
