15
Coordinates from ORCA-job run
  C   1.11439446963649      0.18084737132564     -0.14470775671845
  C   -0.37237824786486      0.02016498313677     -0.42423424869694
  H   1.30879123578101      0.93449903950398      0.61319034915379
  H   -0.52924435029639     -0.74515810703209     -1.18404450757411
  H   1.66916341804541      0.39466659279052     -1.05936771569557
  N   1.61522077597797     -1.12364630978668      0.37397829859523
  O   1.55906251882314     -2.07698969848970     -0.40012685506991
  O   2.01518050061625     -1.15921206481379      1.53524021258833
  N   -0.86900010874263      1.29610044600523     -1.03636160286871
  O   -0.44874877547125      2.34862124328154     -0.55829676341899
  O   -1.69323551808163      1.19432754808630     -1.94047028239731
  C   -1.18945493714544     -0.26027906631899      0.82502614565746
  H   -0.89469142742424     -1.21628051972588      1.26112449737646
  H   -2.25027453399573     -0.31443022450642      0.57430140447991
  H   -1.03478501985810      0.52676876654357      1.56574882458883
