15
Coordinates from ORCA-job run
  C   0.81055783937403     -0.70335231352437     -0.57984755740788
  C   -0.59587919128621     -0.16678756528599     -0.38639506571780
  H   1.19374212107624     -0.43470630794504     -1.56405910310138
  H   -1.24503017311383     -0.73275124595378     -1.06236044792696
  H   0.84048826931992     -1.78208011199671     -0.43585956744892
  N   1.73600729194929     -0.11152267336056      0.42857016689893
  O   2.39926662418097     -0.88122938009277      1.11813776950011
  O   1.75362890344637      1.11570691296726      0.49033453938548
  N   -0.67500338128198      1.24530913876733     -0.93207879422702
  O   -1.19068696859538      2.10784578510531     -0.23192620255258
  O   -0.24850659019641      1.40287880749972     -2.07163992813726
  C   -1.09876914143390     -0.24607619816381      1.03923818796521
  H   -2.14090496660489      0.06353513389113      1.09852069198762
  H   -1.01935460216931     -1.27739246088439      1.39174267265217
  H   -0.51855603466492      0.40062247897668      1.69662263813025
