15
Coordinates from ORCA-job run
  C   0.84884149074279     -0.43749695665742      0.48862804843935
  C   -0.43127536845796     -0.15819697938453     -0.25419648575892
  H   0.86521851436205     -1.47004459623174      0.84519464591713
  H   -0.50294399343062     -0.76996611934449     -1.15242733302943
  H   1.00072410369877      0.23848945175114      1.32684968252106
  N   2.05684944318366     -0.28741912173950     -0.38605697261076
  O   1.88920050691595     -0.30493935215103     -1.60244360257170
  O   3.13160729079252     -0.19367375298084      0.19431460791055
  N   -0.42604852104152      1.25840639711778     -0.76353576475683
  O   0.29665628694304      2.07180061469922     -0.19255965419993
  O   -1.19396083123793      1.50014287528835     -1.68811764159611
  C   -1.65532979683653     -0.32830483004204      0.63314194956081
  H   -2.55868846119588     -0.10383780271919      0.06531671752977
  H   -1.72015157522469     -1.35718596593405      0.99227388692233
  H   -1.60269908921366      0.34122613832834      1.49461791572268
