15

C	0.0	0.0	0.0
C	-0.218347	-0.122839	-1.525661
F	1.400129	0.0	0.0
H	0.465852	0.649493	-1.91616
H	-0.355555	-0.896103	0.508491
C	-0.512622	1.272377	0.606931
H	-0.177634	1.350516	1.644434
H	-0.132264	2.136042	0.054209
H	-1.604953	1.252214	0.579224
C	-1.486972	0.190719	-2.195307
N	-2.225716	0.469105	-3.0671
N	0.197368	-1.472962	-1.933488
H	0.130371	-1.549886	-2.941328
H	1.170623	-1.57545	-1.676361
Br	-3.867943	0.0	0.0
