15

C	0.0	0.0	0.0
C	-0.196109	-0.027608	-1.543454
F	1.39798	0.0	0.0
H	0.485338	0.767434	-1.872563
H	-0.349591	-0.927836	0.456626
C	-0.516987	1.223746	0.697846
H	-0.164326	1.241965	1.732082
H	-0.162417	2.124972	0.190034
H	-1.610378	1.191335	0.683716
C	-1.462116	0.305614	-2.207762
N	-2.260697	0.599585	-3.017938
N	0.306837	-1.271481	-2.141149
H	1.191867	-1.482375	-1.693599
H	-0.3413	-2.019516	-1.924267
Br	-3.875557	0.0	0.0
