15

C	0.0	0.0	0.0
C	-0.374982	0.156214	-1.491016
F	1.394508	0.0	0.0
H	0.279274	-0.5525	-2.014995
H	-0.32681	-0.99603	0.317317
C	-0.546891	1.059598	0.918003
H	-0.195844	0.886137	1.938184
H	-0.220438	2.05107	0.595814
H	-1.639748	1.015232	0.913075
C	0.040818	1.496725	-1.950369
N	0.386654	2.56213	-2.301879
N	-1.733673	-0.111161	-1.901392
H	-2.438304	0.331588	-1.310604
H	-1.921128	-1.103448	-1.825248
Br	-4.467229	0.0	0.0
