15

C	0.0	0.0	0.0
C	-0.415544	-0.094012	-1.480838
F	1.386322	0.0	0.0
H	0.392598	-0.660007	-1.958763
H	-0.318793	-0.942157	0.45486
C	-0.553875	1.178028	0.755254
H	-0.235676	1.133967	1.799008
H	-1.647738	1.144302	0.720915
H	-0.207738	2.115994	0.315975
C	-0.383491	1.245511	-2.118436
N	-0.328115	2.276646	-2.679481
N	-1.639523	-0.849159	-1.634161
H	-2.418944	-0.470639	-1.086144
H	-1.935749	-0.844536	-2.602488
Br	-4.444374	0.0	0.0
