16

C	-0.50443	0.0096	-1.45706
C	0.0	0.0	0.0
Br	0.187102	1.531795	-2.451952
H	1.096541	0.0	0.0
N	0.007423	-1.258372	-2.1525
O	1.216273	-1.399752	-2.177406
O	-0.840455	-2.018902	-2.608336
C	-1.959182	0.024871	-1.524904
N	-3.134064	0.044251	-1.55591
N	-0.460815	-1.244503	0.5638
H	-1.34802	-1.116841	1.036294
H	0.234828	-1.617801	1.195788
N	-0.573352	1.158289	0.687827
H	-0.252011	1.09434	1.649508
H	-0.142896	1.998861	0.312973
Br	3.549612	0.0	0.0
