16

C	-0.572512	0.12328	-1.415995
C	0.0	0.0	0.0
Br	0.188094	1.63105	-2.387741
H	1.109815	0.0	0.0
N	-0.222015	-1.126716	-2.22766
O	0.872159	-1.619347	-2.022207
O	-1.060382	-1.497587	-3.044034
C	-2.024004	0.259155	-1.39248
N	-3.191538	0.387375	-1.349039
N	-0.503589	-1.255976	0.515061
H	0.250156	-1.779925	0.938817
H	-1.242554	-1.080393	1.183886
N	-0.514431	1.123456	0.793525
H	-0.024296	1.067495	1.682762
H	-0.190037	1.988737	0.37031
Br	3.532971	0.0	0.0
