16

C	-0.495529	-0.033864	-1.443484
C	0.0	0.0	0.0
Br	-2.449186	-0.058608	-1.503435
H	1.101616	0.0	0.0
N	-0.029032	1.218701	-2.206598
O	-0.486859	1.361795	-3.334334
O	0.781563	1.938127	-1.646767
C	-0.017113	-1.178923	-2.206834
N	0.343941	-2.122413	-2.808847
N	-0.467257	-1.208941	0.69825
H	0.183813	-1.322735	1.472093
H	-0.312098	-2.028564	0.112601
N	-0.509624	1.180151	0.658244
H	-1.143033	0.893581	1.393614
H	0.261371	1.722429	1.029595
Br	3.484879	0.0	0.0
