16

C	-0.513263	-0.007938	-1.459494
C	0.0	0.0	0.0
Br	0.379081	1.345084	-2.531196
H	1.097629	0.0	0.0
N	-0.2397	-1.347625	-2.142291
O	-0.992723	-1.657149	-3.060489
O	0.726108	-1.978986	-1.743028
C	-1.951537	0.228052	-1.50516
N	-3.094167	0.501157	-1.460689
N	-0.600099	-1.182197	0.612794
H	-0.798622	-0.927932	1.572279
H	0.094584	-1.920693	0.62361
N	-0.410175	1.183983	0.717443
H	0.263536	1.92342	0.572336
H	-1.339557	1.501392	0.468542
Br	3.538742	0.0	0.0
