16

C	-0.512172	0.044472	-1.453146
C	0.0	0.0	0.0
Br	0.204834	1.570757	-2.425861
H	1.096638	0.0	0.0
N	-0.036101	-1.214006	-2.187106
O	-0.899129	-1.896264	-2.73031
O	1.163029	-1.42138	-2.16686
C	-1.967144	0.093318	-1.509535
N	-3.14131	0.140817	-1.531528
N	-0.471287	-1.247505	0.54827
H	-1.345053	-1.108682	1.042557
H	0.230213	-1.639818	1.162445
N	-0.562103	1.153938	0.707231
H	-0.218772	1.087553	1.661141
H	-0.140633	1.996727	0.326723
Br	3.560063	0.0	0.0
