16

C	-0.500886	0.242423	-1.443277
C	0.0	0.0	0.0
Br	0.431676	-0.886283	-2.70616
H	1.099949	0.0	0.0
N	-2.007744	-0.087479	-1.465381
O	-2.372177	-1.168987	-1.894918
O	-2.718934	0.77313	-0.956029
C	-0.356202	1.628496	-1.856316
N	-0.254377	2.729023	-2.253696
N	-0.543175	-1.291385	0.448597
H	-0.1772	-2.028228	-0.150893
H	-0.12433	-1.452766	1.360896
N	-0.434534	1.082635	0.840985
H	-1.326222	0.874274	1.272639
H	0.273713	1.276719	1.536179
Br	3.494922	0.0	0.0
