16

C	-0.434869	-0.023021	-1.482286
C	0.0	0.0	0.0
Br	-2.370907	0.013637	-1.668157
H	1.098449	0.0	0.0
N	0.176124	1.213151	-2.173379
O	1.357605	1.080138	-2.461413
O	-0.523859	2.197971	-2.333969
C	0.052997	-1.208947	-2.171895
N	0.444029	-2.189942	-2.688589
N	-0.536091	-1.196039	0.657895
H	-0.052583	-2.010241	0.284142
H	-0.234147	-1.129922	1.625445
N	-0.451123	1.222323	0.597242
H	0.21093	1.522373	1.299621
H	-1.375121	1.109524	0.994452
Br	3.509872	0.0	0.0
