13

C	0.0	0.0	0.0
C	-0.630746	-0.052868	-1.351986
F	1.412304	0.0	0.0
H	-1.76295	0.052751	-1.027173
H	-0.296945	-0.921484	0.50723
H	-0.481876	-1.012573	-1.835028
N	-0.430399	1.110755	0.773987
H	-0.233877	1.965184	0.271729
H	0.041052	1.107354	1.66985
N	-0.188813	0.961928	-2.285603
O	-0.027206	2.128842	-1.884588
O	-0.03725	0.63545	-3.474851
H	-3.026641	0.0	0.0
