13

C	0.0	0.0	0.0
C	-0.536668	-0.064287	-1.406052
F	1.381847	0.0	0.0
H	-1.642025	-0.151961	-1.26961
H	-0.287775	-0.918798	0.522838
H	-0.258034	0.815693	-1.980779
N	-0.514798	1.199909	0.589757
H	-0.311759	1.167047	1.58418
H	-1.543365	1.071922	0.50711
N	-0.042137	-1.244135	-2.136914
O	-0.066252	-2.333233	-1.560854
O	0.328293	-1.088961	-3.305102
H	-3.023159	0.0	0.0
