13

C	0.0	0.0	0.0
C	-0.370561	0.198632	-1.474342
F	1.398412	0.0	0.0
H	-0.068795	-0.657475	-2.075974
H	-0.358803	-0.988308	0.293378
H	-1.450481	0.38571	-1.49956
N	-0.491059	0.955165	0.923818
H	-1.511264	0.753714	0.921149
H	-0.379046	1.881686	0.526775
N	0.400397	1.353383	-1.97909
O	1.383086	1.136456	-2.688519
O	0.047927	2.477845	-1.610806
H	-2.878626	0.0	0.0
