17

C	-0.542469	0.016607	-1.42927
C	0.0	0.0	0.0
Br	-2.471956	-0.170371	-1.550368
H	1.090364	0.0	0.0
N	-0.144856	1.247742	-1.99361
H	-0.431583	1.327957	-2.960479
H	0.861847	1.364739	-1.893146
N	0.092661	-1.188997	-2.237497
O	1.309145	-1.088986	-2.32359
O	-0.615588	-2.036938	-2.755575
N	-0.399716	-1.199673	0.786396
O	-0.49411	-1.075365	2.000968
O	-0.500569	-2.244681	0.149952
N	-0.468108	1.234643	0.709905
O	-1.630701	1.253513	1.105181
O	0.349484	2.142486	0.811277
Cl	3.167578	0.0	0.0
