17

C	-0.537386	-0.00262	-1.436292
C	0.0	0.0	0.0
Br	-2.404379	0.484041	-1.564869
H	1.088806	0.0	0.0
N	0.189764	0.794729	-2.371222
H	1.186265	0.637369	-2.240293
H	-0.010938	1.773598	-2.216003
N	-0.334879	-1.448577	-1.949195
O	0.800211	-1.862807	-1.729092
O	-1.216441	-2.021688	-2.562843
N	-0.448579	-1.13483	0.85682
O	-1.522272	-1.691972	0.579814
O	0.38207	-1.548552	1.664259
N	-0.427067	1.225708	0.720746
O	-0.104737	2.282888	0.182736
O	-1.009935	1.105261	1.795108
Cl	2.680039	0.0	0.0
