17

C	-0.391334	-0.048045	-1.478858
C	0.0	0.0	0.0
Br	-0.054992	1.77772	-2.279062
H	1.117487	0.0	0.0
N	0.316866	-0.996356	-2.234365
H	0.106056	-0.928603	-3.218253
H	1.310253	-0.823075	-2.09563
N	-1.917413	-0.108407	-1.781516
O	-2.622152	0.648385	-1.128759
O	-2.222363	-0.567046	-2.88162
N	-0.217853	-1.251623	0.762609
O	-0.007231	-2.288735	0.13365
O	-0.094277	-1.151316	1.983149
N	-0.467681	1.095848	0.898768
O	0.439306	1.630024	1.555197
O	-1.643569	1.073567	1.263913
Cl	2.745981	0.0	0.0
