17

C	-0.318006	0.093603	-1.494444
C	0.0	0.0	0.0
Br	-2.173205	0.592335	-1.926216
H	1.117369	0.0	0.0
N	0.57864	0.973787	-2.082317
H	0.542728	0.924567	-3.091479
H	1.526253	0.8473	-1.71647
N	-0.210892	-1.345863	-2.167757
O	0.07294	-1.320479	-3.358479
O	-0.421769	-2.34697	-1.499623
N	-0.588871	-1.149418	0.737999
O	-1.814414	-1.212633	0.746885
O	0.185916	-1.905486	1.30788
N	-0.40905	1.227247	0.777283
O	-0.411269	2.304526	0.200695
O	-0.629745	1.045858	1.970522
Cl	3.156848	0.0	0.0
