17

C	-0.623264	-0.01606	-1.396355
C	0.0	0.0	0.0
Br	0.377833	-1.193858	-2.569257
H	1.085512	0.0	0.0
N	-1.977466	-0.399232	-1.393412
H	-2.500969	0.24923	-0.814709
H	-2.343606	-0.392182	-2.336706
N	-0.393975	1.393454	-2.029728
O	0.562072	2.044165	-1.64078
O	-1.196705	1.709583	-2.90113
N	-0.47668	-1.222071	0.736427
O	0.071188	-2.271567	0.432679
O	-1.382962	-1.078725	1.55467
N	-0.481631	1.167066	0.803731
O	-1.473306	1.783376	0.405332
O	0.139238	1.398156	1.830881
Cl	3.169175	0.0	0.0
