17

C	-0.563817	-0.00537	-1.415127
C	0.0	0.0	0.0
Br	0.274934	-1.621041	-2.32319
H	1.084516	0.0	0.0
N	-1.936515	0.116174	-1.541242
H	-2.414021	-0.605298	-1.020306
H	-2.202645	0.163433	-2.517458
N	0.069732	1.124396	-2.246706
O	0.985299	1.775375	-1.716073
O	-0.619079	1.526939	-3.177579
N	-0.501434	-1.117246	0.846858
O	-1.411902	-1.859762	0.402558
O	0.203717	-1.408324	1.805174
N	-0.482979	1.188121	0.798033
O	-1.680638	1.211135	1.088302
O	0.328751	2.084954	1.038155
Cl	3.106122	0.0	0.0
