14

C	0.0	0.0	0.0
C	-0.514562	-0.33424	-1.424498
Br	1.954649	0.0	0.0
H	-0.094924	0.454094	-2.072238
H	-0.314033	1.004318	0.28887
C	-0.439566	-0.97708	0.988711
N	-0.743696	-1.768128	1.80174
N	-1.936296	-0.309732	-1.562739
H	-2.355303	0.599804	-1.414705
H	-2.427112	-0.93106	-0.925158
N	-0.075718	-1.676316	-1.767409
H	-0.603664	-1.951555	-2.58634
H	0.912261	-1.699111	-1.982495
Br	-4.839477	0.0	0.0
