14

C	0.0	0.0	0.0
C	-0.517249	0.403601	-1.442893
Br	1.946933	0.0	0.0
H	0.379542	0.525543	-2.057537
H	-0.321588	0.733804	0.737866
C	-0.404658	-1.341318	0.398848
N	-0.657031	-2.445584	0.710906
N	-1.146105	1.702784	-1.287465
H	-2.024942	1.544237	-0.78898
H	-1.416422	2.005891	-2.217735
N	-1.36754	-0.554778	-2.112453
H	-2.248446	-0.637929	-1.600881
H	-0.92921	-1.467898	-2.165759
Br	-3.977034	0.0	0.0
