14

C	0.0	0.0	0.0
C	-0.52081	0.411173	-1.402408
Br	1.959087	0.0	0.0
H	-0.14882	1.437244	-1.561494
H	-0.312612	0.726562	0.751885
C	-0.433219	-1.340008	0.375985
N	-0.738504	-2.42114	0.718453
N	-1.944925	0.429234	-1.521053
H	-2.381311	-0.461428	-1.302658
H	-2.42139	1.104351	-0.936031
N	-0.029272	-0.552741	-2.373739
H	-0.579038	-0.417461	-3.213462
H	0.947282	-0.397693	-2.586321
Br	-4.870446	0.0	0.0
