14

C	0.0	0.0	0.0
C	-0.575319	-0.322664	-1.399764
Br	1.947831	0.0	0.0
H	-1.656184	-0.181028	-1.266032
H	-0.323711	0.996683	0.304543
C	-0.399001	-0.979411	1.00649
N	-0.632711	-1.805299	1.809059
N	-0.205669	-1.682409	-1.767847
H	-0.759609	-2.325871	-1.210932
H	-0.501495	-1.794751	-2.730716
N	-0.128103	0.56466	-2.447661
H	-0.573531	1.46702	-2.344844
H	0.8786	0.678819	-2.410009
Br	-3.776657	0.0	0.0
