12
Coordinates from ORCA-job run
  C   0.74519186327003     -0.12935798184886      0.35337865026017
  C   -0.72008004607191      0.40362796968567      0.24175264525096
  Br  1.78152243506143      1.14291840105260      1.41920956397458
  H   -1.10015704471422      0.51487661570180      1.26493307832952
  C   0.73568486173885     -1.41800764270479      1.04131228403091
  N   0.69720221188190     -2.45022880581359      1.60406104364497
  C   1.34569568174539     -0.24767837835401     -0.97195434960773
  N   1.80808327926801     -0.33516831001009     -2.05004633485074
  C   -1.54737853668892     -0.57202321295597     -0.47517238529417
  N   -2.20825936350783     -1.36470613886182     -1.03694794715197
  C   -0.75186141294110      1.70615084742475     -0.42708799781244
  N   -0.78764392904164      2.75059663668431     -0.96343825077405
