12
Coordinates from ORCA-job run
  C   0.69005623743087     -0.17717142133123      0.31520790832865
  C   -0.67844796424478      0.12688339482901     -0.37947027028411
  Br  0.84081457874113      0.85482838023803      1.96639749094643
  H   -0.70794541145916     -0.47850439719223     -1.29629358198893
  C   0.75528612834881     -1.60175516667231      0.63275782292995
  N   0.77934650669768     -2.75471497535221      0.86403883072233
  C   1.77700281060901      0.20043472352587     -0.58502897412596
  N   2.63052233252036      0.50527827481948     -1.33474210713203
  C   -0.76713942592860      1.54084637070759     -0.74995297613883
  N   -0.83424107032749      2.66916640703457     -1.06947574822860
  C   -1.79374231346706     -0.27353566106105      0.48088403064086
  N   -2.69251240892078     -0.61275592954552      1.15667757433025
