12
Coordinates from ORCA-job run
  C   0.75443459825460     -0.10404495186372      0.16672419022982
  C   -0.76960888669933      0.02365005539907     -0.16020710377564
  Br  1.59819487230815      1.65592369340553      0.10002431917507
  H   -1.18881704979880     -0.99120857065224     -0.11092970731904
  C   0.90981237429825     -0.65777547706041      1.50979466349474
  N   1.00640913022009     -1.11063442711524      2.59109831431074
  C   1.38255036094523     -0.97442183432749     -0.82442656410070
  N   1.85438197791019     -1.68806917370548     -1.63170335328796
  C   -0.96720639850265      0.54426172013743     -1.51464815247656
  N   -1.13644800592942      0.94079055378233     -2.60726484440559
  C   -1.44540997690068      0.85622456480687      0.83722587922064
  N   -1.99929299610563      1.50430384719336      1.64531235893447
