12
Coordinates from ORCA-job run
  C   0.73142281211349     -0.12282527197953      0.38229906420868
  C   -0.72960347509344      0.40656391143599      0.21080198903619
  Br  1.72899782987555      1.16544093032083      1.46528959888697
  H   -1.14726627522987      0.53047012380466      1.21767358825556
  C   0.69854981527486     -1.40189077621757      1.08753505796895
  N   0.63939040516016     -2.42514756047178      1.66469583187081
  C   1.37752263644449     -0.25959622255971     -0.91980137194890
  N   1.87661113953486     -0.36271001758002     -1.98003571958978
  C   -1.52701658516347     -0.58081962140374     -0.52373397459283
  N   -2.15809003581813     -1.38677926356375     -1.10071149227614
  C   -0.73752650700220      1.69999017986394     -0.47605810789410
  N   -0.75399176009629      2.73730358835068     -1.02695446392543
