12
Coordinates from ORCA-job run
  C   0.73639922268859     -0.15933631406894      0.19473982093081
  C   -0.76295431486849      0.08125117458015     -0.17975799237220
  Br  1.75736305710099      1.48580138964339     -0.06092573528803
  H   -1.28527001616768     -0.87241676447665     -0.01949150381273
  C   0.81979104678201     -0.56039834192742      1.59723208853909
  N   0.85600135961567     -0.88868248496013      2.72613952585197
  C   1.28326813495379     -1.20152174089081     -0.67099820543003
  N   1.69367686684999     -2.05088069630156     -1.37370330095988
  C   -0.88989967638193      0.45228112813662     -1.59069129541235
  N   -0.99838118315637      0.73178478809859     -2.72634565855045
  C   -1.35913745629283      1.09243224671872      0.69585700768150
  N   -1.85085704112372      1.88668561544804      1.40794524882230
