12
Coordinates from ORCA-job run
  C   0.69038186991734     -0.20846624747759      0.29225577975498
  C   -0.68135519167839      0.16219942226500     -0.36129952180726
  Br  0.86811958724402      0.68837891531150      2.01802135012966
  H   -0.72686018076774     -0.36899561477427     -1.32241657296403
  C   0.74679613496954     -1.65415639424445      0.49601061020977
  N   0.76944838212067     -2.82167162702032      0.63754690063249
  C   1.77198856580663      0.22897500846013     -0.58726632543659
  N   2.62178019340203      0.58469408211980     -1.31858964279638
  C   -0.75925122895107      1.60155245896422     -0.61980618219974
  N   -0.82115068013530      2.75162496138093     -0.85046104916206
  C   -1.79266474954698     -0.29242255838538      0.47704467222521
  N   -2.68723270238076     -0.67171240659957      1.13695998141398
