12
Coordinates from ORCA-job run
  C   0.66634033523773     -0.17843229065762      0.36295880772768
  C   -0.64730755968057      0.13229293698231     -0.42706209178979
  Br  0.64801879814853      0.75625818905836      2.07747316002600
  H   -0.58099412492637     -0.41622000535828     -1.37711753822096
  C   0.74980079412901     -1.61727304011665      0.60285705448745
  N   0.79387485793125     -2.78078246297873      0.77002399492498
  C   1.81193040535166      0.27901978740122     -0.42013777397921
  N   2.71370231040527      0.64824256608715     -1.07898593278056
  C   -0.74743498891309      1.56351816886821     -0.72010654055384
  N   -0.82341029746030      2.70778327942869     -0.97409316437199
  C   -1.81986357325548     -0.34735546745743      0.30736426037894
  N   -2.76465695696763     -0.74805166125723      0.87882576415130
