13
Coordinates from ORCA-job run
  C   -0.26642481072039     -0.84827434258094      0.09251358968026
  C   0.20955994193322      0.52595542513530     -0.36021924997052
  Cl  -0.35428464544238     -1.94928554168590     -1.27095778593703
  H   -0.41787520327966      0.90185589900673     -1.16819161327672
  H   0.38356348104052     -1.26685777110773      0.85808611310572
  N   -1.63807187029267     -0.70011174306097      0.70341620297984
  O   -2.41279651880483      0.05761541678817      0.12921791420016
  O   -1.85420288114391     -1.36691409995146      1.70762941635416
  N   1.61094922383186      0.37295248856510     -0.91450972962612
  O   2.42500962279956     -0.15992414280019     -0.17056290962083
  O   1.79550986043797      0.79114695924513     -2.04944474597645
  C   0.24829556488421      1.45466227771608      0.76248628209125
  N   0.26876823475647      2.18717917473068      1.68053651599630
