13
Coordinates from ORCA-job run
  C   -0.56224186536254     -0.78966386752276     -0.38206420377177
  C   0.41259722781437      0.35980900729888     -0.60421464538636
  Cl  -1.79710707811900     -0.78720025898150     -1.62208665027499
  H   0.75789075696223      0.30037903930212     -1.64137367138412
  H   -0.02522541418652     -1.73797843966595     -0.40670535869625
  N   -1.17183199097422     -0.69573471154882      1.00955705467179
  O   -2.26266752681755     -1.20587378026749      1.19624898272760
  O   -0.44486441315506     -0.16194208046878      1.84211765966826
  N   1.68013469727058      0.16653918543977      0.22109479949911
  O   2.11088998528990     -0.97901032892133      0.23627925412261
  O   2.18308330834299      1.15649089245178      0.72351967924257
  C   -0.18463576172385      1.66345235877207     -0.35914530288207
  N   -0.69502192534134      2.71073298411200     -0.21322759753639
