13
Coordinates from ORCA-job run
  C   -0.88220143705348     -0.27369556417158     -0.21364604344805
  C   0.56403888378189      0.16247418311888     -0.42992335130781
  Cl  -1.89979675465777      1.04973654429682      0.28372118109525
  H   1.17967809599046     -0.73550953599164     -0.54006876634883
  H   -1.26636710417140     -0.68941406074406     -1.14681714976161
  N   -0.91868226165403     -1.45241415980959      0.76344743256163
  O   -1.68021268262320     -1.41892123438975      1.71049254576806
  O   -0.17358230564295     -2.36725487176415      0.43319666061893
  N   1.08973772910544      0.86550485023515      0.80916718361074
  O   0.87643141803073      0.26766913362270      1.85590438876130
  O   1.69053552784497      1.91871176233158      0.66102679387137
  C   0.68074453187333      1.01523225887005     -1.60260642532061
  N   0.74167635917603      1.65888069439559     -2.58289445010038
