13

C	0.0	0.0	0.0
C	-0.557567	0.447899	-1.322561
Cl	1.765632	0.0	0.0
H	-1.658179	0.448347	-1.221512
H	-0.374652	-0.97106	0.308478
H	-0.183124	1.422745	-1.618677
N	-0.407303	0.978295	1.076886
O	-0.505029	0.521608	2.208277
O	-0.521974	2.154799	0.75325
N	-0.222608	-0.506601	-2.405558
O	0.01481	-1.677912	-2.115548
O	-0.259631	-0.053747	-3.54971
Br	-3.57439	0.0	0.0
