14

C	0.0	0.0	0.0
C	-0.480532	-0.238414	-1.472341
Br	1.948251	0.0	0.0
H	0.413996	-0.336762	-2.099826
H	-0.312624	-0.842557	0.614094
C	-0.451276	1.314939	0.610356
H	-0.062503	2.159269	0.037256
H	-0.07757	1.38621	1.633958
H	-1.542571	1.333666	0.614736
C	-1.200786	0.901184	-2.051559
N	-1.55857	1.859391	-2.629252
C	-1.176957	-1.519397	-1.628118
N	-1.513134	-2.625338	-1.836638
Br	-3.580525	0.0	0.0
