14

C	0.0	0.0	0.0
C	-0.481239	-0.367444	-1.44572
Br	1.948664	0.0	0.0
H	0.41284	-0.517063	-2.063374
H	-0.311752	-0.785344	0.686276
C	-0.451233	1.363977	0.491075
H	-1.542668	1.381725	0.496241
H	-0.065985	2.153478	-0.157618
H	-0.075028	1.528078	1.50299
C	-1.209202	0.712443	-2.122019
N	-1.573153	1.613283	-2.782559
C	-1.173026	-1.660443	-1.487409
N	-1.505645	-2.781264	-1.603259
Br	-3.58166	0.0	0.0
