14

C	0.0	0.0	0.0
C	-0.479001	0.142878	-1.486185
Br	1.94829	0.0	0.0
H	0.415964	0.202571	-2.117524
H	-0.312861	-0.971399	0.378714
C	-0.455812	1.11573	0.922928
H	-0.087876	0.923737	1.933135
H	-1.547436	1.130406	0.925868
H	-0.066781	2.079053	0.58583
C	-1.198551	1.392053	-1.760104
N	-1.565103	2.461967	-2.076739
C	-1.180487	-1.05617	-1.957804
N	-1.520386	-2.073941	-2.435041
Br	-3.588666	0.0	0.0
