11
Coordinates from ORCA-job run
  C   -0.71117203369096     -0.09585170737509     -0.15188992493128
  C   0.71244104388186     -0.60168988499547     -0.47247634354347
  Cl  -1.86407356983776     -1.06064120283830     -1.12615417482076
  H   0.76367935181447     -1.66573684251452     -0.22712441904893
  H   0.88535080583252     -0.48623370147916     -1.54570940559396
  C   -0.84711195381321      1.31667515852252     -0.51320085846897
  N   -0.92878016125446      2.44934615274403     -0.81611333428616
  C   -1.01505893780411     -0.28293259758823      1.26831097198267
  N   -1.23583429309127     -0.45228580876209      2.41021047102417
  C   1.71788799399917      0.13945615526114      0.28300928463567
  N   2.52267175396376      0.73889427902517      0.89213773305102
