13

C	-0.486714	-0.073569	-1.433032
C	0.0	0.0	0.0
Br	0.526169	-1.388187	-2.471303
H	1.095371	0.0	0.0
H	-1.525047	-0.366482	-1.560348
N	-0.361976	1.255764	-2.118924
O	-1.191096	1.477658	-3.001534
O	0.552398	1.99511	-1.77671
C	-0.424079	-1.199204	0.700429
N	-0.702828	-2.190999	1.269904
C	-0.487169	1.179511	0.685739
N	-0.848626	2.1255	1.286461
H	2.402462	0.0	0.0
