13

C	-0.284798	0.180385	-1.469201
C	0.0	0.0	0.0
Br	-2.169972	0.185097	-1.973206
H	1.09711	0.0	0.0
H	0.139989	1.122639	-1.811186
N	0.389482	-0.882384	-2.298611
O	0.363923	-2.031404	-1.879125
O	0.888523	-0.499511	-3.352241
C	-0.540364	-1.193076	0.617972
N	-0.954337	-2.14036	1.179356
C	-0.420129	1.186099	0.721128
N	-0.695672	2.172773	1.300029
H	2.447668	0.0	0.0
