13

C	-0.273165	0.070834	-1.483712
C	0.0	0.0	0.0
Br	0.116561	1.815994	-2.206421
H	1.097892	0.0	0.0
H	0.370107	-0.643656	-1.999792
N	-1.689727	-0.272106	-1.871292
O	-2.596984	0.187101	-1.187164
O	-1.821519	-0.990555	-2.861656
C	-0.417019	-1.292287	0.51096
N	-0.705632	-2.368176	0.891057
C	-0.516132	1.092577	0.795153
N	-0.832256	1.996146	1.479789
H	2.447091	0.0	0.0
