14

C	-0.327826	-0.057041	-1.494546
C	0.0	0.0	0.0
Br	-2.314795	-0.812596	-1.605546
H	1.095518	0.0	0.0
H	-0.331156	-0.918841	0.486498
N	-0.207181	1.179943	-2.103693
H	-0.348097	1.127673	-3.10225
H	-0.723271	1.928116	-1.664297
N	0.450763	-1.010753	-2.229584
H	1.432962	-0.77637	-2.05123
H	0.283085	-1.940287	-1.86525
C	-0.566938	1.154654	0.673044
N	-1.036279	2.113465	1.163541
Br	3.477946	0.0	0.0
