14

C	-0.324863	0.065185	-1.486151
C	0.0	0.0	0.0
Br	-2.322222	0.774905	-1.657796
H	1.097164	0.0	0.0
H	-0.334702	0.916228	0.486735
N	0.477639	1.08135	-2.063231
H	0.406194	1.088325	-3.07283
H	1.448432	0.931935	-1.77717
N	-0.251028	-1.198393	-2.098511
H	-0.405997	-1.144733	-3.096394
H	-0.883486	-1.872434	-1.68408
C	-0.559931	-1.165739	0.657238
N	-1.032947	-2.118832	1.15393
Br	3.478569	0.0	0.0
