14

C	-0.417299	-0.065954	-1.462087
C	0.0	0.0	0.0
Br	-0.041717	1.937547	-2.249205
H	1.092188	0.0	0.0
H	-0.313529	-0.956795	0.433776
N	0.409435	-0.966076	-2.126872
H	0.262758	-0.972426	-3.126269
H	1.390154	-0.793439	-1.908154
N	-1.794707	-0.30587	-1.644751
H	-2.322512	0.429784	-1.19326
H	-2.039001	-0.304718	-2.627821
C	-0.619021	1.076387	0.751954
N	-1.187366	1.891605	1.378406
Br	3.474529	0.0	0.0
