14

C	0.0	0.0	0.0
C	-0.576966	-0.089387	-1.403004
Cl	1.773066	0.0	0.0
H	-1.663381	-0.286716	-1.292776
H	-0.359127	0.93135	0.435647
C	-0.420912	-1.135481	0.825431
N	-0.571389	-2.078674	1.508639
N	0.079073	-1.166748	-2.198513
O	0.933971	-0.856883	-3.022512
O	-0.279345	-2.30576	-1.913997
N	-0.45463	1.196326	-2.149844
O	0.04798	2.163912	-1.584083
O	-0.924561	1.183622	-3.281512
Cl	-3.300722	0.0	0.0
