14

C	0.0	0.0	0.0
C	-0.576106	0.073497	-1.403106
Cl	1.773619	0.0	0.0
H	-1.669986	0.235271	-1.283619
H	-0.351724	0.897208	0.510504
C	-0.45565	-1.182012	0.729764
N	-0.663107	-2.139693	1.377614
N	-0.387536	-1.144899	-2.236886
O	-1.052428	-1.170571	-3.267596
O	0.388114	-2.015259	-1.848595
N	0.0377	1.237101	-2.115508
O	-0.128	2.318213	-1.558839
O	0.655997	1.045199	-3.157205
Cl	-3.308354	0.0	0.0
