14

C	0.0	0.0	0.0
C	-0.475783	-0.02789	-1.466367
Cl	1.775044	0.0	0.0
H	-1.510032	-0.372402	-1.563475
H	-0.378386	0.907823	0.462476
C	-0.415714	-1.188756	0.742479
N	-0.639217	-2.218571	1.259865
N	0.393471	-0.924376	-2.302048
O	1.150904	-0.425763	-3.125981
O	0.266729	-2.11857	-2.054693
N	-0.44474	1.335103	-2.081838
O	0.07573	2.257334	-1.461674
O	-0.961128	1.40787	-3.191336
Cl	-3.160967	0.0	0.0
