14
Coordinates from ORCA-job run
  C   1.03766483346935     -0.22091491805734     -0.01034809678251
  C   -0.28228901437990      0.30873063979983     -0.59117563374629
  H   1.35247282759689      0.44320266855866      0.80755282727224
  H   -0.52964466520865     -0.31287070679956     -1.45845500671535
  H   1.80561146477565     -0.16189421434170     -0.78581425950839
  N   0.87118309587851     -1.61660418258031      0.38697091375293
  H   1.75407206700472     -2.10514434617671      0.32162349027108
  H   0.56804622231832     -1.67614175823448      1.35020049724478
  C   -0.09388399440939      1.68560619080525     -1.05533544104026
  N   0.07687564484866      2.79457216211522     -1.40163356812310
  C   -1.42681004423216      0.23235604575125      0.42097831560868
  H   -1.59431931539576     -0.80907325707547      0.69885462740330
  H   -2.35235349813206      0.62754750366956     -0.00079058794752
  H   -1.18662562413418      0.81062817256579      1.31737192231040
