16

C	-0.543417	-0.021494	-1.429172
C	0.0	0.0	0.0
Br	0.282235	-1.537607	-2.350867
H	1.091657	0.0	0.0
H	-0.179253	0.856035	-1.961857
N	-1.974178	-0.119023	-1.613168
H	-2.322479	-0.959495	-1.167567
H	-2.392557	0.690829	-1.169682
C	-0.494748	-1.113493	0.903959
H	0.023572	-1.055441	1.859841
H	-1.573895	-1.05353	1.078907
H	-0.255828	-2.073565	0.444888
N	-0.371436	1.311442	0.637528
O	0.023827	1.507452	1.781402
O	-1.038343	2.126747	-0.01052
Cl	3.316254	0.0	0.0
