14
Coordinates from ORCA-job run
  C   0.71040189401135      0.12613019163360     -0.37254308131498
  C   -0.81667753457069      0.17085664407716     -0.28679168934838
  Cl  1.23775664452226     -1.33474548701967     -1.27927491523990
  H   -1.07808515393781      1.13179072311972      0.17388224623286
  H   -1.20720008395261      0.19396713992082     -1.30738849629852
  N   1.29042755363754      0.05120513226881      0.94688773576685
  H   2.30258845102500      0.04755660342312      0.89106821039620
  H   0.99923137114890      0.85851981230130      1.48875268864228
  C   1.18581663973588      1.28649099157260     -1.15263167509154
  N   1.55412219390465      2.25491088476020     -1.70806170337449
  C   -1.42460620981774     -0.97968148755016      0.50470998439422
  H   -2.51022817048429     -0.86568352134799      0.53871134671294
  H   -1.04436984662132     -1.00272836819372      1.52516563568856
  H   -1.19917774860113     -1.93858925896579      0.03751371283390
