14
Coordinates from ORCA-job run
  C   0.74721605803410      0.26352090787047     -0.32974528117287
  C   -0.33990065724762     -0.66642745041119      0.22333493611142
  Cl  0.60949009912758      0.29348129798969     -2.12643401250114
  H   -0.15355767796243     -0.74356762371956      1.30124763471594
  H   -0.15498237351726     -1.65519072481903     -0.21020504417952
  N   2.10611395416550     -0.12055779081400     -0.01642710758417
  H   2.25849352149871     -1.08134415680525     -0.30359306699517
  H   2.25997069995270     -0.04667578038841      0.98360289033604
  C   0.53267402387990      1.63144439178022      0.16209311306598
  N   0.33606904222455      2.69701780291215      0.61480420673860
  C   -1.77453269056867     -0.22335371808551     -0.03013500872365
  H   -2.46922187253013     -0.93526452962249      0.42029223937396
  H   -1.96831721504911      0.75722604338956      0.40981085504075
  H   -1.98951491200782     -0.17030866927665     -1.09764635422615
