13
Coordinates from ORCA-job run
  C   0.96708904262072      0.39519277981208     -0.18193963780796
  C   -0.37269482382609     -0.08872437426952      0.39468645585067
  Cl  1.65475940975808      1.69949622783887      0.81513944640491
  H   -0.25729899187082     -0.36127895372734      1.44360652042062
  H   0.78755592093298      0.80659011572884     -1.17835948689567
  C   1.88213615845581     -0.73649922553901     -0.26089707858564
  N   2.57912820948165     -1.68038677758797     -0.31408378203182
  N   -1.00707404362921     -1.13681229104251     -0.33609620608568
  H   -0.98909032460618     -0.97688173001639     -1.33484502125656
  H   -0.62149495733712     -2.04295676009047     -0.11222424837664
  N   -1.30839519221099      1.09273037566877      0.37203630605106
  O   -1.49644066985954      1.58925301616395     -0.73616489049409
  O   -1.82017973790930      1.44027759706071      1.42814162280680
