13
Coordinates from ORCA-job run
  C   0.98959985831265     -0.23119523954981     -0.32254908514435
  C   -0.44119142990949     -0.31409517035439      0.26380401056767
  Cl  1.00013298248047      0.58225654049588     -1.90800077347101
  H   -0.36282591367753     -0.79867134726677      1.23919612053295
  H   1.30719532225443     -1.26156438169549     -0.50414097771837
  C   1.94804396173793      0.39712610608849      0.57946916039174
  N   2.74385373298417      0.86283214670653      1.30729850701860
  N   -1.42009823844495     -0.96748911508196     -0.53017726970759
  H   -1.44612979383354     -0.61572191326854     -1.47733728782111
  H   -1.30388742956590     -1.97062788895464     -0.51853889298334
  N   -0.90525900242927      1.09346961907578      0.55568586125658
  O   -1.58928216498517      1.64198603336610     -0.29960219922714
  O   -0.52015188492382      1.57969461043882      1.61589282630538
