13
Coordinates from ORCA-job run
  C   1.03490569321621     -0.47855615886083      0.29892236713542
  C   -0.47835518126437     -0.33830219734955      0.14638131242961
  Cl  1.53442508117559     -2.03967628798015     -0.41810185866127
  H   -0.95347816188756     -1.17392139630767      0.68423280491680
  H   1.29289511573391     -0.52352725290390      1.35558523498006
  C   1.74278449356508      0.62815791751072     -0.33312983010049
  N   2.30738553379198      1.53206009131659     -0.82534424506029
  N   -0.85115436036309     -0.15916330013263     -1.22143362605625
  H   -0.62149118726430     -0.98449287346294     -1.75929928096205
  H   -1.84168798197933      0.03016328905220     -1.29622964542288
  N   -0.93065882367984      0.88711831358098      0.92066697343958
  O   -0.27020529862190      1.20084192170687      1.90614426549386
  O   -1.96636492242240      1.41929793383031      0.54260552786791
