13
Coordinates from ORCA-job run
  C   1.07190571968063     -0.21728862300112     -0.30115656479501
  C   -0.35680021425330     -0.38573006487893      0.22644835219459
  Cl  1.07531895886672      0.68416577943677     -1.84221341345613
  H   -0.30282441280227     -0.82703334030724      1.22453742321607
  H   1.42586322364656     -1.22462254670101     -0.53054836056978
  C   1.98519582569980      0.40430346457410      0.65060221071429
  N   2.76879393939288      0.87819912736305      1.38576497851365
  N   -1.11885945019507     -1.19579241809873     -0.64359808088292
  H   -2.01447652238024     -1.42773716256939     -0.23585045691331
  H   -1.27819465431567     -0.73047461530675     -1.52832249955845
  N   -0.94748226947411      1.01353600372295      0.47036052518624
  O   -1.83067435629505      1.39153978797123     -0.29148166675255
  O   -0.47676578757088      1.63793460779507      1.41545755310330
