13
Coordinates from ORCA-job run
  C   1.02275630779573     -0.41990213612436      0.24495066850807
  C   -0.52541576494951     -0.40438145150501      0.22943248417763
  Cl  1.58434841047663     -1.97115979480885     -0.43016059893606
  H   -0.86806659717072     -1.25447256342954      0.82108363170313
  H   1.37927965528418     -0.36889113973845      1.27539191333530
  C   1.55254694586512      0.69376956271987     -0.53102920455712
  N   1.92985309840424      1.60308238513831     -1.17201731663328
  N   -1.18622373389764     -0.37269548168101     -1.02164491905096
  H   -0.86343292618235      0.37969003328084     -1.61620714487145
  H   -1.12036885077976     -1.26123918656499     -1.49700937634026
  N   -0.89908633492229      0.82556929621834      1.03316641605715
  O   -0.70979015985382      0.74161745730723      2.24419336023251
  O   -1.29640005006983      1.80801301918760      0.41985008637534
