13
Coordinates from ORCA-job run
  C   1.07381411189594     -0.26352134467302     -0.25236869515002
  C   -0.38264921184018     -0.36328765722872      0.21311966467750
  Cl  1.18350805216183      0.62189907236500     -1.79903449204968
  H   -0.39199962880826     -0.79160950691994      1.21829137904661
  H   1.39262358196832     -1.28751939568167     -0.45815162383877
  C   1.97163057331088      0.32401771730960      0.73485643471442
  N   2.73793678265962      0.73947263787062      1.52170958728695
  N   -1.13916537019185     -1.15347011751461     -0.67978808578238
  H   -1.23823347948900     -0.69543979302974     -1.57707097800288
  H   -2.06187257247100     -1.33965592820044     -0.31073103651635
  N   -0.92279827472271      1.06311509926522      0.41233198898823
  O   -1.76330415067146      1.46236821531370     -0.38599876086244
  O   -0.45949041380213      1.68463100112399      1.36283461748883
