13
Coordinates from ORCA-job run
  C   1.05172598128514      0.27880125028962     -0.20853859629815
  C   -0.30998130530526     -0.10986769494605      0.36654458489462
  Cl  1.73017659194119      1.66682046809101      0.67671134791568
  H   -0.23115627111031     -0.34268293598272      1.42850378618828
  H   0.91659699554514      0.59617035268857     -1.24568357810637
  C   1.96026340876389     -0.85875221665103     -0.14526083545085
  N   2.70755538019535     -1.76250356026976     -0.08921512602676
  N   -0.84614252981040     -1.19862469897692     -0.36742485434972
  H   -1.09234900638522     -0.92507673356138     -1.31078519140579
  H   -1.64428035610590     -1.61531990343325      0.09228913753584
  N   -1.18983261890160      1.13359416782048      0.29518373255105
  O   -1.69110672624037      1.54084806200187      1.33743153997198
  O   -1.35946954387166      1.59759344292955     -0.83075594741980
