13
Coordinates from ORCA-job run
  C   1.03995662009931      0.37897426670215      0.04244503707571
  C   -0.34937998595261     -0.21508878066144      0.27255645597864
  Cl  1.44542559790632      1.53752167569784      1.33228370877714
  H   -0.40746317261427     -0.70139299527372      1.24640124826778
  H   1.03140744301238      0.93697936672221     -0.89744298525407
  C   2.03216433542067     -0.68671090648860     -0.01555699073600
  N   2.84423103667469     -1.53379643651901     -0.05164808258512
  N   -0.66581578472492     -1.11299489508540     -0.77873540066946
  H   -1.48111998630114     -1.67376190238480     -0.57161335140950
  H   -0.79357721648639     -0.62553598369041     -1.65712493455460
  N   -1.32172792168943      0.95671016846893      0.35417285744554
  O   -1.36526865488028      1.67808108233165     -0.64061240472711
  O   -2.00783231046434      1.06201534018059      1.36487484239103
