13
Coordinates from ORCA-job run
  C   1.07853421770456     -0.23875127140742     -0.25718963779041
  C   -0.37241923291863     -0.37059623054984      0.21751741812470
  Cl  1.15805305773678      0.64114858657224     -1.80877688872069
  H   -0.36579837108171     -0.79149439999108      1.22583121581248
  H   1.42012037841194     -1.25598885056759     -0.46016556839936
  C   1.96788109980968      0.37401864317119      0.72235901320536
  N   2.72793098345245      0.81041779190295      1.50392551991939
  N   -1.11471732173370     -1.18520788489763     -0.66521554313171
  H   -2.02950747379826     -1.39311340054602     -0.28863549189443
  H   -1.23170753624505     -0.73539294381334     -1.56444145590886
  N   -0.94576711704166      1.04388426834669      0.40925825436633
  O   -1.80302277029971      1.41514768133735     -0.38466889421062
  O   -0.48957991399670      1.68492801044250      1.35020205862782
