13
Coordinates from ORCA-job run
  C   1.02398784649986     -0.39869266044300      0.27235815477899
  C   -0.52381816397870     -0.40475204658461      0.23379885790580
  Cl  1.61683780069029     -1.96115996104153     -0.34768391296322
  H   -0.86306748768518     -1.24110992106526      0.84665180950622
  H   1.36351102830244     -0.31252574548570      1.30623578305716
  C   1.55203634782021      0.69885776804088     -0.52746604105464
  N   1.92887577663129      1.59569200660052     -1.18600067035118
  N   -1.16654681869169     -0.42137510129705     -1.02727147580797
  H   -1.07427316761284     -1.32128486598526     -1.47644550115247
  H   -0.84890258733834      0.32067528872762     -1.63743686360985
  N   -0.92586992014131      0.84405543292921      0.99240795936136
  O   -0.75649930240197      0.80021720587568      2.20853747895755
  O   -1.32627135209404      1.80140259972849      0.34231442137223
