13
Coordinates from ORCA-job run
  C   1.05027890302270      0.25244957369698     -0.24176436531660
  C   -0.31886248512329     -0.02929820000670      0.37622148805288
  Cl  1.67224729061837      1.82654249291376      0.31047371188306
  H   -0.26661253065136     -0.00329967222029      1.46470857188478
  H   0.93846121655681      0.31588476400753     -1.32725044502711
  C   1.98157707267929     -0.81392657228969      0.10386360367269
  N   2.74752067546918     -1.65977699280585      0.37973758377523
  N   -0.80863330966531     -1.27512185405090     -0.09237693578974
  H   -1.02915637062219     -1.23975156248762     -1.08005594708010
  H   -1.61304532677628     -1.59250407536386      0.43130711853221
  N   -1.22317410020789      1.13705513238406     -0.00736198572208
  O   -1.36748367775613      1.32002647660482     -1.21468296234412
  O   -1.76411735754390      1.76372048961774      0.89718056347891
