13
Coordinates from ORCA-job run
  C   1.00358744081940     -0.27995407575698     -0.23149196474416
  C   -0.46756658779851     -0.28382248644153      0.25132305218845
  Cl  1.15364045166327      0.41545143567810     -1.86525989261045
  H   -0.47444963551815     -0.69960664150620      1.26101847643564
  H   1.30205447521738     -1.32843659406665     -0.31568416324132
  C   1.91254302301398      0.38848990396952      0.69243474437605
  N   2.66600755861225      0.88652721988698      1.44335526901628
  N   -1.40728627767243     -0.96541727944635     -0.56563994525348
  H   -1.35846559403759     -0.67652388970996     -1.53289333568216
  H   -1.32252700128732     -1.96823273720602     -0.48052661701827
  N   -0.90771056399697      1.15220403595740      0.41093237306598
  O   -0.58876027762002      1.70151231612763      1.46240713853355
  O   -1.51006701139529      1.65680879251405     -0.52897513506611
