13
Coordinates from ORCA-job run
  C   1.02473781815588     -0.36414775533470      0.31374010713444
  C   -0.52161610109921     -0.39413075793319      0.25233183304870
  Cl  1.64658948806918     -1.95682557793025     -0.19083284180428
  H   -0.86051353069786     -1.19201524628134      0.91460341897330
  H   1.34683721969861     -0.20443836603937      1.34432857388112
  C   1.55199738030576      0.68307540829392     -0.55131299071607
  N   1.93027766851159      1.53480341208438     -1.26653159597463
  N   -1.14413333937478     -0.50307238086714     -1.01360277952529
  H   -1.04969365573058     -1.43330837819935     -1.39432917633241
  H   -0.81965380709549      0.19274622796406     -1.67235338049598
  N   -0.95191049377424      0.89720298662710      0.92133504627589
  O   -1.35474158733902      1.80367193037917      0.20370163570208
  O   -0.80017705962982      0.93543849723671      2.13992214983313
