13
Coordinates from ORCA-job run
  C   1.05450575557020      0.29842684774585     -0.16067305478801
  C   -0.31771354070454     -0.14160724352952      0.34869485154134
  Cl  1.70594030230657      1.60928011470940      0.85306108860126
  H   -0.26117362715104     -0.46328488335895      1.38865109149988
  H   0.94136002013002      0.70120890325479     -1.17046795323377
  C   1.96692614547755     -0.83784922905612     -0.17240344201221
  N   2.71684666640032     -1.74114085811632     -0.17561879495052
  N   -0.83226188980670     -1.16564980401953     -0.48677051056211
  H   -1.05894590248543     -0.81356540440126     -1.40874751996930
  H   -1.63814615521693     -1.62249826650568     -0.08195644402005
  N   -1.20179209549557      1.10080495936531      0.36352418387432
  O   -1.72834008554241      1.41608903438604      1.42497414974019
  O   -1.34820559348205      1.65878582952598     -0.72226764572101
