13
Coordinates from ORCA-job run
  C   1.09291179281796     -0.46743654760893      0.17230043844586
  C   -0.43969162768654     -0.48457919981450      0.12830640162870
  Cl  1.74278054333871     -1.95418350445150     -0.55200704930985
  H   -0.79095902998419     -1.39564209205945      0.61608252770498
  H   1.41795192852365     -0.44682206678458      1.21287008588207
  C   1.59943731269935      0.71130537315579     -0.52383722235274
  N   1.95664302408223      1.67747390869639     -1.08829626042284
  N   -0.95136897249793     -0.36660125627518     -1.17262353162222
  H   -0.75264951459443      0.53700707378696     -1.58342981277388
  H   -1.94600603526706     -0.53786186345536     -1.20728569476971
  N   -0.87632566346488      0.64471138900908      1.09844063436490
  O   -1.49459111830870      1.59128113857791      0.62559652541170
  O   -0.55713263965816      0.49234764722338      2.27388295781306
