13
Coordinates from ORCA-job run
  C   1.06978778897508      0.36418498373485      0.06137514287537
  C   -0.38424735715998     -0.05135127674473      0.25501734261111
  Cl  1.59267760499950      1.39483733434952      1.41402263696864
  H   -0.54904649866909     -0.38172381483340      1.28735082729167
  H   1.14229230475655      0.95162623886170     -0.85465220994031
  C   1.91036876936607     -0.82352804899662     -0.02487168025351
  N   2.54113989103450     -1.81131716255453     -0.10284106683675
  N   -0.79510468355548     -0.95515632621771     -0.78852764603127
  H   -1.76668995322663     -1.21001474268669     -0.64981088606775
  H   -0.24189823992351     -1.80380579435909     -0.76108372398721
  N   -1.27265800690148      1.16317604316986      0.10151665477327
  O   -2.37517477696969      1.05818744503608      0.63245370107592
  O   -0.87344684272584      2.10588512124077     -0.56994909247917
