13
Coordinates from ORCA-job run
  C   1.00573869671438     -0.47168010926954      0.21884021901185
  C   -0.54050660174784     -0.39428396478627      0.21084999639590
  Cl  1.50416174217911     -2.00776523417265     -0.53606793188851
  H   -0.91491094882975     -1.25897733232126      0.76058860406953
  H   1.36619242024508     -0.48715925681352      1.24904021213230
  C   1.57760039669786      0.65784659377437     -0.50243677836677
  N   1.98899005241670      1.58318869586851     -1.09777641099688
  N   -1.20263969332190     -0.27332602098073     -1.03396212504077
  H   -1.17458994787367     -1.13874121349319     -1.55355273377178
  H   -0.85190004954013      0.49471470951082     -1.59140734602153
  N   -0.86285531498983      0.80748196439845      1.07721002150461
  O   -1.22241834998419      1.83468980947415      0.51603299361563
  O   -0.67386240196582      0.65501135881084      2.28164127935643
