13
Coordinates from ORCA-job run
  C   1.08186654778700     -0.26688546569440     -0.21039726571487
  C   -0.38461903615121     -0.35327338686571      0.22577495002720
  Cl  1.22101607978142      0.52516724899717     -1.80460992403416
  H   -0.41468571262406     -0.71905585942644      1.25494069529864
  H   1.41396170372919     -1.29824927591042     -0.34682869235273
  C   1.95053956109202      0.38786099611349      0.76044137000527
  N   2.69412521107878      0.85784342778734      1.53834148226809
  N   -1.11184096605841     -1.20466327437987     -0.63448348391777
  H   -2.04029219566437     -1.38083520262960     -0.27505267422612
  H   -1.19587086347123     -0.80261878848673     -1.55967149747342
  N   -0.94159056619364      1.07703275544398      0.32398265745712
  O   -1.76480623516060      1.41871887788796     -0.51776836481456
  O   -0.50680352814488      1.75995794716323      1.24533074747731
