13
Coordinates from ORCA-job run
  C   1.05448464989997     -0.45228882663962      0.26622995021490
  C   -0.46634007698180     -0.34779601585095      0.16838930645411
  Cl  1.56213717501878     -2.01214653480165     -0.44636587124665
  H   -0.90277811691021     -1.18193524688166      0.73996303169481
  H   1.35385296385329     -0.47433216151215      1.31260865562768
  C   1.71287281037024      0.66047034348715     -0.40728326948698
  N   2.26167941464987      1.56582730838614     -0.91433466551017
  N   -0.89273232378290     -0.20592733112574     -1.18880362879367
  H   -1.88406752890385     -0.01015133465332     -1.22735971391147
  H   -0.69452719412414     -1.05149716942136     -1.70781695156754
  N   -0.91271466828186      0.88512694427701      0.93368991161215
  O   -1.95894215347155      1.40761676732325      0.57121364299411
  O   -0.23192495133585      1.21803325741289      1.89886960191871
