13
Coordinates from ORCA-job run
  C   0.99645208551399     -0.27260204294397     -0.26647061255878
  C   -0.45792549450806     -0.28715840868567      0.26441244604237
  Cl  1.08909548538732      0.43303557960178     -1.90030413317132
  H   -0.42933211486371     -0.70859240544187      1.27137259642216
  H   1.29751453045331     -1.31896857450004     -0.36669340381985
  C   1.93191285703198      0.39497246307107      0.63146367361067
  N   2.70657791064643      0.89363117179579      1.36032249734996
  N   -1.41981723006924     -0.97000789059664     -0.52511706371607
  H   -1.40032110458458     -0.68122608502428     -1.49340937105238
  H   -1.33100803430655     -1.97255725269899     -0.44234312526713
  N   -0.90012186368505      1.14560177967701      0.44697133994480
  O   -0.54805237902237      1.69050099042690      1.49003246399461
  O   -1.53597464799347      1.65237067531892     -0.46923730777905
