13
Coordinates from ORCA-job run
  C   1.07717284496381     -0.25666245044253     -0.24341317576429
  C   -0.37456072952373     -0.35749983210094      0.23635403355057
  Cl  1.16085997897928      0.54098934268419     -1.83881747843982
  H   -0.37039420491852     -0.72556887449956      1.26516209847309
  H   1.41471664023394     -1.28440779249379     -0.39285367202566
  C   1.96903473653163      0.40305156607012      0.70267762828177
  N   2.73235110484132      0.87487422320090      1.46009311790280
  N   -1.11980870752475     -1.21332338207982     -0.60377038478688
  H   -2.03683432831161     -1.39547262362351     -0.21890574226101
  H   -1.23233494076930     -0.81109233068959     -1.52586814265024
  N   -0.94163590367639      1.06771979502978      0.35486903134038
  O   -0.48293484357409      1.75393162665064      1.26203132239965
  O   -1.79563164725158      1.40246073229410     -0.45855863602035
