13
Coordinates from ORCA-job run
  C   1.00714652204310      0.28871156325674     -0.15859822541913
  C   -0.38087731040969     -0.07903836569357      0.38801299331302
  Cl  1.84999838335782      1.40413509427046      0.94378366607817
  H   -0.29800763856019     -0.46141955630071      1.40523323046015
  H   0.87898203352239      0.80722212603021     -1.11203447314692
  C   1.77848415617778     -0.93358994076312     -0.34709492581874
  N   2.35796389763742     -1.94528381110336     -0.48944199172374
  N   -1.14037087508186     -0.96781377046146     -0.42946767858195
  H   -1.09987624127340     -0.72082405439732     -1.40991414324098
  H   -0.87281119832437     -1.93184195444089     -0.29269798680544
  N   -1.16391579170358      1.20506092173976      0.48846213233158
  O   -1.29140073279199      1.82321363359935     -0.56580325887081
  O   -1.62631520459343      1.51146811426391      1.57956066142480
