13
Coordinates from ORCA-job run
  C   1.12428523558546     -0.38225151659817      0.18070091304445
  C   -0.40431672452783     -0.50133091843208      0.17188906723467
  Cl  1.85770393765288     -1.87325683348231     -0.44911127187514
  H   -0.68633169267785     -1.39586473182368      0.73008104468905
  H   1.46553577171003     -0.26480117109134      1.20956016855280
  C   1.54000742172696      0.77227981692213     -0.60977025669370
  N   1.82314421224931      1.71562926708455     -1.24978084123817
  N   -0.94518197053985     -0.50970207266267     -1.12239161804969
  H   -0.81397130550934      0.37326309705744     -1.59991570010264
  H   -1.92652211244043     -0.74792148097470     -1.12374427807491
  N   -0.89794380460725      0.66379883170494      1.07018268707865
  O   -1.58688805958738      1.53139400965884      0.54637360843350
  O   -0.54852090903472      0.61676370263706      2.24592647700114
