13
Coordinates from ORCA-job run
  C   1.00181438893546     -0.29133718669257     -0.22484944003372
  C   -0.47551014586666     -0.28118988594289      0.23866029794208
  Cl  1.18486761083237      0.43138647277106     -1.84351604671744
  H   -0.50225731713852     -0.71848183795537      1.23885210822637
  H   1.28542292051431     -1.34266840089556     -0.32428369326633
  C   1.90821542028782      0.34603368996609      0.72352056191512
  N   2.65807740751447      0.82058532640128      1.49312691808350
  N   -1.41465481190018     -0.93021748505725     -0.60489397661725
  H   -1.35354476066873     -1.93548881220368     -0.53257312211110
  H   -1.34210139444319     -0.62944751412123     -1.56700494918482
  N   -0.89446608968645      1.15807158278493      0.42376653544582
  O   -1.47045513213117      1.69430925406296     -0.51494674958744
  O   -0.58540809624952      1.67744479688223      1.49314155590520
