13
Coordinates from ORCA-job run
  C   1.03500220486882     -0.40184270390500      0.22333547301350
  C   -0.51298993664160     -0.40767575408196      0.25005691111648
  Cl  1.59910827836451     -1.95760655439779     -0.43995406749506
  H   -0.82711870330079     -1.25522514612731      0.86090375290429
  H   1.41988370836983     -0.32735357793044      1.24212021366848
  C   1.52734474445482      0.70325548344283     -0.58897251896897
  N   1.87293018439166      1.60335279367526     -1.26000886379200
  N   -1.20766046295925     -0.40035822296179     -0.98298777783684
  H   -1.13762109683612     -1.29169061722920     -1.45225201644036
  H   -0.91526661831134      0.35286495797579     -1.59196227451743
  N   -0.88288498610361      0.82634765526398      1.04907452381613
  O   -1.31041751039475      1.79568075142870      0.43516940457472
  O   -0.66030980590218      0.75925093484694      2.25547723995706
