13
Coordinates from ORCA-job run
  C   1.00387731843426     -0.27396834233182     -0.23629876423786
  C   -0.46564309160735     -0.28643650032441      0.25175743688007
  Cl  1.14483702178903      0.42775117307590     -1.86818179576781
  H   -0.46657086561526     -0.70551921657536      1.26005084183909
  H   1.30681652547760     -1.32086408267674     -0.32480290526374
  C   1.91293402657064      0.39525714948729      0.68721807046127
  N   2.66625776742040      0.89484570327155      1.43734801704041
  N   -1.40460401102877     -0.97025205657748     -0.56427714685114
  H   -1.31587896937363     -1.97280526941774     -0.48031861433742
  H   -1.35760827448667     -0.68085792802626     -1.53151766237307
  N   -0.91204575011031      1.14694752487816      0.41789431998179
  O   -0.59050842101108      1.69405911202599      1.46961033613603
  O   -1.52086327645885      1.65184273319091     -0.51748213350762
