18

C	0.0	0.0	0.0
C	-0.428601	0.156748	-1.469365
Cl	1.814462	0.0	0.0
H	0.073307	1.091573	-1.743283
N	-0.502819	1.025216	0.822246
H	-0.203534	0.878747	1.77898
H	-1.521058	1.017498	0.786672
N	-0.356671	-1.396084	0.591464
O	-0.14524	-1.525536	1.792522
O	-0.841581	-2.249231	-0.142305
C	-1.926899	0.337364	-1.661251
H	-2.515383	-0.506318	-1.303812
H	-2.118916	0.454918	-2.732779
H	-2.329428	1.221612	-1.168735
N	0.160344	-0.891589	-2.302415
H	0.201186	-0.543038	-3.25224
H	-0.459454	-1.691507	-2.293974
Br	-4.936746	0.0	0.0
