19

C	0.0	0.0	0.0
C	-0.509218	0.075722	-1.455968
Br	1.937624	0.0	0.0
H	-1.592555	0.180511	-1.282635
N	-0.299314	1.342867	0.787285
O	-0.517923	1.215201	1.98705
O	-0.237489	2.41778	0.204105
N	-0.591809	-1.070946	0.660184
H	-1.636167	-0.836896	0.496809
H	-0.390057	-1.003724	1.651492
C	-0.250576	-1.270711	-2.136371
H	-0.790329	-1.29522	-3.089389
H	-0.596459	-2.096299	-1.515916
H	0.816419	-1.412335	-2.34782
C	0.006926	1.195082	-2.354532
H	1.099881	1.229118	-2.38674
H	-0.34722	0.998659	-3.371952
H	-0.357033	2.171131	-2.048298
F	-2.838252	0.0	0.0
