19

C	0.0	0.0	0.0
C	-0.518986	0.04389	-1.460069
Br	1.936465	0.0	0.0
H	-1.607063	0.040789	-1.261163
N	-0.335185	1.356887	0.708257
O	0.117596	2.37904	0.193066
O	-0.995939	1.322726	1.733278
N	-0.581862	-0.99276	0.814385
H	-0.394525	-1.893747	0.393131
H	-1.620358	-0.759649	0.672969
C	-0.133911	-1.23823	-2.19723
H	-0.377736	-2.138732	-1.629913
H	-0.699014	-1.289601	-3.13258
H	0.932605	-1.260966	-2.444024
C	-0.148644	1.245419	-2.324628
H	-0.615131	2.160685	-1.966506
H	0.932067	1.408465	-2.371548
H	-0.510594	1.058987	-3.342433
F	-2.848532	0.0	0.0
