19

C	0.0	0.0	0.0
C	-0.485998	0.159886	-1.445536
Br	1.998926	0.0	0.0
H	-1.514507	0.502185	-1.288282
N	-0.24567	1.351868	0.797288
O	-0.523557	2.378238	0.186355
O	-0.156382	1.27031	2.019933
N	-0.611621	-1.044721	0.65244
H	-1.674848	-0.769016	0.46656
H	-0.401096	-0.986119	1.642926
C	-0.562714	-1.21601	-2.105144
H	-0.843609	-1.094596	-3.15647
H	-1.313685	-1.826322	-1.609209
H	0.401782	-1.731779	-2.064517
C	0.295509	1.115366	-2.343434
H	-0.324624	1.341437	-3.218177
H	1.222334	0.658196	-2.700419
H	0.535745	2.054964	-1.85114
F	-2.818549	0.0	0.0
