19

C	0.0	0.0	0.0
C	-0.570639	0.014079	-1.400578
Br	2.02466	0.0	0.0
H	-1.629389	0.292489	-1.103538
N	-0.382399	1.273323	0.776204
O	-0.528808	2.305395	0.138639
O	-0.447202	1.189164	1.99933
N	-0.390397	-1.108869	0.770266
H	0.277916	-1.861543	0.711831
H	-0.587509	-0.841314	1.723517
C	-0.70527	-1.413745	-1.915169
H	0.24754	-1.962115	-1.931557
H	-1.430743	-1.921222	-1.281367
H	-1.090406	-1.387154	-2.939555
C	0.100406	0.919202	-2.419969
H	1.051314	0.499313	-2.76898
H	-0.561861	1.012123	-3.287587
H	0.284014	1.919515	-2.031968
F	-2.790105	0.0	0.0
