13
Coordinates from ORCA-job run
  C   -0.75632751188895     -0.27096394291876     -0.65104190374347
  C   0.34343740836076      0.73418138755905     -0.34866585128102
  Br  -0.03130631879078     -1.82432897924782     -1.62233024360615
  H   0.79282996140253      1.04730921691012     -1.29473666784024
  H   -1.45448792368286      0.15565104527579     -1.38015862000416
  H   -0.15304576265471      1.62153766907434      0.06899542181067
  N   -1.36917510075085     -0.75045867479019      0.56293757819077
  H   -2.17181316801210     -1.33174925031611      0.35652019882392
  H   -1.67547302723842      0.04156083284010      1.11790121195109
  C   1.41327173635725      0.23751199257498      0.61642776683264
  H   0.97412170543301     -0.08634308967473      1.55967770136493
  H   2.13269156919983      1.03334775218054      0.82245333298086
  H   1.95527643226528     -0.60825595946732      0.19202007452016
