18
Coordinates from ORCA-job run
  C   -0.49951364298102     -0.29844546851507     -0.30142518293592
  C   0.81683634317872      0.10155369528963      0.40214342839942
  Br  -0.10318710687200     -0.79636329602179     -2.16720975686693
  H   0.52932121355260      0.31469737390058      1.44234575272624
  C   -1.48013379182444      0.86564148302262     -0.32913938406467
  H   -1.10912365449625      1.70251932192375     -0.92016257236142
  H   -2.42864640300902      0.54310211937532     -0.76207793288606
  H   -1.66763118617956      1.20972135276466      0.69435812599773
  C   -1.11856129803991     -1.51468992440948      0.37345059729186
  H   -0.44292446942001     -2.37095192501057      0.35677157860409
  H   -1.35095046181584     -1.27081894842411      1.41625057520013
  H   -2.04528347569521     -1.79694249436178     -0.12922772309897
  C   1.52636115278995      1.33691579564330     -0.16041917192683
  H   1.77598407671258      1.19245946091963     -1.21188682227396
  H   2.45056279361883      1.51496484745776      0.39242329755220
  H   0.89813871358118      2.22262089584506     -0.06072126170148
  C   1.74641817181466     -1.03049942551210      0.45372661937789
  N   2.50333302508474     -1.92648486388742      0.51279983296668
