18
Coordinates from ORCA-job run
  C   -0.68757319263663     -0.22999128694135      0.30181367280573
  C   0.72368364134971      0.25123840969237      0.71219537664430
  Br  -1.55452310697012     -0.87924941369067      1.95465878232939
  H   0.59713746935515      0.95476324610017      1.54335717917838
  C   -0.65455778742123     -1.38805548367273     -0.68348725721295
  H   -0.09384584613879     -2.23593337437800     -0.28697421105631
  H   -0.19233040904614     -1.06655970616799     -1.62185097454110
  H   -1.67058534617608     -1.72026535745431     -0.90416311389020
  C   -1.52921820168270      0.92500630444821     -0.22225117548876
  H   -1.51835155791086      1.77043769489963      0.46991999445716
  H   -2.56390710691670      0.60481594984391     -0.35410575653999
  H   -1.15239600443208      1.25576463783260     -1.19392742240132
  C   1.48779037837748      0.96055781430330     -0.41628138516916
  H   2.48088830202625      1.24182374017092     -0.06109385990665
  H   0.97082341984435      1.86988761199949     -0.72353924808675
  H   1.61563283924605      0.31108997815281     -1.28355510674567
  C   1.53024203456781     -0.86725354937266      1.20908009999153
  N   2.21109047456453     -1.75707721576570      1.56120440563237
