14
Coordinates from ORCA-job run
  C   0.49936881621765      0.09340907125371      0.85709160288441
  C   -0.17332371739512      0.35319012382617     -0.48366850392580
  H   -0.29370722848326     -0.03845487044861      1.60006803429785
  H   0.61851424423996      0.50944492905046     -1.23629017716595
  H   1.07500737997126      0.98628153985642      1.12821692701357
  N   1.28153428093029     -1.14494035369075      0.79836186323312
  H   1.49077136594089     -1.47161130615451      1.73276290092808
  H   2.16735304441508     -0.96447748297551      0.34095475020236
  N   -0.91271509107914      1.60186971229594     -0.40134692689946
  H   -1.19178127431452      1.89734664882208     -1.32961777751621
  H   -1.76733380923034      1.40778707137089      0.11142823947244
  N   -1.02558175737018     -0.79225929948720     -0.78004368497335
  H   -0.49509434386056     -1.63300065132774     -0.57325611909364
  H   -1.27301190998202     -0.80458513239134     -1.76266112845743
