14

C	-0.318807	-0.130886	-1.485944
C	0.0	0.0	0.0
F	-0.369535	1.226313	-1.948484
H	1.09171	0.0	0.0
H	-0.40358	0.918972	0.415129
N	0.676853	-0.877165	-2.116353
H	0.653085	-0.791215	-3.122351
H	1.596281	-0.667937	-1.708159
C	-1.673151	-0.645248	-1.805723
N	-2.755673	-1.017671	-2.066813
N	-0.456074	-1.114396	0.824312
O	-0.541512	-2.234022	0.312387
O	-0.645241	-0.874859	2.02137
H	2.690758	0.0	0.0
