14

C	-0.345397	0.153844	-1.455971
C	0.0	0.0	0.0
F	-1.696722	0.493726	-1.623257
H	1.090643	0.0	0.0
H	-0.342661	0.884967	0.531338
N	0.468885	1.239317	-1.913538
H	1.415924	1.110051	-1.53349
H	0.518192	1.24386	-2.924846
C	-0.166771	-1.056281	-2.300655
N	-0.020443	-1.882306	-3.123383
N	-0.536464	-1.163284	0.683238
O	-0.825658	-1.025969	1.877979
O	-0.595721	-2.235811	0.073625
H	2.629504	0.0	0.0
