14

C	-0.301339	-0.053218	-1.492975
C	0.0	0.0	0.0
F	-0.19055	1.270166	-1.989023
H	1.089029	0.0	0.0
H	-0.382574	-0.885823	0.508663
N	0.652675	-0.930523	-2.032739
H	0.644188	-0.924519	-3.044788
H	1.585325	-0.71766	-1.646621
C	-1.667713	-0.481118	-1.879374
N	-2.7141	-0.867725	-2.243323
N	-0.616643	1.178371	0.643599
O	-1.810562	1.378091	0.414576
O	0.075582	1.862226	1.389776
H	2.823747	0.0	0.0
