14

C	-0.326297	-0.135771	-1.473403
C	0.0	0.0	0.0
F	0.038617	1.037775	-2.149738
H	1.089024	0.0	0.0
H	-0.316261	-0.885977	0.548585
N	0.43179	-1.253592	-1.908155
H	0.410495	-1.31977	-2.918281
H	1.395665	-1.112808	-1.584069
C	-1.762902	-0.339134	-1.779691
N	-2.892353	-0.54991	-2.022351
N	-0.569073	1.162452	0.679173
O	-0.327028	1.246365	1.88508
O	-1.231485	1.984818	0.038097
H	2.69246	0.0	0.0
