14

C	-0.524223	0.012599	-1.428879
C	0.0	0.0	0.0
F	-0.235952	-1.236509	-2.0036
H	1.086751	0.0	0.0
H	-0.341602	0.899537	0.51769
N	-1.910561	0.329858	-1.544289
H	-2.194891	0.237198	-2.512762
H	-2.419544	-0.334167	-0.973929
C	0.216776	1.015488	-2.236861
N	0.670193	1.831787	-2.948658
N	-0.524214	-1.154776	0.774527
O	0.195945	-1.616988	1.653447
O	-1.665114	-1.574594	0.526335
H	2.78362	0.0	0.0
