14

C	-0.495795	0.193355	-1.416397
C	0.0	0.0	0.0
F	-0.195312	-0.986844	-2.092124
H	1.086704	0.0	0.0
H	-0.323342	-0.971623	0.367979
N	-1.923774	0.363511	-1.495417
H	-2.177215	0.585052	-2.452251
H	-2.164693	1.158585	-0.913903
C	0.235871	1.261286	-2.151212
N	0.724086	2.091203	-2.823105
N	-0.4343	1.014343	0.909787
O	-0.33444	0.774306	2.122512
O	-0.746785	2.137446	0.448841
H	2.505183	0.0	0.0
