14

C	-0.328587	0.138678	-1.47927
C	0.0	0.0	0.0
F	-1.683818	0.425203	-1.656515
H	1.089266	0.0	0.0
H	-0.399943	-0.904883	0.451909
N	0.43516	1.124171	-2.193318
H	0.253864	2.00031	-1.712634
H	1.415249	0.907063	-1.990074
C	-0.098276	-1.188832	-2.101489
N	-0.00418	-2.254535	-2.585351
N	-0.448784	1.124688	0.800959
O	-0.348541	2.268013	0.333851
O	-0.818455	0.890252	1.956948
H	2.616093	0.0	0.0
