14

C	-0.36476	0.171292	-1.461931
C	0.0	0.0	0.0
F	-1.724373	0.499389	-1.617289
H	1.088957	0.0	0.0
H	-0.410561	-0.912944	0.42341
N	0.445551	1.15029	-2.092814
H	1.336618	1.222026	-1.599922
H	0.606771	0.925543	-3.063525
C	-0.227552	-1.16421	-2.110493
N	-0.064085	-2.192192	-2.658301
N	-0.445633	1.10236	0.847933
O	-0.919553	0.805437	1.950837
O	-0.239188	2.255889	0.468738
H	2.650967	0.0	0.0
