12

C	0.0	0.0	0.0
C	-0.310563	0.04543	-1.503391
Cl	1.84235	0.0	0.0
H	0.308779	0.838081	-1.941564
H	-0.38324	0.860145	0.533193
H	0.097197	-0.884252	-1.918323
N	-0.38111	-1.217275	0.627486
H	-0.383532	-1.155284	1.633959
H	0.203519	-1.986396	0.311352
C	-1.657523	0.249553	-2.062813
N	-2.546712	0.698833	-2.683597
F	-2.566359	0.0	0.0
