12

C	0.0	0.0	0.0
C	-0.536395	0.187817	-1.413327
Cl	1.783472	0.0	0.0
H	-0.256421	-0.68283	-2.012292
H	-0.275088	0.886795	0.580847
H	-1.637789	0.203184	-1.229055
N	-0.555794	-1.222109	0.505335
H	-0.337518	-1.281674	1.495634
H	-1.581706	-0.997981	0.418658
C	-0.085191	1.407378	-2.062894
N	0.262807	2.393301	-2.598404
F	-2.832808	0.0	0.0
