12

C	0.0	0.0	0.0
C	-0.290449	0.541547	-1.411721
Cl	1.84247	0.0	0.0
H	0.065305	-0.236992	-2.094896
H	-0.273246	0.730597	0.763601
H	0.347017	1.414806	-1.575399
N	-0.527283	-1.30631	0.162997
H	-1.563035	-1.04158	0.087877
H	-0.367717	-1.589825	1.125435
C	-1.634654	0.944294	-1.85326
N	-2.448241	1.451351	-2.536165
F	-2.670807	0.0	0.0
