12

C	0.0	0.0	0.0
C	-0.513128	0.120438	-1.441846
Cl	1.790404	0.0	0.0
H	-0.147968	1.031546	-1.924925
H	-0.313283	0.909179	0.511042
H	-1.613945	0.16131	-1.257211
N	-0.536807	-1.107931	0.727437
H	-0.354092	-1.957468	0.200114
H	-1.559719	-0.88849	0.649125
C	-0.16186	-1.032352	-2.257154
N	0.115983	-1.971817	-2.906527
F	-2.805712	0.0	0.0
