18

C	0.05775	-0.031427	-0.011873
C	-0.386877	-0.039912	-1.495636
F	1.415913	0.350487	0.02318
H	0.408494	-0.598367	-2.010223
C	-0.723636	0.894507	0.891489
H	-0.494061	1.924198	0.61504
H	-1.800705	0.756759	0.769689
H	-0.435706	0.736574	1.933195
C	0.024115	-1.419864	0.492635
N	0.015733	-2.532439	0.869029
C	-0.443743	1.377823	-2.047829
H	-1.320289	1.894939	-1.650751
H	0.462666	1.937321	-1.804709
H	-0.550312	1.324846	-3.133003
N	-1.651957	-0.693677	-1.75013
H	-2.429755	-0.146606	-1.375486
H	-1.681479	-1.624087	-1.351278
Cl	-4.027098	1.306781	-0.391376
