18
Coordinates from ORCA-job run
  C   0.68468554920078     -0.12240895698817     -0.44028220664887
  C   -0.79212428945511      0.15679716996398     -0.10388198245614
  Cl  0.78506431137704     -1.09241438840736     -1.95622474226401
  H   -1.15315795974484      0.89024518840444     -0.83385237690349
  C   1.44735192957171      1.17097083597265     -0.69062784562101
  H   1.36961810152550      1.79684127443005      0.20008502056524
  H   1.03679620690107      1.71291104898184     -1.54573484039641
  H   2.49847701412400      0.95375782112198     -0.89313460783171
  N   1.24142433842516     -0.94078400744990      0.62719281541077
  H   1.38840640765474     -0.32823962156890      1.42354724904038
  H   2.14596967618779     -1.29872902221351      0.34115965476778
  N   -0.78093326966140      0.80073174074804      1.21913702959183
  H   -1.55091799710000      1.45347673600396      1.29150431514271
  H   -0.92650278855815      0.08961130328100      1.92746411173395
  C   -1.68082062911149     -1.08127221242475     -0.14291533146718
  H   -1.81328052314585     -1.46684476561346     -1.15352900393153
  H   -1.23391199197791     -1.86664209346344      0.47028632161174
  H   -2.66614408621307     -0.83000805077844      0.25880641965595
