18
Coordinates from ORCA-job run
  C   0.69048739369695     -0.05362980282967     -0.41992004958121
  C   -0.80433793162115      0.17615702829132     -0.14993918898985
  Cl  0.80115307744464     -0.92700788730114     -2.05889813627585
  H   -1.20321783459756      0.69114315352682     -1.02996003020823
  C   1.45442469186864      1.24470397853020     -0.59376326849967
  H   2.48182175894355      1.03554137217644     -0.90168097317973
  H   1.44852931923465      1.79425664873430      0.34569529894210
  H   0.98411627648886      1.85794829837958     -1.36258640304508
  N   1.26414204207923     -0.82872937822708      0.62811759722988
  H   2.27272238791770     -0.86155898325174      0.54366060780283
  H   0.91342833194217     -1.77815890900340      0.62307347641562
  N   -0.89475291936446      1.10382496714878      0.97816859593772
  H   -1.86759402002140      1.33193646085525      1.14791934960038
  H   -0.53596198851004      0.63660776259647      1.80428227393412
  C   -1.59086347245890     -1.11801828695282      0.06232580893921
  H   -2.65398272096781     -0.88218245941376      0.15849866795393
  H   -1.47629379606626     -1.81932261400741     -0.76606276063581
  H   -1.28382059600879     -1.60551134925213      0.99206913365966
