18
Coordinates from ORCA-job run
  C   0.64287415943066      0.24656824483653     -0.34996604152096
  C   -0.79300234265931     -0.17728371581188     -0.00937176563348
  Cl  0.75826294509882      2.03741939421747     -0.44774647348477
  H   -0.74427535019835     -1.28468706093716     -0.02975951597842
  C   1.64918868113238     -0.21296773290622      0.69675388993147
  H   1.57009018398851     -1.29703099761134      0.83106325756895
  H   1.49108428446540      0.27369872238388      1.65905713060890
  H   2.66028104753668      0.02315242221475      0.35865001190688
  N   0.93340524689518     -0.25301457257512     -1.69170340616062
  H   1.80309103714706      0.14860036532957     -2.02422240867763
  H   1.05726470843643     -1.26005725438020     -1.63867538920185
  N   -1.70321330832413      0.36170978212024     -1.00706184452739
  H   -1.30519364630605      0.20243736529558     -1.92559838423479
  H   -2.59290918316984     -0.11850551452202     -0.95037600322531
  C   -1.25561120724191      0.24708010027268      1.37552765396378
  H   -0.67880494410301     -0.22896025884238      2.17072293825711
  H   -2.30177297922414     -0.03981388767838      1.51119620157324
  H   -1.19175933290440      1.33165459859401      1.47251014883489
