18
Coordinates from ORCA-job run
  C   0.72995709770546      0.07034452115472     -0.34757046966152
  C   -0.71114898815920     -0.32428659961390      0.00516599937986
  Cl  0.69639372473384      1.90978098394340     -0.75907551809851
  H   -0.64353771708540     -1.40209408771143      0.19828047741002
  C   1.70869261494009     -0.06522193419982      0.80064668802106
  H   1.47601901013084      0.61747261810131      1.61588464209757
  H   1.68684328303606     -1.09669005968515      1.16245301237382
  H   2.71969420197757      0.15761703674085      0.45296450430582
  N   1.14126364297071     -0.69949958140420     -1.45459691935023
  H   2.03381362967282     -0.39623692093132     -1.82094397925408
  H   0.42527662383371     -0.67235060244413     -2.17153388856244
  N   -1.53274336185748     -0.17070782341990     -1.19606195827916
  H   -2.39487211475135     -0.69070886587129     -1.08878578387405
  H   -1.77287058167507      0.80752235618826     -1.31464443419612
  C   -1.27340071238275      0.36180923282099      1.24540843632610
  H   -1.29692519766371      1.44555946615836      1.11535352643336
  H   -2.29641844920632      0.01515289785334      1.41363540916581
  H   -0.69603670621980      0.13153736231991      2.14342025576269
