18
Coordinates from ORCA-job run
  C   0.61695120443345      0.01741775032668     -0.61969786024157
  C   -0.87777614472695     -0.01908037192472     -0.26808508083204
  Cl  0.75734322970784      0.86954138107130     -2.21355319144807
  H   -1.35863374588740     -0.50120869422142     -1.13178483658790
  C   1.46184422841761      0.79302249634281      0.37787555084580
  H   2.49672328333420      0.83326240144626      0.03143322900702
  H   1.44242852784409      0.28202965350696      1.34493303736654
  H   1.08050154326457      1.80309287553172      0.51574541786853
  N   1.06854247608688     -1.34763982786538     -0.86098362055694
  H   1.28904469447164     -1.77447537932179      0.03336032709628
  H   1.92819282735534     -1.32424908787173     -1.39829879713895
  N   -1.36067617414870      1.33573141667149     -0.01429956703122
  H   -1.34819686454555      1.86847857214419     -0.87650211900929
  H   -2.32361390897291      1.29244296775778      0.29775428683530
  C   -1.15000489763968     -0.87275700452814      0.96376687241605
  H   -0.67906806083933     -0.44683094234989      1.85212322900398
  H   -0.81606783842223     -1.90042052359420      0.81770428027659
  H   -2.22753437973289     -0.90935768312188      1.14850884212993
