18
Coordinates from ORCA-job run
  C   0.60372412459450     -0.10850835743048     -0.47058289777779
  C   -0.88783025424175      0.09127010241813     -0.11030352090396
  Cl  0.69445931780027     -0.99154334721804     -2.04155725867804
  H   -1.32641244257511      0.67524938446687     -0.92836859277509
  C   1.32007866365108      1.22004590980352     -0.69643824484477
  H   2.34014103409022      1.04025466279546     -1.04185073084624
  H   0.80547461684959      1.82784555820591     -1.44445680557703
  H   1.37937652988144      1.78205798350156      0.23954415621471
  N   1.23959993054160     -0.95709366083889      0.52484138736931
  H   2.16625933866447     -1.21810097323929      0.20617128290387
  H   1.35421623669113     -0.41781443275535      1.37681296266148
  N   -1.08919652853846      0.84927909079376      1.12010753617418
  H   -0.81483374345439      0.30848671733510      1.93055269048544
  H   -0.60676081171338      1.73714880125019      1.12215805612203
  C   -1.65034603900916     -1.21885345377429      0.02318955089608
  H   -1.64020358175709     -1.78940315418433     -0.90392904234159
  H   -2.68379703349966     -0.99385044281322      0.29104014700949
  H   -1.20294935797533     -1.83647038831658      0.80406932390792
