18
Coordinates from ORCA-job run
  C   0.74619298676289      0.26746127648561     -0.32757158929754
  C   -0.67274009007258     -0.28362799873731     -0.08072623328060
  Cl  0.60642187853901      2.09566650956761     -0.38531008487502
  H   -0.52931320263824     -1.37323094733077     -0.07369371998038
  C   1.71918342500730     -0.06498610592068      0.78703976142198
  H   1.74433694049012     -1.14904572985640      0.94320015933960
  H   1.44502810785683      0.41872190436810      1.72265988993315
  H   2.71504407285437      0.27609238398363      0.50019757637473
  N   1.28239975784423     -0.16130265477498     -1.58523298564504
  H   1.77068499792429     -1.04125209276485     -1.47653762951092
  H   0.51719608417766     -0.26630018874315     -2.24307587430644
  N   -1.48721622644412      0.01048847900388     -1.25929099221127
  H   -2.33610338104872     -0.54123726141317     -1.23595848535460
  H   -1.75494822262032      0.98872274453245     -1.24727093454087
  C   -1.31078488294996      0.12994710873974      1.24183871221092
  H   -2.29773207104367     -0.33283779423177      1.32896742596937
  H   -0.72112527888445     -0.18653645533999      2.10514982560464
  H   -1.43752489575462      1.21325682243205      1.28761517814829
