18
Coordinates from ORCA-job run
  C   0.62311181924820     -0.01290306367378     -0.53973692694147
  C   -0.89826835250094     -0.11408499057208     -0.27829956647791
  Cl  0.79269869317557      0.89187133204095     -2.17247914710848
  H   -1.30365101245312     -0.68884356899608     -1.12182575684150
  C   1.38186524320442      0.82205104908629      0.47046405125463
  H   2.42826592290334      0.91568114504094      0.17239391819196
  H   1.34216233468998      0.33835559979010      1.44820986199715
  H   0.96619225312103      1.82677603390682      0.53816109824839
  N   1.18371666145341     -1.31260606564768     -0.62993784514121
  H   2.17284364975976     -1.27630459559222     -0.84365017236274
  H   0.71942444309605     -1.86231496880119     -1.34361160944837
  N   -1.62500752812216      1.14181617866391     -0.24143766977612
  H   -1.41937168134464      1.70084873242751     -1.05957633442209
  H   -1.37101648136554      1.67377425908140      0.58207843648311
  C   -1.18596980582667     -0.87682490307368      1.01047360091273
  H   -0.86269156875402     -0.30210056391558      1.88351414269635
  H   -0.67966164074898     -1.84031254501338      1.03016592184554
  H   -2.26364294953573     -1.02587906475227      1.09309399689002
