18
Coordinates from ORCA-job run
  C   0.69613134685048      0.27370988800447     -0.27341228553647
  C   -0.72790234319687     -0.30151305684706     -0.04702906601683
  Cl  0.57338156686807      2.07887279999846     -0.30691167116741
  H   -0.57974479144689     -1.39098910594952     -0.07942890852829
  C   1.66334509859007     -0.11247080907143      0.83122989034431
  H   1.38381853145232      0.33130597020879      1.78494022218601
  H   1.67956712460191     -1.20229621301906      0.94359073071424
  H   2.66273823240460      0.22889459257035      0.56081299048644
  N   1.28893527641515     -0.10547849067593     -1.54102525814361
  H   0.68054572325833      0.14588077284456     -2.31058072890145
  H   1.43884566800294     -1.10915434164265     -1.55473182017084
  N   -1.69960216316580      0.01177052787954     -1.08443373844681
  H   -1.81763982310276      1.01609694557422     -1.15507235570077
  H   -1.40518325285561     -0.33804403990872     -1.98703213015346
  C   -1.33483155067838      0.05287428222085      1.30425481096614
  H   -1.44926721375263      1.13437581650448      1.40701095547457
  H   -2.32337643036585     -0.40322766410944      1.36900432624525
  H   -0.73076099987906     -0.30960787458192      2.13681403634900
