18
Coordinates from ORCA-job run
  C   0.67675861334098     -0.02982418331278     -0.49228882459708
  C   -0.83818121017119      0.07510846507964     -0.16293882883072
  Cl  0.79454172500182     -0.74303923002088     -2.15463560520255
  H   -1.29956531696876      0.61657156532176     -0.99644918943077
  C   1.34036113032348      1.33571448686150     -0.55200308797751
  H   1.39466198198801      1.77981943947385      0.44545535371473
  H   2.35631393863299      1.22558399867521     -0.92991947975313
  H   0.78503075770570      2.00744882641981     -1.20961909484350
  N   1.45639244250658     -0.87899392671619      0.37894264652140
  H   1.52040870746482     -0.46873144913795      1.30294984339079
  H   1.05416256153383     -1.80534494969885      0.44813686222047
  N   -1.12343783155757      0.83477745250226      1.04888378327930
  H   -0.78416869595309      1.78537195725890      0.98784802925986
  H   -0.71063336358107      0.39140911041156      1.86103049008468
  C   -1.51881046341571     -1.28022615299444     -0.02961884040460
  H   -1.34387147029229     -1.91586462158820     -0.89730481158181
  H   -2.59172747805662     -1.12490212948500      0.08673856248146
  H   -1.16823602850195     -1.80487865905019      0.86479219166899
