18
Coordinates from ORCA-job run
  C   0.58497087014573      0.01475521903700     -0.62490176856002
  C   -0.92886399676696     -0.07507243376987     -0.32609143827016
  Cl  0.75914339744978      0.85584318694816     -2.21767761469178
  H   -1.35768641135942     -0.56674164786340     -1.20499757082925
  C   1.36974821606772      0.83360892364002      0.39074880607931
  H   0.99590415741153      1.85534330891953      0.46775460646092
  H   2.41984970232295      0.87953293233555      0.09580420771688
  H   1.31144723930467      0.35954266359378      1.37493389240304
  N   1.09953833963456     -1.33168041979527     -0.83009062173710
  H   1.23629789951085     -1.76988666064641      0.07499641544914
  H   2.00654881210509     -1.28259907480282     -1.28141377458160
  N   -1.61458985676958      1.19528611061298     -0.15508349614168
  H   -1.31013242627292      1.65746137724910      0.69317900406720
  H   -1.42958083929654      1.81033252219869     -0.93769388845012
  C   -1.21542262865663     -0.94825714019872      0.89049566160112
  H   -2.29569432612914     -0.98247680397247      1.03769362188676
  H   -0.85933329150614     -1.96918077490459      0.75037579464311
  H   -0.77114485719556     -0.53581128858124      1.80196816295422
