12

C	-0.475445	-0.009667	-1.438191
C	0.0	0.0	0.0
Cl	-0.200656	-1.611609	-2.202323
H	1.092407	0.0	0.0
H	0.18615	0.665537	-1.993014
H	-0.271344	0.972363	0.434419
N	-1.889482	0.293165	-1.552054
H	-2.083828	1.129317	-1.013995
H	-2.127617	0.471442	-2.521164
C	-0.580433	-1.047999	0.820431
N	-1.026634	-1.881363	1.518147
H	2.79096	0.0	0.0
