12

C	-0.317129	-0.127608	-1.490097
C	0.0	0.0	0.0
Cl	-0.325184	1.639557	-2.194594
H	1.094368	0.0	0.0
H	-1.335768	-0.438884	-1.725535
H	-0.383419	0.922063	0.434705
N	0.640071	-0.967741	-2.060605
H	0.602205	-1.015199	-3.068215
H	1.578957	-0.747377	-1.71006
C	-0.51048	-1.149944	0.726617
N	-0.934109	-2.067886	1.325777
H	2.822914	0.0	0.0
