12

C	-0.430731	-0.073112	-1.443907
C	0.0	0.0	0.0
Cl	-2.174595	-0.86966	-1.539668
H	1.094959	0.0	0.0
H	0.173396	-0.816766	-1.962423
H	-0.305649	-0.903864	0.530654
N	-0.376718	1.15672	-2.105307
H	-0.915562	1.87482	-1.639099
H	-0.628929	1.091245	-3.080222
C	-0.549592	1.164294	0.669009
N	-0.99442	2.13277	1.165709
H	2.757123	0.0	0.0
