12

C	-0.371162	-0.170739	-1.480584
C	0.0	0.0	0.0
Cl	-0.304634	1.429041	-2.320652
H	1.09388	0.0	0.0
H	-1.399974	-0.511963	-1.625333
H	-0.288005	-0.927805	0.511956
N	0.53549	-1.080454	-2.137101
H	1.476916	-0.851867	-1.804177
H	0.331759	-2.016332	-1.801947
C	-0.61028	1.119044	0.687945
N	-1.118463	2.019823	1.245996
H	2.822063	0.0	0.0
