16

C	-0.61213	-0.003438	-1.390153
C	0.0	0.0	0.0
F	-0.063076	1.087051	-2.112887
H	1.097846	0.0	0.0
C	-0.26094	-1.212532	-2.160806
N	-0.0361	-2.135605	-2.849534
N	-2.028425	0.117866	-1.315231
H	-2.417808	0.312043	-2.229537
H	-2.210918	0.883676	-0.673186
N	-0.448483	-1.181146	0.693576
H	-1.364475	-1.051455	1.105901
H	0.234995	-1.419854	1.39933
N	-0.486037	1.258852	0.643435
H	-0.149244	1.197097	1.600052
H	0.076215	1.997167	0.22395
F	2.655837	0.0	0.0
