16

C	-0.435706	-0.012315	-1.455454
C	0.0	0.0	0.0
F	-1.857508	0.148099	-1.510078
H	1.094343	0.0	0.0
C	0.075502	1.184879	-2.155993
N	0.441471	2.151481	-2.712151
N	-0.070547	-1.212774	-2.11709
H	0.486295	-1.051614	-2.940466
H	0.417602	-1.798123	-1.452662
N	-0.448235	-1.253684	0.59071
H	0.057469	-1.343684	1.464778
H	-1.437969	-1.185792	0.814765
N	-0.457446	1.189446	0.712221
H	0.261044	1.897783	0.633374
H	-1.319755	1.549345	0.319861
F	2.645876	0.0	0.0
