16

C	-0.533183	-0.042758	-1.428849
C	0.0	0.0	0.0
F	0.015498	1.036878	-2.148742
H	1.098495	0.0	0.0
C	-0.105811	-1.266361	-2.141264
N	0.206805	-2.229623	-2.734756
N	-1.95647	0.029414	-1.423292
H	-2.169943	0.817778	-0.815095
H	-2.307017	0.198029	-2.358609
N	-0.447068	-1.158755	0.756359
H	0.321173	-1.815754	0.785961
H	-1.258312	-1.598789	0.340028
N	-0.553202	1.235471	0.598778
H	0.197361	1.917786	0.572434
H	-0.701884	1.000418	1.572376
F	2.654214	0.0	0.0
