14

C	-0.139889	0.260289	-1.505312
C	0.0	0.0	0.0
F	-1.294957	0.905942	-1.852607
H	1.093902	0.0	0.0
H	-0.449546	-0.939047	0.324089
N	0.975116	0.931342	-2.069253
H	0.825894	1.923915	-1.929319
H	1.803293	0.649362	-1.505913
N	-0.245244	-1.135489	-2.150543
O	-1.369727	-1.628473	-2.217845
O	0.799742	-1.674223	-2.491972
C	-0.506384	1.118022	0.765825
N	-0.913726	2.026181	1.390667
F	2.609097	0.0	0.0
