14

C	-0.136149	0.277835	-1.488364
C	0.0	0.0	0.0
F	-1.33008	0.877548	-1.873608
H	1.090746	0.0	0.0
H	-0.433906	-0.955783	0.281847
N	0.9622	0.99002	-1.926889
H	1.083662	0.940776	-2.92774
H	1.806467	0.714141	-1.377217
N	-0.30456	-1.102286	-2.250038
O	-0.981141	-1.985868	-1.732067
O	0.200741	-1.171072	-3.368828
C	-0.538618	1.078498	0.801586
N	-0.968426	1.932154	1.484497
F	2.639625	0.0	0.0
