14

C	-0.136766	0.264699	-1.49076
C	0.0	0.0	0.0
F	-1.330888	0.860916	-1.880787
H	1.092972	0.0	0.0
H	-0.433735	-0.953427	0.29032
N	0.961249	0.972849	-1.936365
H	1.082233	0.914187	-2.936757
H	1.805674	0.702163	-1.384864
N	-0.305937	-1.122217	-2.239866
O	0.204402	-1.203855	-3.355529
O	-0.988712	-1.997848	-1.71665
C	-0.539648	1.084976	0.792034
N	-0.975907	1.942773	1.465642
F	2.638664	0.0	0.0
