14

C	-0.115653	0.009915	-1.511581
C	0.0	0.0	0.0
F	-0.204842	1.330293	-1.972785
H	1.094425	0.0	0.0
H	-0.343482	-0.956807	0.392077
N	0.950007	-0.706801	-2.042643
H	1.806966	-0.502916	-1.481245
H	1.048279	-0.558547	-3.036669
N	-1.42351	-0.580352	-2.068562
O	-2.288734	-0.951216	-1.280424
O	-1.506702	-0.639742	-3.293673
C	-0.64778	1.104177	0.667588
N	-1.170823	1.983551	1.244268
F	2.638804	0.0	0.0
