17

C	-0.157133	0.001773	-1.531862
C	0.0	0.0	0.0
Cl	-1.905079	-0.000469	-2.034205
H	1.098961	0.0	0.0
C	0.520816	1.252976	-2.065202
H	1.535759	1.237281	-1.654817
H	0.002744	2.156053	-1.736503
H	0.543235	1.235963	-3.157536
C	0.524553	-1.245753	-2.069901
H	0.547187	-1.225775	-3.162096
H	0.009183	-2.151529	-1.744792
H	1.539507	-1.2276	-1.65954
C	-0.517304	-1.199882	0.63159
N	-0.914702	-2.184622	1.136529
C	-0.517449	1.19818	0.634685
N	-0.914066	2.181091	1.143769
F	2.543621	0.0	0.0
