17

C	-0.310859	0.04305	-1.520222
C	0.0	0.0	0.0
Cl	0.227496	-1.54127	-2.201309
H	1.096746	0.0	0.0
C	-1.787476	0.191255	-1.837544
H	-2.158548	1.13653	-1.429641
H	-2.358982	-0.63123	-1.400826
H	-1.94504	0.187024	-2.918839
C	0.567793	1.126999	-2.128584
H	1.584175	0.967224	-1.754576
H	0.533936	1.083022	-3.219543
H	0.213447	2.111259	-1.803896
C	-0.570174	-1.149454	0.677211
N	-1.030198	-2.077704	1.234399
C	-0.458595	1.229432	0.627089
N	-0.829588	2.237305	1.107834
F	2.510195	0.0	0.0
