17

C	-0.3066	0.034931	-1.521721
C	0.0	0.0	0.0
Cl	0.224397	-1.556418	-2.192487
H	1.096794	0.0	0.0
C	-1.780872	0.191688	-1.84373
H	-2.360203	-0.623408	-1.402689
H	-1.935464	0.181485	-2.925571
H	-2.1455	1.142685	-1.443426
C	0.581349	1.108132	-2.134456
H	0.554797	1.053604	-3.224609
H	0.231299	2.097259	-1.820909
H	1.594169	0.945455	-1.752375
C	-0.574174	-1.143519	0.683193
N	-1.036031	-2.068618	1.244005
C	-0.458189	1.234918	0.617351
N	-0.832139	2.244707	1.091968
F	2.512031	0.0	0.0
