15
Coordinates from ORCA-job run
  C   -0.41864835498417     -0.58452260819361      0.04112461889962
  C   0.83876699650616      0.26628158738054     -0.22816817120791
  Cl  0.08166846592303     -2.30212246061344     -0.00786575374090
  H   1.24040182273031     -0.00641242472450     -1.20653860182462
  C   -1.00216878006891     -0.29695869813861      1.35076807924782
  N   -1.56181561799653     -0.06711104839311      2.35843009186880
  C   -1.45222379703402     -0.33112405789214     -1.05402610294423
  H   -1.01929858100208     -0.55551216712841     -2.03087107371339
  H   -1.78352328915305      0.70911620196177     -1.02622902167745
  H   -2.31378331459731     -0.97948679974624     -0.89320192867694
  N   1.93976169191493     -0.04639490200524      0.76358941304562
  O   1.72117204661608      0.25444173762055      1.92998000257673
  O   2.94129838273285     -0.57963899375615      0.30220106700467
  C   0.53110366136938      1.68871197274531     -0.16194213467974
  N   0.25628866704331      2.83073266088328     -0.13625048417811
