15
Coordinates from ORCA-job run
  C   -0.33787966678722     -0.73559380848568     -0.18298162270245
  C   1.02282167052017      0.00333470605633     -0.10953679186239
  Cl  -0.16371861088239     -1.92028404278741     -1.51848185801187
  H   1.82290328055555     -0.72842159192141      0.01594202038199
  C   -0.54177029965541     -1.47489654688911      1.06257676058704
  N   -0.73725237851314     -2.04824636510201      2.06999416758765
  C   -1.51994041252907      0.17917581142954     -0.47247759305406
  H   -2.42422388728500     -0.42443231007958     -0.55514786612501
  H   -1.64474847637348      0.90463443995305      0.33199141286478
  H   -1.35810729766085      0.70774889194623     -1.41276366643776
  N   1.06086319855530      0.87383605765072      1.13174778428369
  O   0.48404576141699      1.95400537035298      1.07202243457969
  O   1.64527134036821      0.39460866363679      2.09676566360806
  C   1.25140819087737      0.82944456127254     -1.28646072677622
  N   1.44132758739296      1.48508616296701     -2.24219011892315
