15
Coordinates from ORCA-job run
  C   -0.34237655629011     -0.72354291605397     -0.21954233473203
  C   1.01875959398954      0.01480438208089     -0.14333729061843
  Cl  -0.21086758265120     -1.81807260938616     -1.63421765209646
  H   1.82365863476951     -0.72075842474522     -0.09384874180045
  C   -0.50317541090315     -1.54266814621517      0.98156423607531
  N   -0.66362304082999     -2.18008322752350      1.95627443219899
  C   -1.53541122228352      0.20313859630486     -0.40891541891489
  H   -2.44001931507085     -0.39819098014865     -0.50380815374762
  H   -1.63689992509277      0.87155800357846      0.44671257576267
  H   -1.40508402645594      0.79552418671400     -1.31552093020501
  N   1.09662552073061      0.80192798673792      1.15025017017366
  O   1.71408696085648      0.26281045638546      2.06182908863268
  O   0.51540576728514      1.88103501490289      1.18060839305138
  C   1.20572781947203      0.91692932648460     -1.27081796288321
  N   1.36219278247422      1.63458835088356     -2.18723041089660
