15
Coordinates from ORCA-job run
  C   -0.39325407207830     -0.70000722070979     -0.21010838637388
  C   1.00928381417193     -0.04031688892151     -0.19916119207670
  Cl  -0.40156754441746     -1.77574931564324     -1.64561544798817
  H   1.77349216301237     -0.81962737236106     -0.20206217265597
  C   -0.53614695100115     -1.52997596311729      0.98582041989426
  N   -0.68734876800346     -2.17251582585193      1.95849081780624
  C   -1.53983325547880      0.29556769774038     -0.32048393517104
  H   -2.48178590023149     -0.25138778686587     -0.36955728492882
  H   -1.55361975482337      0.95688991182625      0.54645839443247
  H   -1.42705885770965      0.89180539111059     -1.22685876134857
  N   1.20062267339792      0.72084971496718      1.09882037414672
  O   1.82922311482305      0.13092323532103      1.97026801646931
  O   0.68903641926651      1.83248653671770      1.17345035673883
  C   1.18596848356541      0.86794342987585     -1.32330386272958
  N   1.33298843550647      1.59211445591172     -2.23615733621507
