15
Coordinates from ORCA-job run
  C   -0.55880306520669     -0.35016321183920      0.30678397336357
  C   0.56311118850549      0.70640660363439      0.13898438661757
  Cl  -0.01642771640576     -1.63666741886848      1.41963884564393
  H   0.18092037862579      1.50899123795947     -0.49783853259595
  C   -1.68857556703529      0.35114746848460      0.91996363653480
  N   -2.60590235478314      0.93206271356333      1.37026737962114
  C   -0.98074556153749     -0.97019000353756     -1.02163214612299
  H   -1.83967251722722     -1.61946577316647     -0.85116677052182
  H   -0.16905196063047     -1.56537254175341     -1.43851830964452
  H   -1.25418551697522     -0.18947832963760     -1.73448546919553
  N   1.72363507444736      0.11015181309529     -0.62687664259274
  O   1.63874461785422      0.19851408807777     -1.84836629639926
  O   2.61564635021959     -0.42537620570458      0.01756405969692
  C   1.02161121533043      1.24170748126783      1.41225974557894
  N   1.36869543481841      1.70873207842463      2.43242214001594
