15
Coordinates from ORCA-job run
  C   -0.52102003763923     -0.36291310417083      0.35516682829664
  C   0.49999179370238      0.76289019870404      0.05086245783107
  Cl  0.14811033706584     -1.47011922484934      1.58511724325518
  H   0.04006976924538      1.45556532702067     -0.65932167758343
  C   -1.70073728029163      0.29954115609233      0.91537591285845
  N   -2.65975568970878      0.84401690109519      1.32215448917741
  C   -0.90401977277859     -1.15602313920162     -0.89054331249493
  H   -0.04828460179739     -1.71870066954003     -1.26193163914906
  H   -1.25705214180933     -0.48280151602446     -1.67453386236785
  H   -1.69885103501325     -1.85612034246880     -0.63269002639169
  N   1.69923982576470      0.19077422184699     -0.67287866829721
  O   2.64444246464546     -0.19064833102623      0.00457780134754
  O   1.59042762552060      0.13749614775819     -1.89450807683264
  C   0.92582764187889      1.47117226503776      1.24874483199980
  N   1.24261110121493      2.07587010972615      2.20440769835067
