15
Coordinates from ORCA-job run
  C   -0.58516682245859     -0.30848820705950      0.30378604402266
  C   0.52364315808594      0.74677327603715      0.05747582130860
  Cl  -0.15974147752156     -1.31557881133888      1.71468426228911
  H   0.20710464463711      1.38385972581029     -0.77290679348374
  C   -1.80036050064109      0.44600872166330      0.61750287247840
  N   -2.78128183268398      1.06015156579872      0.82326957061518
  C   -0.81847334730347     -1.20320152902419     -0.90975194810168
  H   -1.67574595374802     -1.84748072402496     -0.71389435638191
  H   0.05436855255678     -1.82829392282054     -1.09498976725136
  H   -1.01789335282638     -0.59624004432997     -1.79533742922791
  N   1.78638932184245      0.06629320395326     -0.42376602528916
  O   2.60093897894924     -0.28407965287326      0.41967912403795
  O   1.85624824790879     -0.09734405394301     -1.63837517030491
  C   0.80297340762454      1.55016335171338      1.23826429139467
  N   1.00699697557820      2.22945710043820      2.17435950389408
