15
Coordinates from ORCA-job run
  C   -0.58488375062985     -0.37362773180972      0.21841108444185
  C   0.59558623550733      0.62832680369472      0.29268837967982
  Cl  -0.14074027614641     -1.89424770385816      1.04137628378689
  H   0.27285576258610      1.56715516807628     -0.16570222656273
  C   -1.69094142202652      0.24718171168223      0.95019641865013
  N   -2.58351555159553      0.77013032910129      1.50841855783368
  C   -1.00458643239899     -0.67472553503721     -1.21707411628935
  H   -1.90075407184184     -1.29520416521243     -1.20009090091289
  H   -1.21800449884239      0.25304468205710     -1.75203544058174
  H   -0.21502850569027     -1.21400768672705     -1.73930242916500
  N   1.74129476603452      0.14066125148162     -0.56671556024466
  O   2.58634182389493     -0.57028430200020     -0.03931131053245
  O   1.69048241299862      0.48768008030181     -1.74320223719818
  C   1.05044678888286      0.85698338779621      1.65599625934037
  N   1.40144671926742      1.06993371045353      2.75634723775426
