15
Coordinates from ORCA-job run
  C   -0.52406823823085     -0.41586518954356      0.28629882893195
  C   0.51424411207632      0.73086011958121      0.18959615891344
  Cl  0.13750654994492     -1.74923580708322      1.27194035463963
  H   0.05923523821984      1.55424492128412     -0.36785911283843
  C   -1.68587829388931      0.14473524939283      0.97921362544750
  N   -2.63264753351235      0.61233546991095      1.49581275125223
  C   -0.93368511006042     -0.94884317889083     -1.08324529603562
  H   -1.27977707140277     -0.13184087261360     -1.71981942452628
  H   -0.09212414973861     -1.44485267382609     -1.56564811127530
  H   -1.73954156736023     -1.67163408277109     -0.95437078387246
  N   1.69489781844690      0.28980150253981     -0.64715971986014
  O   1.57273081127689      0.47586487186938     -1.85436537399544
  O   2.63965828832860     -0.23103909961683     -0.06920523907184
  C   0.96528529184021      1.18970457279995      1.49500180499256
  N   1.30316385406086      1.59576419696706      2.54380953729819
