15
Coordinates from ORCA-job run
  C   -0.44064293297668     -0.43326290211774      0.38584758781751
  C   0.54141272873704      0.72903522575800      0.09041851745609
  Cl  0.44001841818445     -1.79297629024360      1.13606062392940
  H   -0.03541848369872      1.56576766455465     -0.31312008339963
  C   -1.40659607224204      0.08913595926881      1.35445436729673
  N   -2.20209242480238      0.53444820127936      2.09638152706714
  C   -1.16098320415735     -0.92155898902091     -0.86713597563834
  H   -0.45565516092399     -1.38654766485553     -1.55498286478312
  H   -1.90864877301154     -1.66071573436953     -0.57910962858775
  H   -1.65363765751425     -0.08702202978813     -1.37038493810639
  N   1.49341234471180      0.33284759691149     -1.01699903704999
  O   2.55025157400718     -0.19480619515458     -0.69750896458251
  O   1.08857292231676      0.55883680056474     -2.15371193619735
  C   1.28656457100175      1.14662817355046      1.26865632617727
  N   1.86444215036800      1.52119018366250      2.22013447860092
