15
Coordinates from ORCA-job run
  C   -0.28088658157603     -0.74414944368157     -0.23481027744416
  C   1.02076957093334      0.08577287226120     -0.09491823147044
  Cl  -0.00819235365909     -1.82193523845780     -1.64275333642029
  H   1.87158829140764     -0.59212371007022     -0.00611397615013
  C   -0.43914911396140     -1.57801752492400      0.95658069731040
  N   -0.59482523079748     -2.23205493077895      1.92095893302509
  C   -1.52525525765834      0.09806455107199     -0.47946815915002
  H   -1.71226469664370      0.75543382408613      0.37026491499345
  H   -1.39451204969080      0.70047758396136     -1.37938948357453
  H   -2.38060892945566     -0.56420814407993     -0.61620777369933
  N   0.98272948560160      0.87366042701695      1.20033433173949
  O   1.59363609989223      0.37769835076506      2.14019224039297
  O   0.32670729558212      1.90939198495432      1.20256130774118
  C   1.19752382368604      1.00157755638303     -1.21305111305988
  N   1.34273964633955      1.72941184149243     -2.12318007423381
