15
Coordinates from ORCA-job run
  C   -0.53543128544695     -0.47009383475955      0.14678974063579
  C   0.63120311847119      0.51492964165261      0.41394334431039
  Cl  0.05583804318478     -2.15108496233516      0.25340985431789
  H   0.22754025208901      1.53111052706831      0.40029686409118
  C   -1.50803522951078     -0.24840710347462      1.21879642861432
  N   -2.30359671334053     -0.03406293764407      2.05718022700588
  C   -1.18965703167083     -0.24492207353985     -1.21299695121445
  H   -2.06419307334448     -0.89057112230455     -1.29502157298247
  H   -1.49941196099721      0.79711633410928     -1.31624124341252
  H   -0.49512646493741     -0.49188105570197     -2.01515810684227
  N   1.62098047372128      0.46578281132620     -0.72939295546211
  O   1.37015877475305      1.22055116931128     -1.66455779000593
  O   2.55124695343583     -0.32477795878869     -0.64368934772097
  C   1.30654653595905      0.25315484731136      1.67623081594442
  N   1.83093760763400      0.07215571776943      2.71141069272084
