15
Coordinates from ORCA-job run
  C   -0.35021736912154     -0.69665176668982     -0.28403897554639
  C   1.01802019908477      0.01887430812086     -0.14731124254986
  Cl  -0.23657586421331     -1.65468201058402     -1.79638414582042
  H   1.81642479489331     -0.72497123199505     -0.17020494811902
  C   -0.51302109591584     -1.62407481919355      0.83527400903579
  N   -0.67532486166163     -2.34953656286359      1.74582741819813
  C   -1.53518028323673      0.25455973521049     -0.37888387654259
  H   -1.62379032930698      0.84351260509768      0.53453611321365
  H   -2.44672377994059     -0.32656938911271     -0.52113335304043
  H   -1.40490625784196      0.92543817334009     -1.22901425709881
  N   1.10947828775019      0.68120799173783      1.21405118811380
  O   1.72563434427572      0.05346659557290      2.06779167736285
  O   0.53959000821066      1.75825754457987      1.34840798432785
  C   1.20818579515080      1.02073499478864     -1.18645446621326
  N   1.36840641187309      1.81943383199034     -2.03246312532133
