15
Coordinates from ORCA-job run
  C   -0.37140051635285     -0.72425833902977     -0.16179116827269
  C   1.01688520534655     -0.03528849048495     -0.15504550004388
  Cl  -0.30010021027097     -1.92462978172937     -1.49292579873788
  H   1.79514536245256     -0.79451110768099     -0.05900402662325
  C   -0.54835278956890     -1.44607353140614      1.09807890931289
  N   -0.72577940913945     -2.00351274756888      2.11760320622753
  C   -1.53105412851953      0.23119657059295     -0.40734898478560
  H   -1.39248395755059      0.74587361515190     -1.35899105686645
  H   -1.59299885987833      0.96735315558745      0.39476188906560
  H   -2.45962009463266     -0.33918069000953     -0.44339470746952
  N   1.14150527752586      0.84126931375097      1.07658760572769
  O   1.74931471792857      0.34629494540982      2.01880760377772
  O   0.60326469678445      1.94195920271598      1.03335490792596
  C   1.22207121972110      0.77454771811040     -1.34745395870735
  N   1.39260348615416      1.42096016659015     -2.31323892053085
