15
Coordinates from ORCA-job run
  C   -0.55252326130031     -0.36876456729893      0.29724854361337
  C   0.60947456170681      0.65198787365910      0.19517733004891
  Cl  0.00077157849751     -1.82993799098403      1.16125298275316
  H   0.22561202337332      1.55616129893277     -0.28527708492266
  C   -1.59419632534338      0.27995214590229      1.09616013228015
  N   -2.44534724814478      0.82828555978619      1.69337333084493
  C   -1.10533768003769     -0.76301914572779     -1.06886010928547
  H   -1.38863472671585      0.12730704266031     -1.63413840500239
  H   -1.98311283660553     -1.39355368075256     -0.92628690687894
  H   -0.36036619996684     -1.32219225813524     -1.63385640054396
  N   1.67676555327309      0.12796959864227     -0.74062972640320
  O   2.58521919057087     -0.53295357593419     -0.25522176250278
  O   1.50559694516273      0.39952956906719     -1.92554825493681
  C   1.18922681913282      0.97150324782191      1.49121345838464
  N   1.63785160639725      1.26772488236072      2.53539287255107
