15
Coordinates from ORCA-job run
  C   -0.36175092660673     -0.71070185263106     -0.22854115325312
  C   1.01488038448838     -0.00133586831322     -0.16870147282847
  Cl  -0.28735843000761     -1.77133755201188     -1.67361852503804
  H   1.80666252619141     -0.75250136640204     -0.15631188707425
  C   -0.50900946238088     -1.55791614624457      0.95479845175009
  N   -0.65810142945952     -2.21773989194715      1.91616121254688
  C   -1.54062855428480      0.24294047286939     -0.36460045743997
  H   -1.42141909390084      0.85490772679666     -1.25967560782547
  H   -1.60740135915437      0.89170458261769      0.50939068520145
  H   -2.45906150705157     -0.33838485383189     -0.45122110260729
  N   1.13997515372930      0.75201901078757      1.14191062506278
  O   0.58117550668382      1.84090334623147      1.21348190993119
  O   1.76942063199377      0.17899196646092      2.02390419602366
  C   1.19203099573197      0.92553433547894     -1.27750484191356
  N   1.34058556402764      1.66291609013917     -2.17947203253585
