11
Coordinates from ORCA-job run
  C   0.30016168112923      0.03404228155502     -0.01244964355405
  C   -0.95975133075751     -0.77496883086200     -0.27430323459324
  Br  1.67817368418837     -0.57699816732557     -1.38544997352936
  H   -1.34332953580087     -0.54247375415995     -1.26963741152737
  H   -0.75323028272925     -1.84254810686452     -0.22055424144012
  H   -1.70605706897168     -0.50279147269387      0.47505525681064
  C   0.89873184459214     -0.30633217777128      1.27919735823208
  N   1.34804196961318     -0.57548344904445      2.33057742640776
  N   0.04069530176198      1.42246330427100     -0.06762341384204
  H   -0.37270321412502      1.68416338289127     -0.95429443107075
  H   0.86826695109941      1.97992699000435      0.10148230810645
