11
Coordinates from ORCA-job run
  C   0.33473530502774     -0.01430789258126     -0.16358860353593
  C   -0.96439601310731     -0.79986326007719     -0.22550357755909
  Br  1.57663062003415     -0.71487238944874     -1.51985301919490
  H   -1.41264134646545     -0.65403561605284     -1.20835190842957
  H   -0.78772946792834     -1.86084250953337     -0.05208363193482
  H   -1.64835009311865     -0.42769418330137      0.54361878653181
  C   0.99870714382417     -0.21859738829837      1.13567779139324
  N   1.46971226088563     -0.34573698927521      2.20563389846716
  N   0.08831697401999      1.37217213592437     -0.47995075847319
  H   0.94003858912847      1.91655722050965     -0.40535701948423
  H   -0.59502397230041      1.74822087213432      0.16975804221950
