20

C	0.0	0.0	0.0
C	-0.553278	0.078951	-1.434583
Cl	1.800688	0.0	0.0
H	-1.619842	0.308267	-1.311313
C	-0.450007	1.190593	0.836858
H	-1.543372	1.208815	0.84375
H	-0.073631	2.131157	0.436649
H	-0.080274	1.069841	1.858117
C	-0.47398	-1.291631	0.650686
H	-0.055207	-2.169845	0.157095
H	-1.567566	-1.317799	0.611815
H	-0.153416	-1.3019	1.695054
C	-0.369653	-1.169113	-2.272622
H	0.661896	-1.522233	-2.250795
H	-1.041593	-1.941348	-1.899053
H	-0.639767	-0.963001	-3.309184
N	0.03521	1.257443	-2.1526
O	0.964853	1.057437	-2.936271
O	-0.443163	2.36646	-1.909519
Br	-3.955951	0.0	0.0
