20

C	0.0	0.0	0.0
C	-0.380257	-0.243447	-1.480058
Cl	1.80635	0.0	0.0
H	-0.077291	0.642038	-2.042644
C	-0.496796	1.377665	0.408022
H	-0.119776	2.149832	-0.266678
H	-1.591271	1.386374	0.400841
H	-0.155898	1.606759	1.420176
C	-0.513131	-1.056614	0.96018
H	-1.607554	-1.026474	0.96441
H	-0.155133	-0.832846	1.968003
H	-0.176901	-2.051494	0.674657
C	-1.829836	-0.599094	-1.735778
H	-2.532514	0.092018	-1.270124
H	-2.010104	-0.600538	-2.814313
H	-2.064685	-1.585703	-1.339
N	0.452209	-1.330912	-2.104303
O	1.128499	-1.02701	-3.086916
O	0.375743	-2.462889	-1.631206
Br	-4.756484	0.0	0.0
