20

C	0.0	0.0	0.0
C	-0.357075	-0.156411	-1.498007
Cl	1.806258	0.0	0.0
H	0.01682	0.731809	-2.011683
C	-0.498931	1.35491	0.47621
H	-0.147166	1.537725	1.494263
H	-1.593218	1.35391	0.482199
H	-0.134606	2.15995	-0.166187
C	-0.522411	-1.102207	0.900779
H	-0.176631	-0.925405	1.922338
H	-1.616823	-1.072719	0.893938
H	-0.182449	-2.082696	0.573709
C	-1.815925	-0.407309	-1.811923
H	-1.949862	-0.423881	-2.897487
H	-2.477024	0.348756	-1.392149
H	-2.151801	-1.359022	-1.405043
N	0.426238	-1.264443	-2.150029
O	1.142228	-0.959072	-3.103717
O	0.272284	-2.409869	-1.730704
Br	-4.695314	0.0	0.0
