17

C	0.0	0.0	0.0
C	-0.459043	0.542925	-1.400087
Cl	1.803389	0.0	0.0
H	0.416345	1.035733	-1.837679
H	-0.289656	-1.046855	0.11368
C	-0.507791	0.791765	1.184598
H	-0.14348	0.355738	2.117535
H	-1.600312	0.758701	1.178883
H	-0.170574	1.830494	1.139689
N	-1.540123	1.50963	-1.421404
H	-1.336919	2.288693	-0.807485
H	-2.409955	1.084918	-1.092713
C	-0.85563	-0.635112	-2.282226
H	-1.772689	-1.080914	-1.886724
H	-1.055308	-0.28512	-3.297167
H	-0.069102	-1.39554	-2.311021
Br	-4.290989	0.0	0.0
