11

C	-0.250489	-0.046355	-1.489073
C	0.0	0.0	0.0
Cl	-1.998399	-0.158946	-1.986222
H	1.09444	0.0	0.0
H	0.231498	-0.934799	-1.89939
H	-0.378475	0.923733	0.441941
C	0.315853	1.132927	-2.143053
N	0.718296	2.087595	-2.694678
C	-0.537633	-1.157638	0.678615
N	-0.955394	-2.103963	1.237653
F	2.513403	0.0	0.0
