11

C	-0.470326	-0.046518	-1.451389
C	0.0	0.0	0.0
Cl	-0.000729	1.47383	-2.285253
H	1.092665	0.0	0.0
H	-1.558331	-0.103515	-1.546725
H	-0.353045	0.930736	0.45307
C	0.095518	-1.183684	-2.178726
N	0.473371	-2.114835	-2.78621
C	-0.55368	-1.126063	0.725504
N	-1.007571	-2.040515	1.309485
F	2.529652	0.0	0.0
