11

C	-0.246978	-0.060499	-1.489801
C	0.0	0.0	0.0
Cl	-1.994037	-0.175565	-1.994012
H	1.094366	0.0	0.0
H	0.23677	-0.953436	-1.890252
H	-0.378029	0.929072	0.432925
C	0.322173	1.111396	-2.152908
N	0.729492	2.059328	-2.711572
C	-0.538487	-1.150211	0.689556
N	-0.956186	-2.091602	1.256856
F	2.511679	0.0	0.0
