11

C	-0.470086	-0.015726	-1.452487
C	0.0	0.0	0.0
Cl	-0.01107	1.52453	-2.253193
H	1.094101	0.0	0.0
H	-1.557627	-0.07814	-1.54904
H	-0.354346	0.920515	0.473357
C	0.102752	-1.132674	-2.205279
N	0.484639	-2.045218	-2.837148
C	-0.5523	-1.142608	0.700556
N	-1.004601	-2.074106	1.258765
F	2.527837	0.0	0.0
