11

C	-0.470069	0.010728	-1.452336
C	0.0	0.0	0.0
Cl	-0.014703	1.566798	-2.223988
H	1.092608	0.0	0.0
H	-1.557422	-0.052524	-1.550224
H	-0.355893	0.910968	0.490438
C	0.105342	-1.091466	-2.225159
N	0.487541	-2.001539	-2.860556
C	-0.551666	-1.155358	0.680691
N	-1.002242	-2.091642	1.232121
F	2.527651	0.0	0.0
