11

C	-0.502405	-0.028271	-1.437964
C	0.0	0.0	0.0
Cl	0.22385	1.294829	-2.409675
H	1.092718	0.0	0.0
H	-1.583068	0.124821	-1.514012
H	-0.317619	-0.924278	0.497405
C	-0.194725	-1.311633	-2.070835
N	0.042805	-2.34326	-2.578997
C	-0.567797	1.129097	0.710186
N	-1.028303	2.044824	1.286116
F	2.526159	0.0	0.0
