11

C	-0.301436	-0.058344	-1.476519
C	0.0	0.0	0.0
Cl	-2.03357	-0.455603	-1.877226
H	1.096548	0.0	0.0
H	0.293657	-0.867801	-1.901757
H	-0.322122	-0.935137	0.466671
C	0.044746	1.176785	-2.176974
N	0.321034	2.152213	-2.769106
C	-0.611511	1.12568	0.669832
N	-1.104525	2.039983	1.220748
F	2.518075	0.0	0.0
