11

C	-0.274372	-0.064926	-1.483157
C	0.0	0.0	0.0
Cl	-1.990521	-0.504507	-1.920078
H	1.095478	0.0	0.0
H	0.349883	-0.859477	-1.89726
H	-0.323499	-0.935544	0.464142
C	0.049724	1.182768	-2.170566
N	0.279666	2.196756	-2.715144
C	-0.624143	1.127346	0.655526
N	-1.130415	2.043435	1.192644
F	2.518523	0.0	0.0
