13

C	-0.612675	0.112917	-1.59063
C	0.112808	0.070892	-0.229124
Br	0.086278	-1.260719	-2.778405
H	1.200579	0.116305	-0.393655
H	-0.426747	1.065201	-2.09311
C	-2.049857	-0.075208	-1.43104
N	-3.207642	-0.204519	-1.278359
N	-0.160764	-1.156463	0.478309
H	0.712138	-1.422073	0.938968
H	-0.887262	-1.030943	1.171014
C	-0.285473	1.293736	0.493819
N	-0.666685	2.254846	1.053325
Br	3.128275	-0.826658	1.102748
