13

C	-0.635637	0.010337	-1.569267
C	0.058418	0.096616	-0.193043
Br	0.098289	-1.45997	-2.61141
H	1.142212	0.134559	-0.337056
H	-0.442143	0.9146	-2.151357
C	-2.075061	-0.172887	-1.426144
N	-3.234597	-0.298414	-1.283972
N	-0.225944	-1.063669	0.616185
H	-0.970823	-0.881095	1.275965
H	0.63635	-1.277437	1.12185
C	-0.363558	1.376471	0.407579
N	-0.766338	2.377089	0.875028
Br	3.04277	-0.645846	1.299675
