13

C	-0.109974	0.060126	-1.436047
C	-0.020261	0.225947	0.102067
Br	-1.832003	-0.707143	-1.966739
H	0.990751	0.612214	0.267422
H	0.669783	-0.664374	-1.708755
C	0.078593	1.317546	-2.139799
N	0.246073	2.345202	-2.685804
N	-0.134621	-0.991808	0.869047
H	-0.969535	-1.493817	0.588146
H	0.683981	-1.554747	0.630982
C	-0.994465	1.225374	0.568876
N	-1.78247	2.011429	0.942911
Br	2.727384	-1.745698	-0.816042
