13

C	-0.193994	0.070844	-1.376339
C	-0.059895	0.289385	0.138745
Br	-1.991049	-0.489292	-1.889371
H	0.978697	0.604978	0.266085
H	0.496635	-0.741828	-1.630298
C	0.153218	1.27327	-2.119506
N	0.433043	2.254557	-2.702297
N	-0.358919	-0.951747	0.837381
H	0.428789	-1.567813	0.617643
H	-0.31893	-0.771934	1.835178
C	-0.942928	1.36724	0.601404
N	-1.627119	2.230194	1.008851
Br	2.640387	-1.726835	-0.513996
