18

C	-0.531189	0.006982	-1.435379
C	0.0	0.0	0.0
F	-0.230834	-1.203267	-1.997257
H	1.088345	0.0	0.0
C	-1.998366	0.302982	-1.58774
H	-2.219159	1.302271	-1.218033
H	-2.273809	0.25119	-2.642941
H	-2.551665	-0.44494	-1.023041
N	0.281323	1.003459	-2.286031
O	-0.25993	2.054986	-2.614745
O	1.405339	0.635989	-2.603208
N	-0.39824	-1.195435	0.746597
O	-1.2606	-1.965484	0.299302
O	0.236399	-1.374679	1.790364
N	-0.394214	1.186862	0.712538
O	-1.011392	1.119603	1.784111
O	-0.003451	2.239208	0.176668
H	2.35454	0.0	0.0
