18

C	-0.545632	-0.005818	-1.422257
C	0.0	0.0	0.0
F	0.198968	-0.873031	-2.184459
H	1.086658	0.0	0.0
C	-1.998107	-0.363506	-1.565698
H	-2.278726	-0.320969	-2.616499
H	-2.132197	-1.382201	-1.197792
H	-2.61222	0.325125	-0.989806
N	-0.243557	1.352761	-2.063839
O	0.783104	1.913535	-1.704332
O	-0.982193	1.711258	-2.978267
N	-0.360967	-1.268825	0.649842
O	0.189012	-2.267994	0.172879
O	-1.181854	-1.280051	1.57286
N	-0.470317	1.108325	0.779073
O	0.01341	1.200489	1.91907
O	-1.226873	1.952975	0.254985
H	2.360911	0.0	0.0
