18

C	-0.565018	0.016836	-1.399299
C	0.0	0.0	0.0
F	-1.926231	0.187272	-1.391078
H	1.086784	0.0	0.0
C	0.07808	1.061905	-2.274634
H	-0.210355	2.051638	-1.925593
H	-0.272754	0.920866	-3.299398
H	1.164219	0.964627	-2.206306
N	-0.298772	-1.326347	-2.073779
O	-1.166954	-1.749637	-2.824804
O	0.809359	-1.808263	-1.885659
N	-0.444377	-1.129272	0.805328
O	-0.007606	-1.147207	1.960623
O	-1.110547	-2.03081	0.276883
N	-0.410814	1.248327	0.677367
O	-1.376576	1.225533	1.444814
O	0.251879	2.250353	0.391293
H	2.434479	0.0	0.0
