18

C	-0.58251	-0.042056	-1.406522
C	0.0	0.0	0.0
F	-0.242214	-1.271119	-1.935204
H	1.089156	0.0	0.0
C	-2.068072	0.140471	-1.544177
H	-2.363355	1.116829	-1.171781
H	-2.557595	-0.644659	-0.96903
H	-2.338402	0.051728	-2.598315
N	0.160457	0.964069	-2.297387
O	-0.472014	1.911813	-2.75307
O	1.34615	0.718295	-2.495057
N	-0.370971	-1.272503	0.69024
O	0.477183	-2.160994	0.726241
O	-1.515547	-1.359551	1.144654
N	-0.387103	1.113505	0.777773
O	-0.217113	1.024213	2.013582
O	-0.582422	2.190172	0.159584
H	2.328465	0.0	0.0
