18

C	-0.465159	0.013132	-1.440608
C	0.0	0.0	0.0
F	0.025753	1.127321	-2.067366
H	1.089882	0.0	0.0
C	0.007202	-1.209181	-2.177071
H	1.080675	-1.298459	-1.982937
H	-0.173934	-1.072472	-3.242308
H	-0.516982	-2.098913	-1.839097
N	-1.987029	0.195265	-1.571113
O	-2.566484	-0.431589	-2.452861
O	-2.498936	1.024427	-0.827199
N	-0.482838	-1.196058	0.695943
O	-1.507475	-1.753973	0.273123
O	0.184697	-1.577342	1.657207
N	-0.365429	1.178427	0.802092
O	-1.003161	1.015685	1.844388
O	0.068418	2.249898	0.384817
H	2.462291	0.0	0.0
