15

C	-0.376287	0.040733	-1.471943
C	0.0	0.0	0.0
Cl	-2.185497	0.147726	-1.740647
H	1.097623	0.0	0.0
C	0.201225	1.223925	-2.12321
N	0.598384	2.184989	-2.670578
C	0.075677	-1.166357	-2.17184
N	0.3985	-2.141338	-2.743377
C	-0.500893	-1.210652	0.614559
N	-0.876402	-2.186831	1.154577
C	-0.398634	1.253144	0.767804
H	0.089909	2.120791	0.316863
H	-0.01371	1.160163	1.785784
H	-1.479375	1.411167	0.802189
H	2.563865	0.0	0.0
