15

C	-0.386868	0.040317	-1.468695
C	0.0	0.0	0.0
Cl	-2.202143	0.132492	-1.722424
H	1.097623	0.0	0.0
C	0.174052	1.229028	-2.122678
N	0.60092	2.17004	-2.682387
C	0.067886	-1.160298	-2.175807
N	0.402246	-2.120174	-2.765606
C	-0.49865	-1.211815	0.615466
N	-0.908035	-2.181185	1.142983
C	-0.396508	1.251015	0.772138
H	-1.477304	1.404782	0.816476
H	0.085772	2.120321	0.318121
H	-0.001503	1.15861	1.786241
H	2.565342	0.0	0.0
