15

C	-0.37712	0.0179	-1.473244
C	0.0	0.0	0.0
Cl	-2.191263	0.016833	-1.739869
H	1.097582	0.0	0.0
C	0.128079	1.232158	-2.12383
N	0.516365	2.194783	-2.674761
C	0.147526	-1.15944	-2.172689
N	0.543567	-2.094439	-2.764951
C	-0.478024	-1.220328	0.617776
N	-0.872063	-2.19634	1.144264
C	-0.435692	1.242951	0.762363
H	0.0104	2.127916	0.301208
H	-1.522164	1.356294	0.806085
H	-0.039072	1.172073	1.777557
H	2.573814	0.0	0.0
