15

C	-0.37607	0.03291	-1.472163
C	0.0	0.0	0.0
Cl	-2.187654	0.106775	-1.74192
H	1.097592	0.0	0.0
C	0.180658	1.224664	-2.124188
N	0.604732	2.167152	-2.683538
C	0.099684	-1.164848	-2.171994
N	0.453207	-2.118915	-2.760379
C	-0.49728	-1.212036	0.615683
N	-0.906135	-2.181683	1.142761
C	-0.407289	1.251204	0.765548
H	-1.489747	1.395953	0.806201
H	-0.014853	1.166702	1.781412
H	0.067302	2.123408	0.308503
H	2.567312	0.0	0.0
