12
Coordinates from ORCA-job run
  C   0.03654978040434      0.21699611418241     -0.35032539215386
  C   1.24086653467266     -0.50325020228151      0.22692265894402
  F   0.15794390791398      0.20293550339126     -1.74062618287745
  H   2.15985754159494     -0.02062427581961     -0.10814752867448
  H   1.21055829623516     -0.49265699137491      1.31790255423726
  H   1.23598300907541     -1.53742211175436     -0.12289689960710
  C   -1.28522860206157     -0.43808400536210      0.00543002473843
  H   -2.10569281652937      0.08979934423919     -0.48209149358028
  H   -1.44487234666500     -0.42445174366596      1.08495511431032
  H   -1.27258036808577     -1.47249977010398     -0.34307086946716
  C   0.03551403453541      1.63178977951565      0.07327365428465
  N   0.03110102890980      2.74646835903392      0.44067435984566
