16

C	-0.483332	-0.06724	-1.441961
C	0.0	0.0	0.0
Br	-0.11114	1.851851	-2.11435
H	1.088466	0.0	0.0
H	-0.409266	0.860023	0.526429
C	0.349597	-0.967027	-2.325742
H	1.405072	-0.743623	-2.15572
H	0.090517	-0.824495	-3.379053
H	0.157987	-1.999001	-2.031124
N	-1.866235	-0.349067	-1.52935
H	-2.192397	-0.320812	-2.488772
H	-2.411261	0.294243	-0.968628
N	-0.449419	-1.184515	0.744311
O	-0.087754	-2.29502	0.347524
O	-1.129401	-1.003194	1.764577
H	2.734406	0.0	0.0
