16

C	-0.48727	-0.048114	-1.434667
C	0.0	0.0	0.0
Br	-0.051871	1.777869	-2.267001
H	1.087193	0.0	0.0
H	-0.333223	-0.91884	0.496057
C	0.400241	-1.019101	-2.191186
H	0.20603	-2.029132	-1.817244
H	1.448499	-0.768927	-2.007807
H	0.184261	-0.985866	-3.262263
N	-1.863958	-0.359982	-1.569061
H	-2.418326	0.316126	-1.058205
H	-2.129789	-0.356385	-2.545985
N	-0.566199	1.100372	0.820668
O	0.120331	1.523985	1.744198
O	-1.715724	1.4917	0.575371
H	2.863712	0.0	0.0
