16

C	-0.50463	-0.151698	-1.442402
C	0.0	0.0	0.0
Br	-0.329563	1.685136	-2.194534
H	1.087851	0.0	0.0
H	-0.360194	0.912903	0.472444
C	0.372502	-1.065822	-2.273892
H	0.243799	-2.087971	-1.915681
H	0.077166	-1.004522	-3.322566
H	1.41778	-0.787878	-2.133506
N	-1.901413	-0.511417	-1.603886
H	-2.465896	0.078768	-1.002347
H	-1.989879	-1.46843	-1.271888
N	-0.44743	-1.093295	0.849575
O	-0.698483	-0.842408	2.035065
O	-0.507372	-2.238928	0.374078
H	2.666917	0.0	0.0
