16

C	-0.322726	0.219106	-1.469535
C	0.0	0.0	0.0
Br	-0.523246	-1.934163	-2.160948
H	1.09034	0.0	0.0
H	-0.417939	-0.901216	0.430323
C	-1.691705	0.718365	-1.862367
H	-1.829264	0.654899	-2.943793
H	-2.466118	0.119667	-1.383928
H	-1.775437	1.760581	-1.543684
N	0.724552	0.820539	-2.075124
H	1.647911	0.606311	-1.663824
H	0.681315	0.953917	-3.072312
N	-0.406874	1.122145	0.854015
O	-0.676324	0.853818	2.030107
O	-0.369239	2.270647	0.398662
H	2.697661	0.0	0.0
