16

C	-0.534748	-0.011188	-1.436308
C	0.0	0.0	0.0
Br	-0.216696	1.771896	-2.235583
H	1.088212	0.0	0.0
H	-0.360766	-0.923847	0.465928
C	0.294297	-1.021352	-2.208852
H	0.007373	-1.01136	-3.260866
H	0.105896	-2.021472	-1.796381
H	1.357119	-0.800811	-2.079823
N	-1.95071	-0.279285	-1.598616
H	-2.467785	0.284611	-0.930412
H	-2.101054	-1.251117	-1.338908
N	-0.589153	1.088946	0.804475
O	0.092869	2.073826	1.067746
O	-1.773795	0.945994	1.159066
H	2.869851	0.0	0.0
