16

C	-0.267705	-0.00937	-1.485845
C	0.0	0.0	0.0
Br	-2.26103	-0.305046	-1.84542
H	1.092528	0.0	0.0
H	-0.372837	-0.911662	0.458224
C	0.100828	1.260636	-2.228414
H	-0.513509	2.113104	-1.946656
H	1.148015	1.472175	-1.981481
H	0.002383	1.083516	-3.30472
N	0.437557	-1.174727	-1.943567
H	0.523057	-1.142092	-2.953039
H	1.381916	-1.116393	-1.537951
N	-0.513066	1.120546	0.774906
O	-1.128959	0.858348	1.815679
O	-0.246648	2.269724	0.406626
H	2.671581	0.0	0.0
