15

C	0.0	0.0	0.0
C	-0.373572	0.085315	-1.516186
Br	1.9617	0.0	0.0
H	0.529926	0.356023	-2.072662
C	-0.424436	1.102725	0.85731
N	-0.501881	1.964764	1.660286
C	-0.423801	-1.256393	0.610726
N	-0.502639	-2.299974	1.156683
N	-1.272872	1.286721	-1.827903
O	-0.86562	2.37851	-1.437223
O	-2.217652	1.112821	-2.595082
N	-0.858887	-1.148949	-2.003101
H	-1.737003	-1.335031	-1.523721
H	-1.031168	-1.077088	-2.998028
H	-2.012318	0.0	0.0
