15

C	0.0	0.0	0.0
C	-0.315938	-0.242015	-1.538562
Br	1.969075	0.0	0.0
H	0.585808	0.037318	-2.08769
C	-0.399218	1.279914	0.569212
N	-0.477485	2.329816	1.103352
C	-0.504183	-1.098577	0.808232
N	-0.559991	-2.07427	1.477296
N	-1.335339	0.722291	-2.09714
O	-0.995766	1.90437	-2.054485
O	-2.347921	0.29046	-2.632675
N	-0.671765	-1.578172	-1.880845
H	0.091104	-2.188528	-1.607752
H	-1.494653	-1.832926	-1.342144
H	-1.931845	0.0	0.0
