15

C	0.0	0.0	0.0
C	-0.294021	-0.004138	-1.538616
Br	1.964634	0.0	0.0
H	-1.358618	-0.215697	-1.644129
C	-0.465685	1.250813	0.595333
N	-0.543528	2.289894	1.152906
C	-0.568772	-1.122765	0.74758
N	-0.586474	-2.055601	1.478841
N	0.391579	-1.207547	-2.200718
O	0.152576	-2.312211	-1.723154
O	1.040479	-1.004076	-3.228201
N	0.035406	1.232385	-2.139174
H	1.034011	1.389055	-2.116215
H	-0.270018	1.238935	-3.100997
H	-2.080086	0.0	0.0
