15

C	0.0	0.0	0.0
C	-0.352595	-0.05394	-1.536329
Br	1.952522	0.0	0.0
H	-1.428787	0.069245	-1.580784
C	-0.68755	1.200127	0.517647
N	-0.651385	2.325344	0.910076
C	-0.476127	-1.190871	0.700821
N	-0.530101	-2.196695	1.318873
N	-0.165221	-1.436652	-2.134526
O	-1.157573	-1.877088	-2.72275
O	0.916317	-2.006251	-2.064014
N	0.405561	0.878833	-2.332993
H	0.622688	1.700503	-1.779829
H	-0.177627	1.166822	-3.10998
H	-2.153463	0.0	0.0
