14
Coordinates from ORCA-job run
  C   1.17093134502771     -0.16526512606261     -0.15403428163666
  C   -0.22505786074866      0.12108089088633      0.40998369709910
  Br  2.55858454670748      0.16226369538980      1.19128148460708
  H   -0.36649488182407     -0.53536669372702      1.28268873611670
  H   1.37551825754198      0.54057737881436     -0.96237601762393
  C   1.30778724428678     -1.53618872927621     -0.62461263557411
  N   1.37952316412129     -2.64448510486282     -1.00797344080779
  C   -1.27921052542289     -0.20381783898891     -0.64085583400810
  H   -2.27411958532148      0.01420229776345     -0.24322816507893
  H   -1.12622845034117      0.41553474189376     -1.52801758345893
  H   -1.25776384899937     -1.25644573173614     -0.92590771093814
  N   -0.29298471227870      1.54212597362372      0.72328535548412
  H   -1.24823727264245      1.79236014179444      0.94859676673053
  H   0.27775257989353      1.75342410448786      1.53316962908907
