14
Coordinates from ORCA-job run
  C   0.87659516636331     -0.64772782732851     -0.52839839281824
  C   -0.32158716985067     -0.08278431474085      0.25259725160190
  Br  1.51692531676435      0.54419361833817     -1.93263474567619
  H   -0.61662477041116     -0.91742893250681      0.91414137179077
  H   0.58131550094872     -1.57021957054537     -1.03445209982794
  C   1.97700324254751     -0.93659801230933      0.38352746465920
  N   2.81477650587797     -1.16284755440437      1.17571791234863
  C   -1.49350840500254      0.23846102715842     -0.65953266684191
  H   -1.26294860759864      1.10841012145308     -1.27514437563019
  H   -1.73468965804317     -0.60459538638300     -1.31098628323053
  H   -2.37884947470864      0.46229119656592     -0.05840028050778
  N   0.08674990371710      1.10704558949110      0.97647506682091
  H   0.67984130981326      0.86969523842497      1.76322874361507
  H   -0.72599886041741      1.59210480678658      1.33486103369628
