14
Coordinates from ORCA-job run
  C   0.88094314872595     -0.91656254315550     -0.05370644259212
  C   -0.44767434680103     -0.24090449341433      0.33296651026566
  Br  0.60186834665539     -2.36293850753612     -1.34051018920192
  H   -1.14463296601674     -1.05264207191079      0.58615600690482
  H   1.31289984613832     -1.39879247494568      0.82572757137390
  C   1.83788375730058      0.04063889626996     -0.59174181383014
  N   2.59329295199381      0.82059586649723     -1.03951211225152
  C   -1.02754092177345      0.58561343996633     -0.80123535672579
  H   -1.15456396460652     -0.00933910015922     -1.70593394005309
  H   -0.37044001647361      1.43000650884852     -1.02313070524821
  H   -2.00719971240463      0.97467173376682     -0.51180307430964
  N   -0.12932886265736      0.62167453565438      1.46443621037671
  H   -0.16949669140988      0.11236868748959      2.33827057506639
  H   -0.77601056867083      1.39760952262881      1.52101676022495
