14
Coordinates from ORCA-job run
  C   1.12280272269132     -0.23139815186580     -0.32871719909760
  C   -0.14457443541114      0.22786900026944      0.40013416806584
  Br  2.73581202658765      0.39240990022835      0.59424494646165
  H   -0.10021538373913     -0.17856191877874      1.42249657839523
  H   1.15118064708070      0.23742576129657     -1.31500735828288
  C   1.19895958214928     -1.68032463494332     -0.44848432595247
  N   1.22208329714792     -2.85142817927212     -0.54066306055988
  C   -1.37362890067017     -0.32620806953626     -0.30941084862861
  H   -1.38212341162970     -1.41689763126285     -0.31575790320751
  H   -1.41010947986992      0.04328388237064     -1.33718213654249
  H   -2.27783726662943      0.01185167305992      0.20402875267406
  N   -0.18392195275357      1.68320693724694      0.34565266097445
  H   0.52703933482274      2.07894513829364      0.94921569866746
  H   -1.08346677977653      2.00882629289360      0.67845002703276
