14
Coordinates from ORCA-job run
  C   1.15951564162251     -0.17740242327107     -0.21551104457324
  C   -0.20070150163919      0.13610694863002      0.41750972888886
  Br  2.62273918571164      0.18079211984221      1.03924344905331
  H   -0.29477118725207     -0.48963095908750      1.31865231850758
  H   1.32123519830094      0.50338559947605     -1.05417454979157
  C   1.26192473472207     -1.56306864872718     -0.64971684150357
  N   1.30603744062231     -2.68324940178843     -1.00093440655849
  C   -1.31503143087390     -0.21700746722798     -0.55957908368033
  H   -1.20797432572761      0.36716485168358     -1.47703157286811
  H   -2.28406864534078      0.02535060296531     -0.11453892053936
  H   -1.31765006105792     -1.28000561457774     -0.80521399619619
  N   -0.24393225122376      1.56749882686132      0.68628818461882
  H   -1.18279710053027      1.82955126656139      0.96183146996688
  H   0.37547430266603      1.80151429866000      1.45317526467541
