14
Coordinates from ORCA-job run
  C   0.88954116902585     -0.89325075672891     -0.17063078588298
  C   -0.43487146497836     -0.27960996854764      0.32015976174140
  Br  0.58783739241088     -2.20953941265945     -1.58602171029869
  H   -1.11425243744038     -1.12291373305966      0.50971317987557
  H   1.35439019066778     -1.45381029475993      0.64314925540544
  C   1.81788488523863      0.12633747396083     -0.63971716145804
  N   2.55039020072679      0.95691952164414     -1.03111049798160
  C   -1.05755637793618      0.64815098018868     -0.70796519739705
  H   -1.20406937571119      0.14581099108814     -1.66425826034711
  H   -0.41733168451707      1.51999031161347     -0.86149551476661
  H   -2.03279877480686      0.99171172106213     -0.35365003895339
  N   -0.09279932588868      0.47007291320642      1.52283839259405
  H   -0.74887824169368      1.22440005631725      1.67753643957599
  H   -0.09748615509751     -0.12526980332550      2.34145213789302
