17

C	0.0	0.0	0.0
C	-0.376299	0.267446	-1.487166
F	1.387173	0.0	0.0
H	-0.012322	-0.579867	-2.069634
C	-0.557962	0.961559	1.022155
H	-1.646438	0.855499	1.056939
H	-0.28861	1.982918	0.762834
H	-0.146735	0.707197	2.001123
C	-0.409344	-1.383008	0.318642
N	-0.685122	-2.487505	0.606008
N	0.504085	1.412852	-1.953551
O	0.285615	2.519717	-1.468948
O	1.357013	1.166328	-2.802513
N	-1.712539	0.571394	-1.834927
H	-2.192563	1.135422	-1.143095
H	-2.279529	-0.264633	-1.90641
Br	-4.342062	0.0	0.0
