17

C	0.0	0.0	0.0
C	-0.5315	-0.124943	-1.427188
F	1.392554	0.0	0.0
H	-1.618289	-0.268284	-1.344836
C	-0.487483	1.279762	0.644805
H	-1.580098	1.273692	0.656464
H	-0.102345	1.326885	1.665683
H	-0.122937	2.124801	0.06256
C	-0.37377	-1.159403	0.837435
N	-0.527145	-2.04265	1.595652
N	0.039199	-1.417244	-2.024691
O	0.970821	-1.310698	-2.824466
O	-0.462568	-2.474586	-1.657652
N	-0.199145	1.014882	-2.206232
H	0.766968	0.961265	-2.501824
H	-0.794277	1.061698	-3.021172
Br	-3.826344	0.0	0.0
