17

C	0.0	0.0	0.0
C	-0.532819	-0.110922	-1.426866
F	1.392519	0.0	0.0
H	-1.619549	-0.255043	-1.342111
C	-0.484725	1.273074	0.660744
H	-1.577121	1.268065	0.675045
H	-0.120818	2.123756	0.086209
H	-0.096248	1.309018	1.681157
C	-0.372203	-1.168877	0.826003
N	-0.572363	-2.057512	1.566613
N	0.038937	-1.396386	-2.038627
O	-0.45489	-2.459345	-1.677611
O	0.96414	-1.279614	-2.843502
N	-0.202449	1.036979	-2.194564
H	0.763348	0.986812	-2.492109
H	-0.799348	1.09328	-3.007868
Br	-3.834023	0.0	0.0
