17

C	0.0	0.0	0.0
C	-0.339212	0.116824	-1.521614
F	1.38763	0.0	0.0
H	0.109895	-0.752037	-2.002799
C	-0.591581	1.034766	0.918899
H	-0.325798	2.035228	0.582543
H	-0.217292	0.870545	1.93266
H	-1.680054	0.91381	0.918038
C	-0.399741	-1.360365	0.418053
N	-0.621086	-2.468621	0.737293
N	0.476314	1.276634	-2.062878
O	0.16275	2.402704	-1.685789
O	1.367973	1.018864	-2.864952
N	-1.676643	0.293792	-1.955458
H	-2.195039	0.937843	-1.365703
H	-2.200361	-0.571202	-1.897122
Br	-4.276906	0.0	0.0
