17

C	0.0	0.0	0.0
C	-0.586092	-0.291431	-1.423001
F	1.390121	0.0	0.0
H	-1.394535	-1.012438	-1.299461
C	-0.466057	1.318844	0.571992
H	-1.556159	1.330536	0.609155
H	-0.054714	1.427736	1.577432
H	-0.094754	2.13577	-0.050175
C	-0.357091	-1.109751	0.908154
N	-0.528221	-1.99144	1.664132
N	0.521861	-0.999462	-2.166406
O	0.689116	-2.186543	-1.899187
O	1.208319	-0.334712	-2.934582
N	-1.088332	0.783349	-2.200169
H	-2.029187	0.981823	-1.861833
H	-0.504386	1.607132	-2.166517
Br	-3.746619	0.0	0.0
