13

C	0.0	0.0	0.0
C	-0.557437	0.150018	-1.410345
Br	1.952933	0.0	0.0
H	-0.283445	1.126382	-1.822025
H	-0.283897	-0.977305	0.394929
H	-1.654193	0.108238	-1.298005
C	-0.503107	1.104828	0.910191
H	-0.153357	0.946455	1.932337
H	-1.597218	1.080566	0.893123
H	-0.142982	2.077744	0.567723
C	-0.1138	-0.89355	-2.330929
N	0.232455	-1.730619	-3.078255
Cl	-3.733037	0.0	0.0
