13

C	0.0	0.0	0.0
C	-0.259495	0.078727	-1.528897
Br	1.955223	0.0	0.0
H	0.394274	-0.652716	-2.007632
H	-0.313911	-0.963026	0.401231
H	0.104516	1.061091	-1.85462
C	-0.561585	1.152272	0.79202
H	-0.264692	1.088594	1.840764
H	-1.653553	1.085425	0.718125
H	-0.21312	2.104761	0.38324
C	-1.563273	-0.113255	-2.175996
N	-2.361365	-0.243681	-3.029967
Cl	-3.733319	0.0	0.0
