15

C	0.0	0.0	0.0
C	-0.533877	-0.15147	-1.411913
Br	1.965922	0.0	0.0
H	-1.620901	-0.241368	-1.293477
H	-0.270169	0.982753	0.392228
H	-0.158971	-1.09183	-1.833682
C	-0.499131	-1.087335	0.929518
H	-1.592375	-1.029761	0.940855
H	-0.115193	-0.952841	1.943201
H	-0.191123	-2.071781	0.567278
C	-0.221442	1.017643	-2.336607
H	-0.683813	0.862041	-3.31564
H	0.854436	1.149245	-2.481489
H	-0.632875	1.944166	-1.924859
Br	-4.035338	0.0	0.0
