15

C	0.0	0.0	0.0
C	-0.444151	0.025622	-1.51892
Cl	1.749311	0.0	0.0
H	-1.563944	-0.052515	-1.536977
H	-0.430228	0.82077	0.606194
N	-0.459865	-1.32627	0.596529
O	-1.69628	-1.187061	1.382014
O	0.399252	-2.15605	1.120538
N	-0.103913	-1.21214	-2.159234
H	0.856871	-1.177858	-2.466177
H	-0.744533	-1.389587	-2.922361
N	-0.060176	1.254152	-2.205106
H	-0.56584	1.260668	-3.092221
H	-0.45245	2.017796	-1.643029
H	-1.781493	0.0	0.0
