15

C	0.0	0.0	0.0
C	-0.44383	0.025379	-1.519189
Cl	1.749305	0.0	0.0
H	-1.563119	-0.050197	-1.535308
H	-0.430146	0.82146	0.604937
N	-0.459204	-1.323565	0.601481
O	0.39841	-2.155228	1.119657
O	-1.695632	-1.187981	1.381794
N	-0.104326	-1.213049	-2.158823
H	0.85636	-1.179665	-2.466219
H	-0.744933	-1.390275	-2.921929
N	-0.056544	1.252651	-2.205966
H	-0.565708	1.261893	-3.09102
H	-0.443169	2.017915	-1.6424
H	-1.782066	0.0	0.0
