15

C	0.0	0.0	0.0
C	-0.577296	0.051568	-1.439704
Cl	1.764179	0.0	0.0
H	0.220097	-0.302712	-2.101396
H	-0.373864	0.801022	0.631732
N	-0.370627	-1.284407	0.718819
O	0.067334	-2.331157	0.263293
O	-1.062335	-1.158008	1.724135
N	-0.879003	1.436638	-1.830287
H	-0.107715	2.059442	-1.604303
H	-1.70369	1.716696	-1.305413
N	-1.706075	-0.82084	-1.529034
H	-2.49967	-0.491086	-0.904538
H	-2.050554	-0.782634	-2.48165
H	-3.680744	0.0	0.0
