15

C	0.0	0.0	0.0
C	-0.568706	-0.056744	-1.435659
Cl	1.757024	0.0	0.0
H	0.264287	-0.316242	-2.096998
H	-0.362137	0.868026	0.540198
N	-0.362872	-1.187917	0.86807
O	-0.029859	-2.30006	0.4833
O	-0.908297	-0.924262	1.936819
N	-0.938658	1.342762	-1.723375
H	-1.844558	1.467662	-1.267714
H	-1.109403	1.412249	-2.721773
N	-1.591492	-1.063925	-1.564447
H	-1.898047	-1.061997	-2.533211
H	-2.408185	-0.750685	-0.978555
H	-3.446799	0.0	0.0
