15

C	0.0	0.0	0.0
C	-0.527354	0.003242	-1.546471
Cl	1.752698	0.0	0.0
H	-0.164023	0.989807	-1.939907
H	-0.196142	0.910368	0.55215
N	-0.6905	-1.060425	0.750499
O	-0.885011	-0.945048	2.065642
O	-0.225221	-2.163489	0.425449
N	-2.08294	0.011657	-1.612789
H	-2.363432	-0.085725	-2.561968
H	-2.47056	0.834017	-1.200423
N	0.011114	-1.049751	-2.318325
H	-0.35299	-0.968789	-3.262134
H	-0.316266	-1.887739	-1.852264
H	-1.671924	0.0	0.0
