18

C	0.0	0.0	0.0
C	-0.224789	0.032965	-1.574363
Br	1.982543	0.0	0.0
H	0.459052	-0.759733	-1.89035
N	-0.576438	1.107455	0.790703
O	-0.553614	0.94285	2.032912
O	-0.6339	2.248814	0.268163
N	-0.242613	-1.308817	0.572662
H	0.24023	-1.338581	1.4651
H	-1.243747	-1.314144	0.757901
N	0.199351	1.26241	-2.246982
H	1.186139	1.396375	-2.057539
H	-0.270181	2.020007	-1.761056
C	-1.576822	-0.358887	-2.162279
H	-1.40692	-0.49767	-3.238446
H	-2.324188	0.420764	-2.021801
H	-1.955464	-1.285464	-1.730656
H	-2.058333	0.0	0.0
