18

C	0.0	0.0	0.0
C	-0.403482	0.000207	-1.507631
Br	1.947275	0.0	0.0
H	0.38769	0.540961	-2.03544
N	-0.321082	1.429267	0.526613
O	-1.053086	1.517562	1.502471
O	0.176459	2.360334	-0.09194
N	-0.606221	-0.919685	0.875023
H	-0.499556	-1.851729	0.494903
H	-1.617211	-0.688384	0.878923
N	-1.642147	0.730989	-1.680407
H	-2.39134	0.409701	-1.009171
H	-1.999102	0.548477	-2.61464
C	-0.434604	-1.443895	-2.020685
H	-0.580883	-1.424598	-3.106368
H	-1.284446	-1.972156	-1.584862
H	0.494739	-1.990366	-1.817726
H	-3.449512	0.0	0.0
