17

C	0.0	0.0	0.0
C	-0.545159	-0.006064	-1.509999
Br	1.913633	0.0	0.0
H	0.028372	-0.742389	-2.070789
N	-0.453615	1.313517	0.898065
O	-1.461967	1.260185	1.604812
O	0.183937	2.330941	0.677181
N	-0.285256	-1.326226	0.691537
O	-0.371348	-2.300158	-0.04196
O	-0.39738	-1.304291	1.903957
N	-0.410949	1.289364	-2.246803
O	-1.273823	1.515853	-3.089931
O	0.59284	1.961646	-2.052005
N	-2.080845	-0.388736	-1.821059
O	-3.009061	0.376277	-1.598661
O	-2.185611	-1.505819	-2.352445
F	-1.772124	0.0	0.0
