16
Coordinates from ORCA-job run
  C   0.66669499188714      0.31485975538792      0.40048992292118
  C   -0.78481676886367      0.10171939811473     -0.05784302103664
  H   0.70281567755607      0.92956040815461      1.30378804773329
  H   -1.10944143981948      1.02796737926237     -0.54570763765934
  N   1.31907752460011      1.23261363480385     -0.65751525222469
  O   2.24726170641742      0.78131227735859     -1.32007728788287
  O   0.85511138932622      2.36658234842909     -0.75195491789175
  N   1.34908016373233     -0.90436880475628      0.57796770294138
  H   1.38570601990362     -1.39469671359578     -0.30712485484583
  H   2.29128750024737     -0.76016829180856      0.91373526990431
  N   -1.59387848308384     -0.25524100142963      1.10309146473644
  H   -2.57199098120027     -0.25118542789419      0.83595041570389
  H   -1.47923965895849      0.42389195048282      1.84707380034142
  N   -0.79618452012382     -0.95414860403275     -1.05024869776669
  H   -0.94043387299884     -1.83588925248449     -0.57064825056914
  H   -1.54104924862189     -0.82180905599230     -1.71997670440497
