16
Coordinates from ORCA-job run
  C   0.65364958771416      0.47983768931993      0.37904072271248
  C   -0.80848970297877      0.25658026809780     -0.01226588254248
  H   0.73049218635787      1.35748003053736      1.02230212282820
  H   -1.17856390182694      1.17535073302412     -0.48070052101180
  N   1.38185470387153      0.89787301976404     -0.91263547069328
  O   2.24455780419390      0.14907371968971     -1.36326454291145
  O   1.02001989149479      1.95919148541712     -1.41668377766945
  N   1.18307526379997     -0.67814164187081      0.98653101423951
  H   1.09923803205614     -1.45925882360414      0.34819037582601
  H   2.14581196195521     -0.55992323791128      1.26801929910933
  N   -1.54076888703159      0.04993480554334      1.20919251598411
  H   -2.53104381754199     -0.05601414357940      1.02958728221444
  H   -1.18489756936692     -0.77323236194773      1.67957649194346
  N   -0.83816504583772     -0.90010447207976     -0.92239489584879
  H   -0.60165578699858     -0.62024650082942     -1.86909722244198
  H   -1.77611471986107     -1.28040056957090     -0.94639751173830
