16
Coordinates from ORCA-job run
  C   0.71618359329816      0.39961448772087      0.23304668117163
  C   -0.78695281270952      0.21609405236977      0.00511876622695
  H   0.88685462837491      1.14363772867732      1.02563483356882
  H   -1.22434964803340      1.20047114147176     -0.19194705053311
  N   1.28516231671977      1.06819246350256     -0.99296626035918
  O   0.80539771776487      2.16713225065938     -1.25692734608537
  O   2.18182940356075      0.50732588119645     -1.60918697294452
  N   1.31670064486782     -0.88481889143880      0.42678956583822
  H   0.87017827045654     -1.30877325070119      1.23092561886748
  H   2.31504887965482     -0.81629354023240      0.56650588818227
  N   -1.31238112709313     -0.40720804557064      1.23459946737993
  H   -2.21559332330619     -0.81867149727238      1.03205128160745
  H   -1.45807387234177      0.30154790352685      1.94735994692783
  N   -0.95021768515040     -0.58545664570491     -1.17409784076764
  H   -1.92223224591616     -0.69498375136545     -1.42874723618207
  H   -0.50755474014708     -1.48681028683920     -1.05015934289868
