16
Coordinates from ORCA-job run
  C   0.75087007030755      0.19863063855643      0.41163218614378
  C   -0.73131070802648     -0.24982800542508      0.36159550042782
  H   0.94287003322186      0.73351231071920      1.34395864940740
  H   -0.86354181905423     -0.86469472895154      1.26979486439314
  N   0.95426028590770      1.22060673096549     -0.66670648625755
  O   1.03452294924122      2.39886238256431     -0.33801654485676
  O   0.99535068729244      0.78716391401325     -1.81718653289641
  N   1.74024541396283     -0.82535135755893      0.23947139749194
  H   1.88396686604947     -1.33693610653534      1.09877416872310
  H   1.47589161933766     -1.45979323891506     -0.50220056141329
  N   -1.11696358942811     -1.08012395834288     -0.75465792912273
  H   -0.72625591258116     -2.00991593177150     -0.69157980161132
  H   -0.83973373494892     -0.64593231668444     -1.62707863511566
  N   -1.56076917409189      0.93469003102772      0.30208308868859
  H   -1.40755454927924      1.54790008177008      1.09327692306342
  H   -2.53184843791070      0.65220955456828      0.27683971293455
