16
Coordinates from ORCA-job run
  C   0.57543414373090      0.49366683197569      0.33452407863487
  C   -0.86276636460437      0.12537594705531     -0.08155129950955
  H   0.56970920570275      1.39823566121884      0.94684931399192
  H   -1.30084267349288      0.99629990194890     -0.58459949274111
  N   1.28856944342745      0.93643669565175     -0.95164684297029
  O   2.15839170604966      0.20552591069404     -1.41858370974683
  O   0.89362478230332      1.99086592656831     -1.44665321674413
  N   1.18656362245252     -0.59183235874693      0.99630742774000
  H   2.14238557660349     -0.39893903745183      1.25983611607805
  H   1.14342664111486     -1.41126386555951      0.40286243979572
  N   -1.69550353593844     -0.21082839762857      1.05219145261557
  H   -1.97068131506514      0.62882783104007      1.54585807052541
  H   -1.15608232835349     -0.79011241511053      1.68674610387570
  N   -0.77462788935178     -1.06142155007927     -0.92315955395541
  H   -0.50641407704301     -0.82463237515131     -1.87107231760808
  H   -1.69318693753584     -1.48620470642495     -0.94590856998185
