15

C	0.0	0.0	0.0
C	-0.55566	0.201188	-1.396936
Cl	1.793873	0.0	0.0
H	-0.30901	1.196275	-1.762629
H	-1.648733	0.066005	-1.328618
C	-0.492527	1.14067	0.88527
H	-0.149321	2.09334	0.474812
H	-1.585413	1.101987	0.901166
H	-0.095134	1.02287	1.894428
C	-0.385647	-1.282867	0.602954
N	-0.598135	-2.280304	1.184968
N	-0.01687	-0.749993	-2.40245
O	0.080538	-1.931733	-2.084509
O	0.270336	-0.284776	-3.506762
Cl	-3.638294	0.0	0.0
