13

C	-0.448743	-0.07323	-1.447713
C	0.0	0.0	0.0
F	-0.428706	-1.410928	-1.85726
H	1.09238	0.0	0.0
H	-1.481826	0.274828	-1.557752
H	-0.392037	-0.845183	0.574954
N	0.389987	0.685015	-2.338367
H	1.351423	0.583158	-2.010448
H	0.14117	1.660689	-2.230548
N	-0.427948	1.310002	0.543144
H	-0.988445	1.172884	1.373069
H	0.414655	1.789259	0.839377
H	3.055489	0.0	0.0
