13

C	-0.404597	0.113994	-1.449197
C	0.0	0.0	0.0
F	-0.229028	-1.154374	-2.064285
H	1.103149	0.0	0.0
H	-1.469788	0.340154	-1.575387
H	-0.39248	-0.931103	0.41632
N	0.38824	1.121426	-2.06063
H	1.371506	0.940246	-1.852823
H	0.240546	1.14878	-3.061935
N	-0.557481	1.149828	0.740025
H	-0.19456	1.970905	0.264274
H	-0.100957	1.152207	1.647052
H	3.168152	0.0	0.0
