13

C	-0.581694	0.074631	-1.393468
C	0.0	0.0	0.0
F	-0.220293	1.309913	-1.942185
H	1.098135	0.0	0.0
H	-0.145728	-0.695053	-2.037554
H	-0.33551	-0.950575	0.435908
N	-2.023726	-0.004827	-1.447144
H	-2.362176	0.431854	-0.594668
H	-2.297907	-0.97915	-1.430211
N	-0.584327	1.100208	0.79748
H	-0.172656	1.95076	0.425038
H	-0.204907	1.014274	1.734696
H	3.145919	0.0	0.0
