13

C	-0.37188	-0.117584	-1.453947
C	0.0	0.0	0.0
F	-1.734375	-0.421209	-1.601675
H	1.100693	0.0	0.0
H	-0.210446	0.846036	-1.943878
H	-0.336296	-0.910218	0.516637
N	0.382186	-1.132022	-2.156693
H	1.365696	-0.876375	-2.044204
H	0.276711	-1.998149	-1.637916
N	-0.511865	1.230228	0.621438
H	0.29215	1.720904	0.991497
H	-1.096726	1.003125	1.412138
H	3.043714	0.0	0.0
