13

C	-0.420265	-0.048693	-1.442405
C	0.0	0.0	0.0
F	-1.813438	-0.248982	-1.520435
H	1.093507	0.0	0.0
H	-0.219669	0.913705	-1.91761
H	-0.325756	-0.942816	0.471964
N	0.22787	-1.094321	-2.19524
H	1.198477	-0.80349	-2.294048
H	0.271013	-1.919696	-1.601376
N	-0.494342	1.19904	0.677664
H	-1.389493	1.020578	1.10841
H	0.168102	1.43858	1.406733
H	3.060108	0.0	0.0
