13

C	-0.336269	0.08271	-1.48322
C	0.0	0.0	0.0
F	-0.192623	-1.231287	-2.038011
H	1.095963	0.0	0.0
H	-1.387007	0.324285	-1.699993
H	-0.337095	0.923715	0.481008
N	0.531578	1.017794	-2.087155
H	0.479879	0.973574	-3.095014
H	1.487458	0.845189	-1.770219
N	-0.523508	-1.160979	0.709327
H	-1.491037	-1.316635	0.443013
H	-0.002089	-1.966024	0.383374
H	3.09769	0.0	0.0
