15

C	0.0	0.0	0.0
C	-0.488759	0.061601	-1.448812
F	1.350308	0.0	0.0
H	-1.584716	0.224898	-1.26742
N	-0.406891	1.232202	0.789383
O	-0.644196	2.253271	0.158375
O	-0.343438	1.13348	2.009586
C	-0.481297	-1.196423	0.69698
N	-0.594974	-2.205558	1.288994
N	-0.256315	-1.248959	-2.050636
H	0.59879	-1.262863	-2.590529
H	-1.032919	-1.486972	-2.650487
C	0.171285	1.125207	-2.204802
N	0.704651	1.890642	-2.921006
F	-2.497282	0.0	0.0
