15
Coordinates from ORCA-job run
  C   -0.76643682867544     -0.18893549900817      0.40371192683523
  C   0.67729969174229     -0.66101217263762      0.52802670809560
  F   -1.55764376177903     -1.08368751231106      1.12815311577106
  H   0.90124204549203     -0.73642505574564      1.59616703325499
  H   0.70920198157682     -1.67624880385138      0.11967740941035
  C   -0.92214390502549      1.13782654706092      1.03253467041398
  N   -1.01715613520592      2.20370140612975      1.51567522370165
  C   -1.29240449330454     -0.16191777894809     -1.01914309158563
  H   -1.14226151856634     -1.14399510803183     -1.47274952859129
  H   -0.78217911413359      0.59396393024007     -1.61698192642431
  H   -2.35989108474972      0.06260349892953     -1.00727608616799
  C   1.68725009890928      0.24240350257874     -0.17083867000552
  H   1.53795640819820      0.25671948848654     -1.25190463443051
  H   2.70134246881675     -0.11568373466083      0.01543570021445
  H   1.62582414670468      1.26868729176909      0.19851214950794
