15
Coordinates from ORCA-job run
  C   -0.78228381667665     -0.18562423082523      0.37512029352059
  C   0.65467259347573     -0.65898860260217      0.55864598674358
  F   -1.60258990203146     -1.07291607018452      1.07487359253223
  H   0.70103805413358     -1.67611001971556      0.15635907339112
  H   0.83631570430718     -0.72982157488617      1.63509360322825
  C   -0.95912912183220      1.14720051303347      0.98587536424424
  N   -1.06979066139408      2.21904110872193      1.45188723797455
  C   -1.25216092235729     -0.16786808827319     -1.06742306063916
  H   -0.71823742968228      0.58383523638572     -1.64946496316142
  H   -1.08565635780944     -1.15274130739558     -1.50879534082118
  H   -2.31897183430958      0.05770929827981     -1.09865759233647
  C   1.69322772331600      0.23950328440197     -0.10385547498332
  H   2.69824989103659     -0.12066684280208      0.12307466024361
  H   1.62008773448457      1.26722580848193      0.25930906649529
  H   1.58622834533932      0.25022148737969     -1.19004244643192
