16

C	0.0	0.0	0.0
C	-0.511672	-0.035052	-1.448597
Cl	1.760922	0.0	0.0
H	-0.247892	0.916909	-1.911254
H	-1.609088	-0.146982	-1.472602
C	-0.434821	1.271591	0.757095
H	-1.547978	1.307383	0.827523
H	-0.128723	1.173518	1.81056
H	-0.091769	2.208046	0.300398
N	-0.494747	-1.165733	0.786705
O	-1.804619	-1.493195	0.551005
O	0.331127	-2.018106	1.360648
N	0.174986	-1.071475	-2.196096
O	0.046981	-2.240754	-1.691925
O	0.278146	-0.86652	-3.471559
H	-1.728941	0.0	0.0
