16

C	0.0	0.0	0.0
C	-0.584093	0.040591	-1.393164
Cl	1.773844	0.0	0.0
H	-0.255078	-0.810464	-1.979775
H	-1.701051	0.05912	-1.191742
C	-0.490805	1.098665	0.904291
H	-0.118673	0.940434	1.914703
H	-0.136685	2.05494	0.524014
H	-1.589379	1.049623	0.869691
N	-0.393888	-1.366333	0.593375
O	-0.489443	-2.308527	-0.184827
O	-0.494646	-1.436952	1.810344
N	-0.154265	1.243972	-2.126181
O	0.601738	1.079432	-3.092783
O	-0.592229	2.341693	-1.771988
H	-3.054899	0.0	0.0
