16

C	0.0	0.0	0.0
C	-0.359482	0.033188	-1.48632
Cl	1.773768	0.0	0.0
H	-1.445348	-0.078502	-1.542815
H	0.193783	-0.733796	-2.013994
C	-0.314352	1.213906	0.866217
H	0.126172	1.03591	1.844673
H	0.135429	2.096291	0.432352
H	-1.385695	1.335699	0.949018
N	-0.638099	-1.220907	0.587251
O	-0.610493	-1.305268	1.83818
O	-0.676583	-2.213986	-0.176403
N	-0.021141	1.322305	-2.146839
O	-0.665744	2.325173	-1.832906
O	0.873624	1.317095	-2.994771
H	-2.387604	0.0	0.0
