16

C	0.0	0.0	0.0
C	-0.686711	0.028988	-1.329768
Cl	1.774079	0.0	0.0
H	-1.846229	0.033014	-0.947501
H	-0.471794	-0.854029	-1.920062
C	-0.471654	1.055926	0.970885
H	-0.176682	2.034572	0.600334
H	-0.057946	0.875594	1.960554
H	-1.567387	0.984318	0.990118
N	-0.351645	-1.386818	0.606624
O	-0.45867	-1.463482	1.818877
O	-0.432332	-2.336231	-0.165307
N	-0.383137	1.18331	-2.155177
O	-0.484396	2.334735	-1.66421
O	-0.125597	0.959605	-3.35334
H	-2.92041	0.0	0.0
