13

C	-0.522436	-0.065995	-1.436229
C	0.0	0.0	0.0
Cl	-0.063716	1.458251	-2.266365
H	1.092793	0.0	0.0
H	0.011582	-0.857609	-1.965754
H	-0.343767	0.921021	0.480756
C	-2.024017	-0.253331	-1.545578
H	-2.318198	-1.202639	-1.090891
H	-2.544968	0.557338	-1.030854
H	-2.336844	-0.252808	-2.591728
C	-0.482071	-1.145662	0.767371
N	-0.889552	-2.082443	1.3469
Br	3.539599	0.0	0.0
