13

C	-0.379598	0.008224	-1.473407
C	0.0	0.0	0.0
Cl	-2.166281	0.197119	-1.686622
H	1.095403	0.0	0.0
H	0.058328	0.905026	-1.914665
H	-0.344624	0.910532	0.496064
C	0.112108	-1.226235	-2.198104
H	1.19268	-1.299657	-2.042854
H	-0.366706	-2.123185	-1.800249
H	-0.098784	-1.160447	-3.267226
C	-0.520313	-1.162588	0.708513
N	-0.95654	-2.098353	1.267412
Br	3.513005	0.0	0.0
