17

C	-0.313171	0.055375	-1.506457
C	0.0	0.0	0.0
Cl	-2.07076	0.475889	-1.789887
H	1.093421	0.0	0.0
N	0.516204	1.022323	-2.145968
H	1.441616	1.025495	-1.713292
H	0.596716	0.839119	-3.138393
C	-0.168383	-1.301765	-2.071063
N	-0.013936	-2.355362	-2.571563
C	-0.576416	-1.18744	0.729039
H	-1.65347	-1.269289	0.583771
H	-0.082608	-2.093094	0.376548
H	-0.377176	-1.087484	1.795333
N	-0.437218	1.286118	0.627786
O	-1.436256	1.259389	1.349649
O	0.229943	2.287233	0.38302
Br	3.41742	0.0	0.0
