17

C	-0.512924	-0.04087	-1.444128
C	0.0	0.0	0.0
Cl	0.223179	-1.483102	-2.227204
H	1.090442	0.0	0.0
N	-1.951111	-0.209671	-1.512357
H	-2.224307	-0.310948	-2.48429
H	-2.366154	0.642092	-1.149636
C	-0.032642	1.115969	-2.22518
N	0.262615	2.04951	-2.875196
C	-0.487139	-1.153333	0.86248
H	0.000991	-1.076938	1.833126
H	-0.188391	-2.094304	0.403502
H	-1.571997	-1.141187	0.977937
N	-0.428238	1.270705	0.669076
O	0.027526	1.481152	1.784578
O	-1.232548	2.015335	0.094931
Br	3.415713	0.0	0.0
