17

C	-0.406707	-0.001136	-1.471883
C	0.0	0.0	0.0
Cl	-2.251498	0.434314	-1.577147
H	1.09506	0.0	0.0
N	0.389608	0.816386	-2.29027
H	0.093948	0.823244	-3.255978
H	0.488069	1.744876	-1.89721
C	-0.359255	-1.371038	-2.004663
N	-0.296051	-2.452896	-2.458843
C	-0.557082	-1.150331	0.797562
H	-0.1141	-2.080852	0.437216
H	-0.278718	-1.030307	1.84458
H	-1.647516	-1.213706	0.736054
N	-0.276424	1.296336	0.662611
O	-1.056783	1.319065	1.633939
O	-0.085349	2.32928	-0.031062
Br	2.929049	0.0	0.0
