14

C	0.0	0.0	0.0
C	-0.614218	-0.051377	-1.398957
Br	1.936718	0.0	0.0
H	-1.680119	-0.214574	-1.189487
H	-0.312486	-0.900634	0.528017
C	-0.40837	1.187615	0.747353
N	-0.633051	2.19074	1.316107
N	-0.093351	-1.200671	-2.105794
H	0.755761	-0.926235	-2.58828
H	-0.774536	-1.505877	-2.789099
N	-0.358409	1.201617	-2.115667
H	-0.786514	1.961624	-1.591875
H	-0.881975	1.146451	-2.984003
Cl	-3.684836	0.0	0.0
