14

C	0.0	0.0	0.0
C	-0.611989	0.181072	-1.39454
Br	1.950155	0.0	0.0
H	-1.635792	0.51276	-1.187429
H	-0.321828	-0.943266	0.441773
C	-0.371117	1.108942	0.879266
N	-0.585215	2.027856	1.577989
N	-0.594688	-1.12235	-2.067266
H	-0.944775	-0.967644	-3.00765
H	-1.30642	-1.691013	-1.609172
N	0.072247	1.216957	-2.127944
H	0.904141	0.837839	-2.567713
H	-0.541684	1.591479	-2.838629
Cl	-3.621855	0.0	0.0
