14

C	0.0	0.0	0.0
C	-0.519744	-0.158623	-1.450129
Br	1.959089	0.0	0.0
H	-0.087786	-1.108713	-1.809733
H	-0.301496	-0.857285	0.604229
C	-0.449045	1.239578	0.618656
N	-0.756935	2.234376	1.161737
N	-0.100305	1.006273	-2.212268
H	0.88468	0.964623	-2.436574
H	-0.639443	0.999503	-3.069594
N	-1.940607	-0.252192	-1.56223
H	-2.339529	-1.088065	-1.153921
H	-2.45503	0.518656	-1.142021
Cl	-4.712105	0.0	0.0
