14

C	0.0	0.0	0.0
C	-0.493631	0.129342	-1.469329
Br	1.958383	0.0	0.0
H	0.063273	0.979017	-1.89642
H	-0.335487	-0.950217	0.417394
C	-0.419212	1.131919	0.813573
N	-0.708155	2.085389	1.435933
N	-1.885876	0.402938	-1.625363
H	-2.132031	1.340317	-1.335361
H	-2.522721	-0.210811	-1.114536
N	-0.207726	-1.14344	-2.121974
H	0.771739	-1.209007	-2.367614
H	-0.761958	-1.153448	-2.968672
Cl	-4.60916	0.0	0.0
