16

C	0.0	0.0	0.0
C	-0.569954	-0.013379	-1.397727
Br	1.973522	0.0	0.0
H	-1.660271	-0.041646	-1.187622
H	-0.256978	-0.955978	0.45672
C	-0.526627	1.149095	0.8231
H	-0.241984	2.103389	0.380116
H	-1.623391	1.038691	0.796504
H	-0.170118	1.093216	1.855198
N	-0.208169	-1.255852	-2.078573
H	0.758258	-1.201306	-2.385577
H	-0.793197	-1.356289	-2.900212
N	-0.267532	1.233643	-2.094383
H	-0.885753	1.322094	-2.892073
H	0.688901	1.2069	-2.433697
H	-3.380595	0.0	0.0
