16

C	0.0	0.0	0.0
C	-0.566785	0.028961	-1.410878
Br	1.970541	0.0	0.0
H	-1.654711	0.096543	-1.207827
H	-0.267482	-0.956952	0.451491
C	-0.516822	1.140364	0.844158
H	-1.612826	1.031197	0.822855
H	-0.232354	2.096118	0.404804
H	-0.152846	1.076752	1.873233
N	-0.346303	-1.19544	-2.184612
H	-0.954645	-1.916358	-1.805041
H	0.615846	-1.502837	-2.059147
N	-0.133274	1.222871	-2.115231
H	-0.640154	1.238523	-2.993878
H	0.85372	1.125873	-2.343109
H	-3.320671	0.0	0.0
