16

C	0.0	0.0	0.0
C	-0.588708	-0.027065	-1.407163
Br	1.955248	0.0	0.0
H	-1.675168	0.033512	-1.196447
H	-0.275962	-0.931464	0.500807
C	-0.525997	1.170035	0.802701
H	-1.623787	1.074176	0.786678
H	-0.220637	2.120269	0.355776
H	-0.160494	1.141914	1.832222
N	-0.218849	-1.268878	-2.090514
H	-0.606339	-1.18565	-3.024496
H	-0.725625	-2.022424	-1.63384
N	-0.22097	1.074089	-2.276723
H	-0.71372	1.907859	-1.981006
H	0.777563	1.242905	-2.204754
H	-3.363874	0.0	0.0
