16

C	0.0	0.0	0.0
C	-0.503742	0.083995	-1.460876
Br	1.954758	0.0	0.0
H	0.332581	-0.144362	-2.129999
H	-0.249395	-0.998383	0.357981
C	-0.548009	1.049259	0.93886
H	-1.641399	0.9439	0.9241
H	-0.183766	0.882785	1.955887
H	-0.265072	2.04834	0.605797
N	-0.91287	1.463924	-1.765366
H	-1.061345	1.519176	-2.768389
H	-1.828509	1.58823	-1.335015
N	-1.503442	-0.961722	-1.632352
H	-2.309785	-0.728315	-1.015968
H	-1.859052	-0.891975	-2.583041
H	-3.546507	0.0	0.0
