15
Coordinates from ORCA-job run
  C   1.25372755550841      0.04938885386620      0.10518569667279
  C   -0.23553546560068      0.37089979141482      0.02779339271961
  F   1.53161769346908     -1.09535260940110     -0.62934091519847
  H   -0.38172971420456      1.27404582158400      0.63443655028443
  H   1.84669932201256      0.86060783736656     -0.32988634848007
  C   1.69698991298386     -0.16593197084920      1.49227545412828
  N   2.02700478900986     -0.31218958009212      2.60880485774820
  C   -1.07571139540573     -0.76270373449105      0.60954604653038
  H   -0.91279023714096     -1.68530792030955      0.04900051595678
  H   -2.13682338249594     -0.51200601211955      0.54945008227220
  H   -0.83340380804646     -0.95045408023708      1.65788097578046
  C   -0.61859658337731      0.67571943253452     -1.41871756481805
  H   -0.03300281648077      1.50569738293271     -1.82374041988859
  H   -0.45508798559998     -0.19919222687958     -2.05097041916464
  H   -1.67435788463137      0.94777901468043     -1.48171790454330
