15
Coordinates from ORCA-job run
  C   1.21834390453542      0.16368789950738      0.21602235211858
  C   -0.14766483338810     -0.21121468818583     -0.34544250676460
  F   2.11878095139055      0.38157638344953     -0.81631684050389
  H   -0.00690531793200     -1.13437488471430     -0.92019600823993
  H   1.15088310518485      1.09535725981601      0.78954171338234
  C   1.76159392311631     -0.89163443097201      1.08670695960928
  N   2.16787348873405     -1.74446603832252      1.78292501953171
  C   -0.63889784132430      0.89079777820379     -1.27945536050165
  H   0.06855451357407      1.07143062154573     -2.08918401723940
  H   -0.78172930641310      1.82709539032503     -0.73052696667436
  H   -1.59887388417613      0.61202140874302     -1.71972631046348
  C   -1.13233087348151     -0.46943014103200      0.79217759957405
  H   -1.25149362191104      0.42365096004531      1.41372544731323
  H   -0.81332480201339     -1.29328282113699      1.43400144794650
  H   -2.11380940589568     -0.72221469727214      0.38574747091161
