15
Coordinates from ORCA-job run
  C   1.25301180140754      0.03315484952715      0.10103366218305
  C   -0.23238152989818      0.37310383507610      0.03451466268567
  F   1.51447702247733     -1.10392918170295     -0.65148646606437
  H   -0.36570437647095      1.26907658684603      0.65461554237767
  H   1.85391449311198      0.84369756042571     -0.32430520860813
  C   1.70118789762374     -0.20793685973799      1.48229784611396
  N   2.05357685849871     -0.37025091142647      2.58978683366193
  C   -1.08336995904828     -0.75881921527269      0.60384183525339
  H   -0.83844246085392     -0.96438423021104      1.64836285354113
  H   -2.14186742818615     -0.49508011698830      0.55239654955318
  H   -0.93365055918661     -1.67509689973604      0.02929675608472
  C   -0.61801382927987      0.70282064418399     -1.40587044677706
  H   -0.46892926971522     -0.16540200606663     -2.05070287846019
  H   -1.67034409445104      0.98956969849062     -1.46030338683376
  H   -0.02346456602909      1.53047624659252     -1.80247815471118
