11

C	-0.429446	0.054279	-1.424648
C	0.0	0.0	0.0
Br	-2.365271	0.344825	-1.691724
H	1.093357	0.0	0.0
H	0.063764	0.834917	-1.998401
H	-0.400343	-0.881505	0.499242
H	-0.335602	0.905017	0.512069
N	-0.117959	-1.225076	-2.160127
O	-0.344482	-2.284623	-1.586957
O	0.322123	-1.1058	-3.301703
H	2.929075	0.0	0.0
