15
Coordinates from ORCA-job run
  C   -0.65238501626541      0.07344329246296      0.33085715475088
  C   0.11533539347412     -0.63875470871382     -0.77090174948098
  Cl  -2.45659579531697     -0.66011340221662      0.17869493088202
  H   -0.38993863442906     -0.44148739567750     -1.72043451963558
  H   0.03384606379107     -1.71597981301018     -0.60127648218627
  N   -0.70722138007080      1.46745930587264      0.12291083788043
  H   -1.14401211506902      1.67635820668686     -0.76490766439606
  H   -1.22510673224731      1.93902432493536      0.85410101998034
  N   -0.14355048294387     -0.22768963036792      1.61145665868756
  H   -0.66080208621462      0.24210889738091      2.34423109570507
  H   -0.17966056873188     -1.22383572130252      1.78185099449956
  C   1.57659822382507     -0.20410472398912     -0.82925334602686
  H   1.65561377697140      0.86683523622860     -1.01607667681432
  H   2.09406310810241     -0.73630355107326     -1.63131078929684
  H   2.08281624512489     -0.41796031721640      0.11205853545105
