15
Coordinates from ORCA-job run
  C   -0.49073608431214      0.34743419850061      0.31134365868969
  C   0.17058415485036     -0.40694814654112     -0.83608275635615
  Cl  0.04248988323443      2.11301380401958      0.21244474474147
  H   -0.19995235107383      0.00955063779737     -1.77862768220253
  H   -0.20633482861161     -1.43401724495393     -0.77053431410680
  N   -0.00417737732302     -0.12235897812524      1.58712964755403
  H   -0.46719288530253     -1.00410585409194      1.78258478600400
  H   -0.23917321840652      0.53418716257987      2.32160414405959
  N   -1.91167229175911      0.23294592631765      0.19795013272793
  H   -2.37246960547482      0.78081133236894      0.91540864806803
  H   -2.23489734327485      0.55401957132554     -0.70720090142053
  C   1.69164420855759     -0.40077463990381     -0.81222043780194
  H   2.08058139445125     -1.03745181932465     -1.61032073444939
  H   2.05737152605387     -0.77269512513529      0.14414076319440
  H   2.08493481839096      0.60538917516643     -0.95861969870180
