15
Coordinates from ORCA-job run
  C   -0.75303168066416      0.00548929136966      0.22963074870497
  C   0.13983962076945     -0.71197203760206     -0.77351174979002
  Cl  -2.45598505261403     -0.67534412482513     -0.00986519507975
  H   -0.33064056228970     -0.61030062487755     -1.75260197481118
  H   0.15715926919106     -1.77926500091333     -0.52816121446746
  N   -0.85967080430243      1.41283089965854     -0.08841177368122
  H   -0.06590103057597      1.88670412273906      0.32849672946226
  H   -1.70793069266571      1.80245468266716      0.30339846773658
  N   -0.28804988587130     -0.21190854005559      1.56167934208678
  H   -0.90683358993590      0.22456410283970      2.23459786198642
  H   -0.22152812501602     -1.20025962993442      1.77425834458420
  C   1.55431560966840     -0.14216014133748     -0.80581267220924
  H   2.02232938532635     -0.18384123223678      0.17848500153718
  H   1.54377427304898      0.89481581278924     -1.14668439576240
  H   2.17215326593098     -0.71080758028103     -1.50449752029713
