15
Coordinates from ORCA-job run
  C   -0.73391152209063     -0.05223152280112      0.28028272927866
  C   0.11176611188823     -0.62782912964938     -0.84744594473375
  Cl  -2.40302506332662     -0.83487998524566      0.13019820576696
  H   0.03642057217580     -1.71433418702426     -0.78312517742936
  H   -0.32634867038805     -0.32564856910068     -1.80470943441097
  N   -0.81385995786468      1.36902841150268      0.17334310450580
  H   -1.17046731077003      1.65307591225633     -0.73142339538336
  H   -1.41450190636942      1.75097175272002      0.89415574048018
  N   -0.23189071395039     -0.47522798143538      1.56953549637191
  H   -0.96434934553068     -0.43386083444302      2.26714302861526
  H   0.50668199368181      0.16464459170497      1.84066405024946
  C   1.57141669434624     -0.19384187995621     -0.76051147831893
  H   2.13248374309038     -0.59196163434441     -1.60900816719975
  H   2.03441357585482     -0.58078521455530      0.14917513654946
  H   1.66417179925322      0.89288027037141     -0.76727389434157
