15
Coordinates from ORCA-job run
  C   -0.77274115601527     -0.00243712753644      0.34343617226587
  C   0.08218887228627     -0.64564263014680     -0.74991017527325
  Cl  -2.46967001272362     -0.74082151828267      0.11563977814970
  H   -0.41542673600682     -0.47668200952276     -1.70856366353684
  H   0.08971654564827     -1.72949337657146     -0.59317242544633
  N   -0.97739763308231      1.41924009102287      0.26178643682195
  H   -1.37285485501941      1.67832073683418     -0.63251875095774
  H   -0.08965133108249      1.88761783912063      0.39701829757053
  N   -0.23569943132408     -0.26706832907491      1.62589335633716
  H   -0.82914278101792      0.14189558596151      2.33702074469063
  H   -0.13513456307934     -1.25964862789111      1.79192846997286
  C   1.50780303611588     -0.10445758887499     -0.78443647816834
  H   2.00654186368855     -0.24615474128368      0.17453751067295
  H   1.52330687136552      0.96132864352653     -1.02358428266126
  H   2.08716131024675     -0.61799694728091     -1.55507499043787
