16

C	0.0	0.0	0.0
C	-0.313096	-0.927432	-1.209489
Cl	1.89561	0.0	0.0
H	0.34661	-0.59533	-2.015364
N	-0.451254	1.324186	-0.305718
H	-0.036592	1.99558	0.329961
H	-1.464912	1.319371	-0.178564
N	-0.527807	-0.527916	1.182507
H	-0.177971	-1.440091	1.438324
H	-0.536643	0.114666	1.960079
N	-1.671064	-0.907427	-1.682269
H	-2.361337	-0.935087	-0.928058
H	-1.836533	-0.038634	-2.171763
C	0.076119	-2.303532	-0.854929
N	0.385719	-3.385752	-0.522165
Cl	-4.229545	0.0	0.0
