16

C	0.0	0.0	0.0
C	-0.2448	-0.039874	-1.535772
Cl	1.862377	0.0	0.0
H	0.462658	-0.797225	-1.892042
N	-0.497413	1.17091	0.549154
H	-0.275888	1.327119	1.519367
H	-0.390644	1.973074	-0.053744
N	-0.44377	-1.227072	0.585565
H	-0.132002	-1.270205	1.550622
H	-1.469985	-1.12619	0.591212
N	0.030749	1.287916	-2.101903
H	-0.468531	1.396835	-2.974532
H	1.023821	1.362344	-2.281733
C	-1.5253	-0.522362	-2.079649
N	-2.241799	-0.942473	-2.913792
Cl	-3.596828	0.0	0.0
