16

C	0.0	0.0	0.0
C	-0.463059	-0.15043	-1.473595
Cl	1.788906	0.0	0.0
H	-1.558602	-0.083422	-1.427806
N	-0.442173	1.287937	0.466619
H	-0.161148	1.413779	1.433719
H	-1.465128	1.261505	0.435877
N	-0.447002	-1.183698	0.704802
H	-1.46995	-1.114164	0.721558
H	-0.118752	-1.138572	1.664103
N	-0.106743	-1.404207	-2.117765
H	-0.509573	-2.141481	-1.549088
H	0.901145	-1.514285	-2.060108
C	0.029227	0.969841	-2.283157
N	0.423222	1.820216	-2.98969
Cl	-3.53509	0.0	0.0
