16

C	0.0	0.0	0.0
C	-0.331265	0.584114	-1.429866
Cl	1.786007	0.0	0.0
H	0.426955	1.339594	-1.650132
N	-0.480951	0.926966	0.967663
H	-0.703702	0.423733	1.816728
H	-1.311472	1.385881	0.606625
N	-0.470067	-1.328423	0.275911
H	-0.156476	-1.993012	-0.42208
H	-1.489939	-1.298193	0.286587
N	-1.613392	1.241623	-1.465673
H	-1.795257	1.631221	-2.380999
H	-2.402591	0.649631	-1.187409
C	-0.147589	-0.495583	-2.42606
N	-0.027127	-1.314746	-3.26061
Cl	-4.064478	0.0	0.0
