16

C	0.0	0.0	0.0
C	-0.332105	0.193783	-1.506666
Cl	1.878197	0.0	0.0
H	0.14357	1.142651	-1.792288
N	-0.481044	1.129893	0.710406
H	-0.516033	0.975468	1.708495
H	0.036463	1.972398	0.496803
N	-0.491247	-1.248803	0.46612
H	-1.510986	-1.202377	0.425339
H	-0.216144	-1.417267	1.424484
N	-1.731902	0.251845	-1.846404
H	-2.255764	0.806306	-1.173933
H	-2.162488	-0.664737	-1.801765
C	0.309075	-0.858079	-2.311164
N	0.788481	-1.685212	-2.990666
Cl	-4.297859	0.0	0.0
