18

C	0.0	0.0	0.0
C	-0.514385	0.027605	-1.433393
Cl	1.814201	0.0	0.0
H	-1.605743	-0.091299	-1.32095
H	-0.118137	-0.85106	-1.956955
C	-0.486252	1.200214	0.789422
H	-1.585159	1.176191	0.732502
H	-0.167919	1.123259	1.833354
H	-0.102465	2.137816	0.380887
C	-0.474512	-1.276947	0.669304
H	-1.57371	-1.233285	0.669858
H	-0.100245	-1.342168	1.695388
H	-0.134762	-2.156718	0.114383
C	-0.213154	1.293771	-2.225744
H	-0.775725	2.142206	-1.831192
H	-0.516619	1.16245	-3.268971
H	0.852129	1.541503	-2.211949
H	-3.41046	0.0	0.0
