16

C	0.0	0.0	0.0
C	-0.510459	-0.410352	-1.381621
Cl	1.803577	0.0	0.0
H	-0.037074	0.264271	-2.103115
H	-1.588521	-0.211397	-1.3719
C	-0.497255	1.384212	0.381334
H	-1.591161	1.344399	0.411516
H	-0.103273	1.683913	1.354835
H	-0.168658	2.103586	-0.373478
C	-0.377858	-0.985208	1.02014
N	-0.600834	-1.790881	1.845036
C	-0.258745	-1.865761	-1.745219
H	-0.55374	-2.045017	-2.781555
H	0.794315	-2.138097	-1.638116
H	-0.858255	-2.52239	-1.112594
Br	-3.913555	0.0	0.0
