16

C	0.0	0.0	0.0
C	-0.440232	-0.207136	-1.458884
Cl	1.803481	0.0	0.0
H	-0.285794	0.750666	-1.967731
H	0.248729	-0.923279	-1.916414
C	-0.557827	1.272056	0.613853
H	-0.222266	2.133578	0.032471
H	-1.651823	1.219074	0.589485
H	-0.228093	1.38455	1.64802
C	-0.368887	-1.166646	0.812622
N	-0.604731	-2.116251	1.461891
C	-1.872227	-0.699323	-1.614304
H	-1.965358	-1.730836	-1.270557
H	-2.623031	-0.123793	-1.071207
H	-2.14887	-0.671929	-2.671819
Br	-4.992419	0.0	0.0
