14
Coordinates from ORCA-job run
  C   0.58790110423038      0.22837005210263      0.40213417638586
  C   -0.54524700643447     -0.13254599821842     -0.58212691740440
  F   0.25248588336971      1.38119346611846      1.05742941440304
  H   -0.26195498161479     -1.01715128613261     -1.15745681096127
  C   0.74308177636845     -0.83672351977729      1.42418837445973
  N   0.95122129459864     -1.69220654801973      2.20277291415392
  N   1.76622067876040      0.49656381996152     -0.36293558595944
  H   2.14765717634912     -0.34893695252180     -0.77058151487263
  H   2.46846644972315      0.92274368553479      0.23168661177708
  C   -0.83650050142156      0.99523730065492     -1.45361401889004
  N   -1.08402017875751      1.87920272521887     -2.18513454250880
  N   -1.77831819737960     -0.52670015097047      0.20085087000366
  O   -2.48392080482517      0.38123789984176      0.61937265826275
  O   -1.92607269296674     -1.73228449379263      0.37441437115054
