14
Coordinates from ORCA-job run
  C   0.81830800263565      0.11998444138764      0.06256080352435
  C   -0.61883196497198      0.37250903964485     -0.44864393950328
  F   1.52326175629806     -0.27507150962972     -1.09057201716885
  H   -0.60030502433332      1.18954593788422     -1.17145124802304
  C   1.39415177210138      1.40960806363446      0.48594240772293
  N   1.84617140799228      2.44378393141110      0.80980591386361
  N   0.86679283251367     -0.79605077774294      1.11545044428721
  H   1.80167324338312     -0.92540858555821      1.47698754558595
  H   0.41823464253764     -1.67450356803535      0.89148328611324
  C   -1.55111875630837      0.64361022566055      0.63446674850032
  N   -2.31725823355024      0.88488545910125      1.49105393339062
  N   -1.08244683520305     -0.83973831583681     -1.23117668040612
  O   -1.35207015796598     -0.65481410590133     -2.40895741045249
  O   -1.14356268512890     -1.89934023601974     -0.61594978743440
