14
Coordinates from ORCA-job run
  C   0.79786867138898      0.30989833387659      0.09016978374103
  C   -0.49514412014047      0.12086311055430     -0.72729526644128
  F   1.42054840438948      1.39535132562261     -0.48875743528909
  H   -0.18622020078933     -0.14081633162708     -1.74380370984313
  C   0.49559742940616      0.68109063771314      1.49266098848328
  N   0.29832698128729      0.94898789165757      2.61968147375697
  N   1.66726940765597     -0.80991510766244     -0.08311983864350
  H   2.58888609132907     -0.56910674563957      0.26533329857157
  H   1.31662959876188     -1.61027129336919      0.42841095053934
  C   -1.31142344166731      1.32722642136933     -0.73033135932549
  N   -1.95235837791571      2.31116940698893     -0.72225511873380
  N   -1.34368181913593     -1.03973944060948     -0.24216165781210
  O   -2.39526636055546     -1.20680744146591     -0.83989180460586
  O   -0.90403226401456     -1.71893076740881      0.68035969560203
