14
Coordinates from ORCA-job run
  C   0.86592927817460      0.16527716828713      0.07789717099818
  C   -0.57819644694987      0.39691489885906     -0.47134010545948
  F   1.63710268434665      0.10377420886946     -1.07461790685294
  H   -0.61995804122522      1.33926073367884     -1.01983077535863
  C   1.24281849600731      1.37591507407565      0.82997121336475
  N   1.51072134494906      2.35035812583067      1.42777810623283
  N   1.07833235002245     -0.97777773859073      0.86493736063940
  H   0.53220056460870     -1.77698283355818      0.57524592278642
  H   1.03759363582705     -0.81862924476602      1.85926360230985
  C   -1.55007882086493      0.35162035098516      0.60868572759015
  N   -2.30733319454608      0.32309101629149      1.50616893828399
  N   -0.88222776192804     -0.68193694994876     -1.48438467931532
  O   -0.93166676986263     -1.83202566488768     -1.05731977412961
  O   -1.03423731855900     -0.31785914512611     -2.64145480108962
