14
Coordinates from ORCA-job run
  C   0.75569375107076      0.29301439682067      0.19532095939571
  C   -0.49423364519894      0.18815219407430     -0.70479475915489
  F   1.44413818584497      1.40122810253574     -0.32208009736614
  H   -0.15427649804972      0.06460036552613     -1.73566962296442
  C   0.41370634315622      0.61682485466438      1.58953401683342
  N   0.18709073650615      0.89519461176535      2.70745968727083
  N   1.47646386501892     -0.90879511718523      0.14530814757219
  H   2.26046031303309     -0.92296582369081      0.78359992188056
  H   1.76577000749071     -1.15427456831081     -0.79303206463492
  C   -1.35854542799730      1.35147907178040     -0.58354435116507
  N   -2.04935781138895      2.29784388896042     -0.50606214505464
  N   -1.24648798478199     -1.06935008034415     -0.34771660227847
  O   -1.10754533409012     -2.01073642737985     -1.11902346234868
  O   -1.89387650061383     -1.04121546921657      0.69070037201448
