14
Coordinates from ORCA-job run
  C   0.81339973305108      0.01518094210050      0.16516144978277
  C   -0.49952153295651      0.42430607455608     -0.54137139760522
  F   1.59728867382682     -0.53326612698769     -0.86748093873979
  H   -0.27776175152395      1.18964102325051     -1.28661792383047
  C   1.50104826320231      1.24062067347310      0.61196513935036
  N   2.03647480218754      2.22515135066415      0.96234962232213
  N   0.60281560675137     -0.83839537320122      1.25062232895384
  H   0.07170129100746     -1.66276628295947      1.00256181581311
  H   1.45883927624296     -1.06756798384831      1.73674482671174
  C   -1.51509599478663      0.87554407360059      0.39714969462160
  N   -2.34770523820490      1.26185097589732      1.12959148122954
  N   -1.02268805528341     -0.75884981852676     -1.33073697593375
  O   -1.11714587717764     -0.60519451637409     -2.53976429068674
  O   -1.30264919633651     -1.76625501164465     -0.68917483198912
