14
Coordinates from ORCA-job run
  C   0.81100464204434      0.28997167145219      0.01680305574140
  C   -0.57809457323417      0.19628420989315     -0.64376674260074
  F   1.38568028658256      1.41335902551070     -0.53904498255936
  H   -0.40542726987448      0.03098488268674     -1.71142816106307
  C   0.69672711078291      0.53701675996606      1.47342917922245
  N   0.64368045829106      0.70392151693651      2.63538603959850
  N   1.62075837329244     -0.82350174808239     -0.36363425456231
  H   2.58619904305939     -0.62664886995903     -0.12299198294590
  H   1.32055538083434     -1.65992794110378      0.12158452129646
  C   -1.36109264771192      1.40577297494086     -0.42944389489341
  N   -1.97803886436343      2.38926249902609     -0.25289379635584
  N   -1.38581581356440     -0.99635366882236     -0.16703169105935
  O   -2.50023798373438     -1.10322842486221     -0.65460945331683
  O   -0.85689814240417     -1.75691288758248      0.63764216349801
