14
Coordinates from ORCA-job run
  C   0.59950942813551      0.06724870646818      0.43119526020598
  C   -0.56640448295779     -0.23218328378878     -0.53921016392331
  F   0.23520320627732      1.21775885351246      1.13430995452792
  H   -0.44525509014492     -1.23781718781462     -0.94642103429337
  C   0.75736489130044     -1.01506555220119      1.41934446416375
  N   0.93616201532541     -1.85898959052902      2.21558683006632
  N   1.78952893765652      0.19952948628488     -0.30830541506059
  H   1.76017537822182      0.99869448835594     -0.93103926988904
  H   2.60452753413008      0.24837042111577      0.28923381818431
  C   -0.60698250517826      0.76554355041646     -1.59849739170994
  N   -0.55945969256323      1.55684287745867     -2.46485803705899
  N   -1.86579478913860     -0.23040882074062      0.23769900911776
  O   -2.56016356394187      0.77473943346390      0.18608415262901
  O   -2.07841126712240     -1.25526338200209      0.87587782304015
