14
Coordinates from ORCA-job run
  C   0.87063877721984      0.14064052402929      0.06928797885894
  C   -0.56743244219772      0.39332105384382     -0.48643545755959
  F   1.63510076589220      0.00214171720722     -1.08083850973002
  H   -0.58262067169781      1.31277949882718     -1.07391796407339
  C   1.28932223670334      1.37126261004084      0.76482248379094
  N   1.59431222732513      2.36157998947277      1.31719272922213
  N   1.05067156419449     -0.97199765216078      0.90694434407302
  H   1.00973749556288     -0.76691257915239      1.89289721918374
  H   0.48190271968359     -1.76696214240657      0.65071961033213
  C   -1.53685632762977      0.42390394247590      0.59633703407248
  N   -2.29439134090166      0.46134109178633      1.49316470106441
  N   -0.90757475460887     -0.71729554393672     -1.45231223420597
  O   -1.05595493289982     -0.39803765984234     -2.62287795598010
  O   -0.98685531664582     -1.84676485018453     -0.97698397904872
