14
Coordinates from ORCA-job run
  C   0.62277341090826      0.04659946470272      0.39914459609244
  C   -0.59146491574022     -0.20268925857324     -0.52555249488070
  F   0.28060853348384      1.13160300398961      1.20861172827897
  H   -0.47496154339989     -1.17060797037359     -1.01670539749707
  C   0.85385056333781     -1.10444617007126      1.29047709392713
  N   1.08163412133856     -1.99125003682877      2.02525352254845
  N   1.76610211034756      0.26013294841291     -0.39343979524780
  H   1.68870321234997      1.10600276669232     -0.94651850555216
  H   2.61335965581409      0.27753259563736      0.15931969644669
  C   -0.71048227988129      0.87350857679698     -1.49846646767855
  N   -0.72817264708508      1.73397723740429     -2.29738017530641
  N   -1.84393675497496     -0.29105967351686      0.32010840680481
  O   -2.55266520579594      0.70247646261361      0.39550042367342
  O   -2.00634826070269     -1.37077994688606      0.87764736839082
