14
Coordinates from ORCA-job run
  C   0.80787981932368      0.34565932368358      0.13717733500598
  C   -0.47607593614153      0.22103328247805     -0.71796875928436
  F   1.37087932282380      1.55651692002712     -0.22082480203766
  H   -0.16081432063567      0.01451316805324     -1.74423210053030
  C   0.45450377259979      0.45544444750970      1.57253099344855
  N   0.20127064074318      0.47553386717368      2.72005856924225
  N   1.70992752962536     -0.69449890440508     -0.18266986628493
  H   1.24634313299307     -1.57486333194427     -0.36563680916921
  H   2.43172615092722     -0.80663235341229      0.51676987966749
  C   -1.28341316934660      1.42756442101591     -0.64756150247445
  N   -1.92890004869406      2.40813732244601     -0.63072729635771
  N   -1.27816208569535     -0.97924019616313     -0.25913654194998
  O   -2.25819990302934     -0.78156658266461      0.44471315833395
  O   -0.83796490549354     -2.06760138379787     -0.62349225760958
