16

C	-0.38763	-0.014521	-1.472692
C	0.0	0.0	0.0
F	0.098351	1.075635	-2.102539
H	1.097188	0.0	0.0
C	0.040515	-1.233708	-2.168298
N	0.359542	-2.21123	-2.736179
N	-1.921697	0.050566	-1.61129
O	-2.410906	1.140386	-1.866165
O	-2.519312	-0.999459	-1.39871
C	-0.444426	-1.233136	0.788945
H	-0.060062	-2.134942	0.309622
H	-1.527947	-1.306752	0.884429
H	0.00396	-1.16963	1.781284
C	-0.491098	1.23151	0.60838
N	-0.898455	2.195962	1.141554
Cl	3.20582	0.0	0.0
