16

C	-0.393463	-0.025401	-1.460638
C	0.0	0.0	0.0
F	-0.119385	1.159852	-2.072083
H	1.097561	0.0	0.0
C	0.257062	-1.123826	-2.185772
N	0.768824	-2.001537	-2.774429
N	-1.919801	-0.198821	-1.663126
O	-2.643133	0.315395	-0.819085
O	-2.287009	-0.77096	-2.685009
C	-0.43805	-1.263087	0.744695
H	-0.050262	-2.147634	0.234151
H	0.009114	-1.243209	1.739265
H	-1.523099	-1.333478	0.84212
C	-0.454513	1.22041	0.656533
N	-0.771371	2.193568	1.232587
Cl	3.207133	0.0	0.0
