16

C	-0.386474	-0.001799	-1.471999
C	0.0	0.0	0.0
F	0.103804	1.090785	-2.094635
H	1.10757	0.0	0.0
C	0.038527	-1.217295	-2.176412
N	0.353783	-2.181187	-2.768794
N	-1.920416	0.067994	-1.614294
O	-2.407333	1.161306	-1.85942
O	-2.52098	-0.982932	-1.41387
C	-0.44452	-1.239474	0.777987
H	-1.52862	-1.315139	0.870873
H	0.001933	-1.184156	1.771824
H	-0.058689	-2.137299	0.291988
C	-0.490246	1.225888	0.619351
N	-0.913878	2.181915	1.155346
Cl	3.194366	0.0	0.0
