16

C	-0.393832	0.126691	-1.455116
C	0.0	0.0	0.0
F	-0.148447	1.377388	-1.933934
H	1.108598	0.0	0.0
C	0.278064	-0.873341	-2.294797
N	0.78752	-1.692149	-2.96468
N	-1.918762	-0.061514	-1.665709
O	-2.641664	0.460633	-0.827284
O	-2.285795	-0.659072	-2.673071
C	-0.444286	-1.331377	0.60845
H	-1.53095	-1.404534	0.696552
H	-0.000277	-1.418263	1.600705
H	-0.062051	-2.15963	0.007975
C	-0.450889	1.145657	0.78001
N	-0.774735	2.046149	1.461596
Cl	3.19645	0.0	0.0
