16

C	-0.431533	0.064653	-1.462162
C	0.0	0.0	0.0
F	0.021038	-1.027981	-2.119687
H	1.107636	0.0	0.0
C	-1.890552	0.15112	-1.640909
N	-3.058327	0.154673	-1.770867
N	0.171059	1.297062	-2.155144
O	1.033334	1.102438	-2.992295
O	-0.299496	2.366303	-1.786153
C	-0.459854	-1.321095	0.626692
H	-1.549711	-1.414226	0.638229
H	-0.089792	-1.359966	1.651825
H	-0.020216	-2.153852	0.078474
C	-0.521108	1.126972	0.762017
N	-0.970068	1.969275	1.447505
Cl	3.217591	0.0	0.0
