14

C	0.0	0.0	0.0
C	-0.613883	0.02372	-1.369231
Br	1.953512	0.0	0.0
H	-0.356235	-0.846394	-1.971973
H	-0.285658	0.91534	0.51312
H	-1.725582	0.07245	-1.089369
C	-0.500618	-1.212597	0.764224
H	-1.594569	-1.108489	0.73774
H	-0.174692	-2.136729	0.276839
H	-0.12169	-1.208548	1.788813
N	-0.227918	1.210211	-2.15199
O	-0.006253	1.059555	-3.3575
O	-0.184615	2.297456	-1.575408
F	-2.901332	0.0	0.0
