17

C	0.0	0.0	0.0
C	-0.400295	-0.13287	-1.594667
Cl	1.779905	0.0	0.0
H	0.316348	-0.888887	-1.960859
N	-0.243917	1.180006	0.802715
H	-1.224828	1.433732	0.868079
H	0.285783	1.94309	0.40605
N	-0.277926	-1.323091	0.755623
O	-0.255778	-2.317917	0.047507
O	-0.44823	-1.281122	1.961825
C	-0.101466	1.205235	-2.279383
H	0.965793	1.427001	-2.194071
H	-0.356005	1.151249	-3.337877
H	-0.67696	2.016921	-1.825411
C	-1.723068	-0.809991	-2.159596
N	-2.380995	-1.57654	-2.669627
Br	-3.144943	0.0	0.0
