17

C	0.0	0.0	0.0
C	-0.500587	0.031774	-1.451485
Cl	1.804603	0.0	0.0
H	-0.246103	1.043088	-1.798491
N	-0.600177	1.000074	0.756939
H	-0.367784	0.961082	1.738337
H	-0.512989	1.922909	0.361735
N	-0.324759	-1.333351	0.687075
O	-0.465076	-2.313849	-0.029326
O	-0.357849	-1.309927	1.910687
C	-2.015022	-0.172753	-1.571124
H	-2.322976	0.014257	-2.601806
H	-2.580801	0.486363	-0.913817
H	-2.300528	-1.189958	-1.313501
C	0.235946	-0.882485	-2.328486
N	0.786973	-1.567513	-3.107147
Br	-5.211344	0.0	0.0
