16

C	-0.283492	0.048359	-1.509049
C	0.0	0.0	0.0
Cl	-2.039286	0.395125	-1.847514
H	1.098974	0.0	0.0
N	0.515614	1.092437	-2.072252
H	0.522895	1.044071	-3.083559
H	1.469751	1.004029	-1.714337
C	-0.051059	-1.280005	-2.111566
N	0.149874	-2.313678	-2.634521
C	-0.544912	-1.224962	0.721475
H	-0.275581	-1.165844	1.777184
H	-1.632999	-1.286441	0.637128
H	-0.095555	-2.130322	0.31051
C	-0.462619	1.234597	0.624908
N	-0.857314	2.182183	1.195936
Cl	3.266569	0.0	0.0
