16

C	-0.270381	0.040683	-1.520533
C	0.0	0.0	0.0
Cl	-2.028244	0.347963	-1.843687
H	1.098423	0.0	0.0
N	0.501107	1.043245	-2.216123
H	0.260822	1.950533	-1.826569
H	1.482845	0.868559	-1.984277
C	0.028735	-1.275158	-2.105457
N	0.244046	-2.330942	-2.572558
C	-0.559671	-1.203631	0.745171
H	-1.649557	-1.246284	0.67445
H	-0.273832	-1.142687	1.79678
H	-0.133601	-2.1205	0.334451
C	-0.441437	1.259367	0.588965
N	-0.810433	2.266125	1.069959
Cl	3.259399	0.0	0.0
