16

C	-0.30933	-0.053337	-1.519427
C	0.0	0.0	0.0
Cl	-0.058312	1.588745	-2.214656
H	1.097033	0.0	0.0
N	0.562347	-0.958567	-2.230345
H	1.518942	-0.773281	-1.917644
H	0.329036	-1.914198	-1.985012
C	-1.710858	-0.424026	-1.765516
N	-2.826931	-0.761537	-1.911674
C	-0.442067	-1.280652	0.714843
H	-0.077782	-1.250653	1.74305
H	-1.5292	-1.394012	0.725253
H	0.01156	-2.152081	0.238888
C	-0.567345	1.161155	0.667491
N	-1.05994	2.053529	1.252318
Cl	3.283965	0.0	0.0
