16

C	-0.293413	-0.050916	-1.514739
C	0.0	0.0	0.0
Cl	-0.054505	1.643398	-2.220605
H	1.097443	0.0	0.0
N	0.577755	-1.012805	-2.077211
H	0.534499	-1.016269	-3.087312
H	1.533734	-0.837782	-1.758792
C	-1.694341	-0.378676	-1.812355
N	-2.811714	-0.664022	-2.040077
C	-0.470053	-1.276557	0.703814
H	-1.560213	-1.356804	0.711671
H	-0.107989	-1.263034	1.733434
H	-0.04352	-2.142176	0.198231
C	-0.555805	1.174691	0.653168
N	-1.03014	2.069397	1.248444
Cl	3.289118	0.0	0.0
