16

C	-0.292913	-0.049076	-1.515336
C	0.0	0.0	0.0
Cl	-0.05802	1.647	-2.218691
H	1.097465	0.0	0.0
N	0.580831	-1.008128	-2.0793
H	1.537468	-0.829525	-1.763527
H	0.534745	-1.013618	-3.089642
C	-1.69271	-0.380903	-1.81371
N	-2.806566	-0.678138	-2.03987
C	-0.468415	-1.278726	0.700906
H	-0.04222	-2.142897	0.192327
H	-0.104739	-1.268289	1.730026
H	-1.558663	-1.359628	0.710293
C	-0.557132	1.172587	0.654875
N	-1.030451	2.0686	1.249097
Cl	3.290507	0.0	0.0
