15
Coordinates from ORCA-job run
  C   0.78620885663338     -0.01379888160167      0.19370561479229
  C   -0.62369811977867     -0.52826507581477      0.51833203828397
  Br  1.92368383422452     -0.19398969846209      1.71132693070426
  H   -0.57081201353202     -1.61510515974646      0.61005655089097
  N   0.69754306192461      1.44023864981459     -0.29469672935393
  O   0.89399288240175      2.32541886054926      0.51787327851095
  O   0.36873646875758      1.53895996323037     -1.46920132811425
  N   1.43238491645562     -0.82151602422206     -0.93966758583631
  O   2.38632061556629     -0.28981128437731     -1.48156194315072
  O   0.97250668781660     -1.93652812932309     -1.13893363420868
  N   -1.60827640570141     -0.24759643311417     -0.62464849740104
  O   -2.14289116883634      0.85298105083754     -0.61432831218274
  O   -1.77468906209517     -1.15707826201546     -1.42478389213767
  C   -1.14676332807738      0.09119446466269      1.72705992820316
  N   -1.59324722575937      0.55389595958262      2.71046758099974
