15
Coordinates from ORCA-job run
  C   0.78747078085643     -0.06244753610123      0.21026957183602
  C   -0.65415583500539     -0.51898362066821      0.45003414296420
  Br  1.83625155801381     -0.45339274164689      1.75700905167647
  H   -0.65623046164668     -1.61041313347143      0.50520848075965
  N   0.87685986814990      1.44944777608142     -0.08796408178970
  O   0.41884357601756      2.15791016451728      0.79014979423066
  O   1.38374135881632      1.77523498222520     -1.14605952980734
  N   1.37450506367372     -0.79669091386597     -0.99707972869550
  O   0.55621435875209     -1.35583803138423     -1.72038528343273
  O   2.58223305918880     -0.73884232164213     -1.14204571689488
  N   -1.59130050873064     -0.18302341031664     -0.70806517615370
  O   -1.38527021770111      0.86738034958539     -1.29721073235495
  O   -2.48485364050666     -0.99098559613689     -0.89765733519246
  C   -1.24943936128263      0.03736677215923      1.65841827956010
  N   -1.79486959859552      0.42227726066510      2.62537826329415
