18

C	-0.358702	0.031016	-1.486339
C	0.0	0.0	0.0
F	-1.725943	0.386886	-1.628162
H	1.091204	0.0	0.0
N	0.42553	1.106676	-2.027432
H	1.374466	1.026786	-1.646812
H	0.47867	1.015018	-3.035552
C	-0.195615	-1.286067	-2.215472
H	-0.408675	-1.120752	-3.276836
H	-0.881109	-2.046216	-1.839333
H	0.830337	-1.637018	-2.093302
N	-0.525885	-1.255746	0.617953
O	0.140261	-2.28115	0.458382
O	-1.600664	-1.212574	1.217846
N	-0.454414	1.135192	0.738378
H	0.299616	1.810149	0.750416
H	-1.266453	1.545237	0.29793
H	2.768747	0.0	0.0
