15

C	-0.57167	0.003161	-1.410882
C	0.0	0.0	0.0
Cl	0.116039	1.408973	-2.27502
H	1.089163	0.0	0.0
H	-1.651288	0.194399	-1.355727
N	-0.226895	-1.212097	-2.11601
H	-0.171885	-1.040965	-3.109864
H	-0.9388	-1.905512	-1.927878
N	-0.478416	-1.276911	0.661982
O	-1.574453	-1.72794	0.299613
O	0.196977	-1.737468	1.568939
N	-0.465063	1.076472	0.831632
H	0.310699	1.687353	1.044035
H	-1.207132	1.604684	0.394504
Br	3.547261	0.0	0.0
