15

C	-0.454301	-0.180175	-1.446256
C	0.0	0.0	0.0
Cl	-0.173336	1.391612	-2.35241
H	1.090901	0.0	0.0
H	-1.533906	-0.327022	-1.510317
N	0.24289	-1.291118	-1.974761
H	1.244841	-1.185993	-1.827068
H	0.049777	-1.428393	-2.956865
N	-0.453582	-1.292476	0.683302
O	-1.669987	-1.38169	0.892274
O	0.374701	-2.13731	0.992076
N	-0.528103	1.139653	0.658947
H	-1.495178	0.991292	0.915789
H	0.028188	1.351891	1.475474
Br	3.520258	0.0	0.0
