15

C	-0.480877	0.055007	-1.447237
C	0.0	0.0	0.0
Cl	-0.059386	-1.518838	-2.278006
H	1.089873	0.0	0.0
H	0.152089	0.790901	-1.944473
N	-1.850425	0.424485	-1.578794
H	-2.432346	-0.284972	-1.150977
H	-2.098253	0.535238	-2.552737
N	-0.528786	-1.243039	0.672131
O	0.235795	-1.919613	1.344464
O	-1.738843	-1.465035	0.544174
N	-0.454993	1.124709	0.767839
H	-1.210074	1.603782	0.297292
H	0.323791	1.741791	0.950685
Br	3.505664	0.0	0.0
