15

C	-0.322481	0.058158	-1.477082
C	0.0	0.0	0.0
Cl	-2.097508	0.195958	-1.786881
H	1.103849	0.0	0.0
H	-0.03847	-0.888659	-1.935437
N	0.342086	1.230828	-1.999759
H	0.299885	1.221481	-3.01144
H	1.323377	1.172524	-1.721326
N	-0.421105	-1.310719	0.600927
O	-0.41931	-2.304971	-0.124777
O	-0.665369	-1.319148	1.801889
N	-0.576168	1.087921	0.738607
H	0.03995	1.316583	1.507797
H	-0.603048	1.885066	0.11197
Br	3.441011	0.0	0.0
