13

C	-0.683271	-0.056354	-1.511692
C	0.274861	0.031269	-0.338438
Br	-2.471719	-0.577441	-0.978548
H	1.275237	0.188375	-0.74799
H	-0.356395	-0.780117	-2.256757
H	0.294254	-0.942851	0.166191
N	-0.703883	1.273313	-2.230157
O	0.320591	1.480789	-2.876893
O	-1.650792	2.03432	-2.117972
N	-0.045606	1.162455	0.508968
H	-0.834422	0.917288	1.097454
H	0.757714	1.241303	1.135861
Cl	2.627464	0.10847	2.073836
