13

C	-0.296616	-0.196234	-1.305548
C	-0.205384	-0.280679	0.208484
Br	-0.21116	-1.962246	-2.128697
H	0.765179	-0.734922	0.423764
H	0.509337	0.413548	-1.721141
H	-0.993716	-0.935872	0.585444
N	-1.599806	0.40821	-1.752715
O	-2.583348	0.259721	-1.026138
O	-1.599026	1.006405	-2.824319
N	-0.25861	1.009882	0.864577
H	-1.13127	1.47488	0.649942
H	0.516925	1.569008	0.510678
Cl	2.379927	1.799864	-1.015236
