13

C	-0.727907	-0.104225	-1.393116
C	0.336562	0.043142	-0.330465
Br	-0.933068	1.495394	-2.477571
H	1.306239	0.240541	-0.808944
H	-1.711181	-0.337981	-0.990381
H	0.101754	0.91633	0.29103
N	-0.396544	-1.251657	-2.307031
O	-1.263573	-2.113565	-2.43308
O	0.697634	-1.244227	-2.852757
N	0.409927	-1.224982	0.376609
H	-0.307495	-1.238053	1.093876
H	1.295478	-1.193951	0.890796
Cl	2.873567	0.021066	2.058081
