13

C	-0.081114	0.000786	-1.301683
C	0.183599	0.345313	0.141861
Br	-1.81713	-0.820242	-1.57642
H	1.213936	0.736406	0.165914
H	0.688519	-0.701616	-1.642741
H	0.218879	-0.612591	0.663068
N	0.006213	1.203339	-2.208547
O	-0.11053	1.013421	-3.413001
O	0.234601	2.298898	-1.690456
N	-0.829416	1.207174	0.742047
H	-0.6539	2.158908	0.449139
H	-0.732781	1.169086	1.748247
Cl	2.74369	-1.604931	-0.933918
