13

C	-0.425642	-0.056061	-1.362252
C	-0.149378	-0.380516	0.08554
Br	-0.209416	-1.608514	-2.508642
H	0.882308	-0.743654	0.137127
H	0.239708	0.724028	-1.728563
H	-0.842631	-1.159994	0.41003
N	-1.839019	0.42907	-1.51809
O	-2.733436	-0.252549	-1.028516
O	-1.997855	1.480153	-2.132607
N	-0.38361	0.853331	0.825353
H	0.446932	1.427098	0.671972
H	-0.435002	0.641377	1.814098
Cl	2.514288	1.583355	-0.509931
