14
Coordinates from ORCA-job run
  C   -0.49949181781975     -0.10173255990156      0.33632682107564
  C   0.98963347150790     -0.24213392530245      0.06313740991956
  Br  -1.33601674246521     -1.78608579420667      0.66883687133202
  H   1.44547731023883     -0.75818087686466      0.91285415858435
  H   1.39550928051782      0.76977847706850      0.02313375416138
  N   -1.12651634873605      0.62131330033175     -0.85604890900564
  O   -1.97529766923331      0.06701663747479     -1.52623565923200
  O   -0.65584132296334      1.74162005652740     -1.01630428410518
  N   -0.78356242654251      0.80100227944120      1.52642409655315
  O   0.14020606016655      0.96755538988014      2.31380492697434
  O   -1.91404337911697      1.26019967430952      1.60113767488607
  N   1.14519479137737     -0.88404274772608     -1.22860629608254
  H   1.98865654516035     -0.56664588166618     -1.68386269624503
  H   1.18609224790830     -1.88966402936571     -1.13759786881609
