14
Coordinates from ORCA-job run
  C   -0.70343353114426     -0.18546742823433      0.20852570474457
  C   0.61337994005454     -0.91066925749523     -0.03096446641262
  Br  -2.05362346668215     -1.37453492541483      0.86191461597785
  H   0.44506999144823     -1.64113569153802     -0.83025682434511
  H   0.82323119949181     -1.45594463272903      0.89050229842493
  N   -1.22863885873522      0.49055991168693     -1.05124763328286
  O   -2.31748576637808      1.03630578402951     -0.97417753580553
  O   -0.50115078995267      0.43418398642573     -2.03906908077692
  N   -0.43240963843233      0.92578598996856      1.22432092643107
  O   -0.11618074153604      0.53311752951629      2.33553552344624
  O   -0.48133269996842      2.07676435778828      0.82293317082946
  N   1.65901696208965      0.05885585498875     -0.26952012882022
  H   2.54264930764583     -0.25468711572051      0.10304229934644
  H   1.75290809209912      0.26586563672790     -1.25253886975729
