14
Coordinates from ORCA-job run
  C   -0.65553799252515     -0.15803989734603      0.34404220938721
  C   0.60519402851411     -0.91498175954602     -0.04948302873497
  Br  -1.97006991333189     -1.32499322917163      1.10169911474693
  H   0.26807872493721     -1.75737377972519     -0.65544656096413
  H   1.05053112081264     -1.31119907678085      0.87000835653851
  N   -1.19854419197337      0.50964145869764     -0.92068280327700
  O   -1.12644927551828      1.72558141890160     -0.98814807802436
  O   -1.58710657820114     -0.26615531684248     -1.77867151468462
  N   -0.37248611348936      0.95744003717412      1.34177368204889
  O   0.80827150317153      1.14644206744098      1.62159884760381
  O   -1.33436648785108      1.57326399578763      1.77179237330728
  N   1.45337801273366     -0.05491621480965     -0.84391160400699
  H   1.95173932443330     -0.57881709524231     -1.54753177551451
  H   2.10536783828783      0.45510739146218     -0.26703921842604
