14
Coordinates from ORCA-job run
  C   -0.60556728916916     -0.06078527697382      0.11246861668930
  C   0.67345130366131     -0.45762803941190     -0.61370186885299
  Br  -1.49876103402947     -1.56551955061172      0.87283298029734
  H   1.02968862156309      0.43296774806167     -1.13350023362244
  H   0.41609300608177     -1.20631644300955     -1.36596331257846
  N   -1.58806232984778      0.64693971917805     -0.80662539892009
  O   -2.40342182766718      1.38577980411012     -0.27346411456383
  O   -1.49000482769431      0.38676536063553     -1.99988637700550
  N   -0.24001235076618      0.97980320688411      1.16994174092576
  O   0.30959834046819      1.96197318703440      0.68343497328768
  O   -0.49347461255438      0.77439737225145      2.34093555211916
  N   1.63403049256083     -0.88923749993801      0.38294417222900
  H   2.54559697974370     -0.49455801062520      0.20774481100332
  H   1.71084552764959     -1.89458157758515      0.42283845899175
