11

C	-0.401704	0.022271	-1.448146
C	0.0	0.0	0.0
Br	-2.336992	0.289317	-1.740384
H	1.103243	0.0	0.0
H	0.089773	0.838944	-1.975863
H	-0.165583	-0.92346	-1.935498
H	-0.353803	0.904672	0.501944
N	-0.519242	-1.199042	0.683668
H	-0.587768	-0.985622	1.670618
H	0.222826	-1.893713	0.622085
H	3.022141	0.0	0.0
