17

C	0.0	0.0	0.0
C	-0.34196	-0.208763	-1.487201
F	1.389687	0.0	0.0
H	0.297171	0.476559	-2.037409
N	-0.295795	1.486189	0.338818
O	-0.680656	1.73855	1.473617
O	-0.043489	2.310263	-0.531536
N	-0.570236	-0.848628	0.923224
H	-1.272914	-1.456299	0.524459
H	-0.941199	-0.346138	1.71864
N	-1.676563	-0.122934	-1.919477
H	-2.403266	-0.344028	-1.232873
H	-1.881388	0.792986	-2.288826
N	0.212548	-1.582814	-1.844192
O	1.180767	-1.626209	-2.599928
O	-0.376196	-2.556528	-1.382766
Br	-4.29437	0.0	0.0
