12
Coordinates from ORCA-job run
  C   0.71156347019129     -0.65571911492907      0.37523870500066
  C   -0.46358674941125     -0.18698231836284     -0.08285207734525
  H   0.84060304816334     -1.67798895737767      0.70418998348657
  N   1.92030218244274      0.13001548341460      0.42349187499795
  O   2.96885009739986     -0.51445003125627      0.46832682910985
  O   1.82879296481238      1.35609647242650      0.44999939971102
  N   -1.63263292640813     -0.88466550694353     -0.21284901056367
  H   -1.67408707611414     -1.76183616041363      0.28324182646072
  H   -2.46384522103820     -0.32098692917289     -0.10545125778730
  N   -0.61613072017831      1.17788607022945     -0.62719655854399
  O   -1.43756938950948      1.88116481973668     -0.04340744026161
  O   0.01874031964992      1.45746617264867     -1.63373227426495
