12
Coordinates from ORCA-job run
  C   0.71079930745644     -0.65818382922189      0.37316911895267
  C   -0.47380155549830     -0.17522658216458     -0.04397223774090
  H   0.83331402696713     -1.67477317330141      0.72157371567882
  N   1.91297122923217      0.13569150444482      0.45345265545163
  O   2.01142424131069      1.13411101390045     -0.25758955313747
  O   2.77493471394674     -0.28642699399656      1.22512007109004
  N   -1.66407306303027     -0.84638479602642     -0.09453508706632
  H   -2.28627982680896     -0.52984645820673     -0.82432462497549
  H   -1.60257709282137     -1.85046362368812     -0.02338827578898
  N   -0.66599327775652      1.24138286874810     -0.41694336689260
  O   -1.07108675763185      1.42687184240369     -1.56236173200869
  O   -0.48063194536590      2.08324822710864      0.44979931643729
