12
Coordinates from ORCA-job run
  C   0.98222450029261     -0.00669423658320     -0.19220534697054
  C   -0.36844855981237      0.13563846122472     -0.18031996600713
  H   1.61296546632763      0.45456018840511     -0.93351097438742
  N   1.66401888013048     -0.77181823458924      0.80305296944092
  O   2.89073256893313     -0.82671344180516      0.71263193518348
  O   1.00065708474097     -1.32819653519685      1.69180725308716
  N   -1.30040411704004     -0.41195613603074      0.61266056999378
  H   -0.96504292456699     -0.87754734110587      1.44211645831713
  H   -2.22094360760328     -0.00383855079274      0.58645686113150
  N   -0.94712180218186      0.99599694293908     -1.25222468988274
  O   -2.14234116232041      1.26476206359082     -1.14130227205398
  O   -0.20629632689985      1.37680681994407     -2.15016279785214
