12
Coordinates from ORCA-job run
  C   0.63651058523605     -0.57109658376665      0.58880074333590
  C   -0.45404035218909     -0.19869518299022     -0.10589963892092
  H   0.69262139134728     -1.51043167981921      1.12203150118786
  N   1.85027219774391      0.20695594806996      0.64606778035144
  O   2.86774346094524     -0.42107524368632      0.94085572404326
  O   1.78774358135424      1.41716944382299      0.43729704466117
  N   -1.61586657912420     -0.90447641916861     -0.25332082109874
  H   -2.43667893457554     -0.32904297138034     -0.37591006613777
  H   -1.74941124715847     -1.66622891840125      0.39389547882093
  N   -0.49264868120228      1.03194431032829     -0.92212119958268
  O   -1.37204945523807      1.83299443125345     -0.61314074793450
  O   0.28780403286093      1.11198286573791     -1.85955579872594
