12
Coordinates from ORCA-job run
  C   0.70280681583733     -0.58984657470675      0.48579430212274
  C   -0.46733080991327     -0.19093429762199     -0.04536302958171
  H   0.82680259138851     -1.55352436164295      0.96096597430570
  N   1.88404096234389      0.23797263671563      0.52781244496297
  O   1.99931998753817      1.14660259083188     -0.29263064921949
  O   2.71333504208801     -0.06720895892798      1.38553886600112
  N   -1.64006309601292     -0.89354043819479     -0.07281337296449
  H   -1.56359107423344     -1.87969327156552      0.12372316295420
  H   -2.22928892716902     -0.68348129993424     -0.86566209386909
  N   -0.66686632985719      1.16457513985023     -0.59811501821821
  O   -1.01378298408144      1.19933029290171     -1.77661895186472
  O   -0.54438217792863      2.10974854229478      0.16736836537097
