12
Coordinates from ORCA-job run
  C   0.60132355271561     -0.36997502025167      0.76116112911745
  C   -0.45689984671890     -0.21285433450188     -0.05498984369045
  H   0.61202635814511     -1.09504323791758      1.56366098102382
  N   1.83626842059588      0.36179667510241      0.61734053891531
  O   2.82490169354133     -0.16277490634507      1.13114528171057
  O   1.81726207992610      1.44641359929819      0.03826947666903
  N   -1.63533401172815     -0.90520474270105     -0.01589741755041
  H   -2.43350031375506     -0.38147804594988     -0.34539113522251
  H   -1.81214013362763     -1.41804789446975      0.83425777663510
  N   -0.43380424967752      0.69856580331913     -1.21725268613740
  O   0.37792314672342      0.46520393822045     -2.10097821246288
  O   -1.29802669614020      1.57239816619669     -1.21032588900762
