12
Coordinates from ORCA-job run
  C   0.59085975818931     -0.39120678312337      0.75865500755188
  C   -0.47798854711527     -0.16707852136916     -0.02751854696848
  H   0.57128356452734     -1.09564077936392      1.57919478321712
  N   1.84022239590209      0.31863323498291      0.62914950986996
  O   2.12320154887066      0.82527483997221     -0.45506699498533
  O   2.55094861726363      0.32689819650323      1.63478311941624
  N   -1.70747945750180     -0.75687232513954      0.06912743143925
  H   -2.19887707394618     -0.83834229686623     -0.80927989841302
  H   -1.75054582790399     -1.58938940503355      0.63650124119020
  N   -0.48622864086846      0.87181421978624     -1.07783819398692
  O   -0.34286067737715      2.03309629953636     -0.72413166089465
  O   -0.71353566004018      0.46081332011481     -2.21357579743625
