12
Coordinates from ORCA-job run
  C   0.75893609218417      0.40586558516877      0.51021290263659
  C   -0.37109988918281      0.11958354050918     -0.18666344543712
  H   1.06812082209857      1.41249322910944      0.73654051362566
  N   1.63343819674523     -0.62345508520240      0.97577255581858
  O   1.34218627752476     -1.80764427444765      0.74698180415568
  O   2.64072090328954     -0.25906304476512      1.58286898258035
  N   -0.93549926178931     -1.05644072621901     -0.49628639396019
  H   -1.65212449317110     -1.04741023040922     -1.20410990897675
  H   -0.36974931571518     -1.87739122994190     -0.34363393415352
  N   -1.16970917911326      1.29018961840825     -0.65144577834922
  O   -2.09346139901979      1.04000000194163     -1.42421834824433
  O   -0.85375875385082      2.40227261584803     -0.24701894969573
