12
Coordinates from ORCA-job run
  C   0.57984547148356     -0.32904531139327      0.79575895248045
  C   -0.47315445442302     -0.18053913800148     -0.02874647944489
  H   0.55562856722590     -0.98418893367137      1.65602113878481
  N   1.81494387625300      0.40287490757953      0.65317087641741
  O   2.11466343878215      0.84871755975187     -0.45299293747592
  O   2.49762254773271      0.49264746727003      1.67423017686335
  N   -1.69081320942459     -0.79416504086405      0.07361919395371
  H   -2.15385178668654     -0.94347981560288     -0.81140826694581
  H   -1.72699694557597     -1.59310355791332      0.68797014041434
  N   -0.47924251913359      0.79304487625520     -1.13966542740749
  O   -0.67014442285230      0.30977117740705     -2.25344868111913
  O   -0.36950056338129      1.97646580918269     -0.85350868652083
