12
Coordinates from ORCA-job run
  C   0.95464928761631      0.30040824422983      0.01065664692337
  C   -0.38285878741053      0.12969952816458     -0.15277285481812
  H   1.47067381839061      1.19951325401654     -0.28165903854384
  N   1.77230315453198     -0.71027857640837      0.60292708243309
  O   1.24454733605269     -1.77169521045603      0.96948525081849
  O   2.97117214068007     -0.45362708064268      0.71670451282378
  N   -1.16617335493925     -0.93188385248060      0.08581817504606
  H   -0.75540149302064     -1.67905615638381      0.62458357952352
  H   -2.16081775172706     -0.77313737939263      0.09793223753334
  N   -1.12367188452142      1.27921200866648     -0.74739590207462
  O   -0.47382458231965      2.22001252085361     -1.18654721412556
  O   -2.35059788333312      1.19183269983307     -0.74073247553951
