12
Coordinates from ORCA-job run
  C   0.96747091512701      0.06840071999690     -0.24643425909402
  C   -0.37831688744214      0.18104481016794     -0.10325653745659
  H   1.52028328402107      0.58438027567537     -1.01345071072104
  N   1.74591494897304     -0.76347388744848      0.61559834900767
  O   1.17463583588418     -1.39102011488698      1.52074187343642
  O   2.95675876772364     -0.80550176239995      0.39623628303879
  N   -1.20698786590489     -0.32301026254950      0.82262365692497
  H   -2.19235191138639     -0.29968385890758      0.61448269715510
  H   -0.82384181223088     -1.03715698266348      1.42311230906361
  N   -1.07356256640921      1.04995039171284     -1.09633190502619
  O   -0.38709893751659      1.72404164217035     -1.85438059896463
  O   -2.30290377083886      1.01202902913258     -1.07894115736408
