12
Coordinates from ORCA-job run
  C   0.90362447526861      0.33799886497880      0.26587260155690
  C   -0.37872666877206      0.15281146287399     -0.14153069561543
  H   1.32763951343430      1.31250760184750      0.44105652179599
  N   1.77910441641974     -0.76393820202776      0.51075727680554
  O   2.91659055959835     -0.49057909551412      0.89470042393236
  O   1.35738871323260     -1.91708390224106      0.33176599837106
  N   -1.04154811456955     -0.96550239065026     -0.46933198410397
  H   -2.04486059761769     -0.90058135682089     -0.53171854469407
  H   -0.59466879006802     -1.83703577816606     -0.22841914802472
  N   -1.19659862305638      1.38760919138975     -0.31587928600879
  O   -0.62857101587885      2.47073353702075     -0.24995868127537
  O   -2.39937386799106      1.21506006730937     -0.50731448273951
