12
Coordinates from ORCA-job run
  C   0.88203373534165      0.40874617660987      0.23766723546569
  C   -0.40427019736794      0.12215330131280     -0.09096952731852
  H   1.26966413671110      1.41326203841384      0.26527427553269
  N   1.82090644659192     -0.61996811217505      0.55619017548523
  O   2.96587912894668     -0.25739579298748      0.82731099100259
  O   1.44472536587581     -1.80218616114432      0.54053025574061
  N   -1.06537604586971     -1.04395217853015     -0.11002068690784
  H   -0.50383829884607     -1.87792791066876     -0.02968647744471
  H   -1.94968476229330     -1.06128143674568     -0.59203182040951
  N   -1.26665660334341      1.28701931192895     -0.44222168432578
  O   -0.81989301555097      2.41259602110709     -0.25890277886621
  O   -2.37448989019576      1.01793474287889     -0.90413995795423
