12
Coordinates from ORCA-job run
  C   0.65217183267941     -0.54722171039867      0.59397741261781
  C   -0.46477718785993     -0.19143330382391     -0.06665885495020
  H   0.72331467935393     -1.46574504987434      1.16063587321599
  N   1.83751083783757      0.27274051458406      0.65843233351752
  O   2.03180776538167      1.10334169306828     -0.22726355100376
  O   2.59068553751050      0.04005778934565      1.60466182251122
  N   -1.64059287319420     -0.88645249470429     -0.12880189607472
  H   -1.59485358173524     -1.85108173403641      0.16153821419677
  H   -2.16012111133259     -0.74430483248257     -0.98304133566919
  N   -0.60014460968995      1.10998634438059     -0.75313267934702
  O   -0.84939236222554      1.04050428763422     -1.95458920948652
  O   -0.52760892672562      2.11960849630740     -0.06775812952790
