12
Coordinates from ORCA-job run
  C   0.76866435886138      0.41368724002740      0.49041740599111
  C   -0.33953812142924      0.12018837123619     -0.23826472363126
  H   1.04602990155899      1.42016136888891      0.75524112078662
  N   1.63692895531579     -0.61028112860181      0.97869093044785
  O   1.37647366028957     -1.79455993935745      0.71554055252174
  O   2.60466954195158     -0.24200794379375      1.64495622671244
  N   -0.79566255690657     -1.04964379525478     -0.70691410063557
  H   -1.74419980999997     -1.07094387593017     -1.04492661878462
  H   -0.35542611601129     -1.88161422916728     -0.34493712956641
  N   -1.18218577388562      1.28059662488732     -0.64759945668285
  O   -0.75083534120632      2.40847494776576     -0.44256747450497
  O   -2.26591869853830      1.00594235929964     -1.16063673265409
