12
Coordinates from ORCA-job run
  C   0.71300060659617     -0.59643464436155      0.46080558030675
  C   -0.43391295709371     -0.22408110912832     -0.13642765633329
  H   0.88607915648860     -1.60705167576962      0.80524768774651
  N   1.83832579416643      0.28602623410684      0.65249097067184
  O   1.64138950798666      1.49955356192381      0.67846489215700
  O   2.92547177376988     -0.27036664059717      0.81127276893726
  N   -1.51740341809004     -1.01486449084325     -0.40121570706077
  H   -1.54691298912511     -1.89480027794872      0.09051393683417
  H   -2.39895277103968     -0.52221105993731     -0.40419990390213
  N   -0.63123850516506      1.12613826288126     -0.70302990900368
  O   -1.58492740958759      1.74928908889779     -0.24186036534828
  O   0.10908121109345      1.46980275077624     -1.61306229500537
