12
Coordinates from ORCA-job run
  C   0.73135217378754      0.38017269106385      0.56759877847731
  C   -0.34514835155618      0.13339180814666     -0.22289561923264
  H   0.93391891887766      1.34712704512490      0.99661592050265
  N   1.66877080045853     -0.64576934009007      0.89891641946491
  O   1.49583149358928     -1.78695023306464      0.44365323605570
  O   2.60340621724830     -0.32326945473986      1.63269746664172
  N   -0.71013484497630     -0.97288165213075     -0.88635554002167
  H   -0.21637704897005     -1.81994969599397     -0.64988953561536
  H   -1.65423739569075     -1.00651850617282     -1.23587613994658
  N   -1.26596178922848      1.28315339203948     -0.45526459673662
  O   -0.91691593421649      2.39054487222337     -0.06534743747945
  O   -2.32450423932306      1.01994907359385     -1.02385295210996
