12
Coordinates from ORCA-job run
  C   0.65939824689273     -0.54964700530482      0.58360915010708
  C   -0.44357978719047     -0.21793041619902     -0.11216102279583
  H   0.75619087285727     -1.49424789347381      1.10153521531037
  N   1.83505311810683      0.28286915757747      0.66229717183522
  O   1.71772453355049      1.49220540150072      0.47294193082269
  O   2.87883721565350     -0.30224925825705      0.95356141400976
  N   -1.56947519738328     -0.97570524217093     -0.27871865446044
  H   -2.41587005396283     -0.43794900273038     -0.39833900057349
  H   -1.67067164829480     -1.75336334632764      0.35529738835084
  N   -0.53643421110345      1.02305051075953     -0.90840859020382
  O   0.24755690452875      1.15820257267943     -1.83653292868802
  O   -1.45772999365475      1.77376452194650     -0.59508207371435
