12
Coordinates from ORCA-job run
  C   0.64792663406184     -0.54918982922120      0.59602766723705
  C   -0.46545277850416     -0.18762265145327     -0.06759737663275
  H   0.71221290128136     -1.46559771948594      1.16687018978875
  N   1.83647266253803      0.26529951114216      0.66413225707407
  O   2.02410893663214      1.11335537621585     -0.20642815445977
  O   2.59860190098151      0.01223639508923      1.59790724769506
  N   -1.64577464019059     -0.87472265822409     -0.12700552473548
  H   -2.16332754897164     -0.73958254437943     -0.98354428822070
  H   -1.60826865438289     -1.83610230723950      0.17518145786000
  N   -0.58924881492861      1.10889949119237     -0.76410236750733
  O   -0.54826932588884      2.12124920458899     -0.08019157803289
  O   -0.79998127262815      1.03177773177483     -1.97224953006600
