12
Coordinates from ORCA-job run
  C   0.95814327868210      0.27837763382061      0.01157263459624
  C   -0.36860258405822      0.08194672327758     -0.16305543852773
  H   1.52917444921785      1.07494399754140     -0.43644755745187
  N   1.73374854547000     -0.58329121251492      0.86522798882923
  O   1.17809384413042     -1.55454193237096      1.38911781881150
  O   2.92100657286592     -0.28369881128250      1.00459137329877
  N   -1.23962373296718     -0.76696811263809      0.43557581880868
  H   -0.96705840287651     -1.73524809305975      0.49793516050017
  H   -2.20008820388959     -0.60158934279634      0.16570849075972
  N   -1.02164508999484      1.08804562725747     -1.06643505354907
  O   -2.21518943465433      1.29900509815510     -0.85836493789329
  O   -0.30695924192560      1.70301842461043     -1.84642629818234
