12
Coordinates from ORCA-job run
  C   0.95477332087545      0.29381159208767      0.06047181680839
  C   -0.37310813720577      0.13117865654678     -0.17409109778038
  H   1.54284064698932      1.06335632107041     -0.41079957432804
  N   1.67126728039127     -0.57002704979865      0.94446144702583
  O   2.87492679305014     -0.34775006862778      1.07787522055979
  O   1.05857710685977     -1.48332012653786      1.51889743630718
  N   -1.26126081357093     -0.71512391303968      0.36664983886156
  H   -2.14532615334495     -0.81351612467994     -0.10606305296392
  H   -0.88209542830892     -1.47185228209670      0.91511342213618
  N   -0.98723784401469      1.07514641204570     -1.15158687919338
  O   -0.31172663630071      2.01683373023905     -1.54790039274411
  O   -2.14163013541997      0.82226285279099     -1.49302818468910
