17

C	-0.571461	-0.040448	-1.41835
C	0.0	0.0	0.0
Br	0.375342	1.331788	-2.528158
H	1.105193	0.0	0.0
N	-0.231098	-1.348654	-2.129675
O	-0.965403	-1.654841	-3.066459
O	0.74662	-1.970392	-1.744327
N	-1.974093	0.079685	-1.442351
H	-2.322851	0.017763	-2.390386
H	-2.257142	0.95411	-1.016803
C	-0.48848	-1.165921	0.870035
H	-0.077437	-2.100752	0.492041
H	-1.578136	-1.219199	0.897229
H	-0.105098	-1.022035	1.881921
C	-0.452412	1.261221	0.588085
N	-0.893247	2.244129	1.05825
Br	3.469731	0.0	0.0
