17

C	-0.455618	0.234703	-1.444246
C	0.0	0.0	0.0
Br	0.518539	-0.92312	-2.64972
H	1.104971	0.0	0.0
N	-1.985409	-0.157624	-1.551529
O	-2.403274	-0.840269	-2.479194
O	-2.684415	0.371376	-0.68959
N	-0.285651	1.571684	-1.849688
H	-0.560643	1.730129	-2.809412
H	-0.719827	2.224005	-1.208531
C	-0.437769	-1.344988	0.582223
H	-0.129754	-2.150429	-0.086841
H	-1.515497	-1.392881	0.749476
H	0.078856	-1.490559	1.533124
C	-0.423077	1.108225	0.853747
N	-0.751733	2.01367	1.526508
Br	3.451556	0.0	0.0
