17

C	-0.304136	-0.004179	-1.504368
C	0.0	0.0	0.0
Br	0.467207	-1.592315	-2.302244
H	1.097333	0.0	0.0
N	-1.829344	-0.027178	-1.777792
O	-2.500469	0.625186	-0.979214
O	-2.261439	-0.599919	-2.76596
N	0.195197	1.140408	-2.215661
H	1.212564	1.096387	-2.167077
H	-0.093208	1.975762	-1.711261
C	-0.538127	-1.169963	0.816212
H	-1.630396	-1.166425	0.847915
H	-0.155933	-1.092173	1.836072
H	-0.183442	-2.111178	0.396932
C	-0.37995	1.278627	0.600843
N	-0.638946	2.304916	1.110243
Br	3.418825	0.0	0.0
