16
Coordinates from ORCA-job run
  C   -0.83353854519821      0.23601022509206     -0.21987965630902
  C   0.42834258973841     -0.17340612566689      0.04852374474540
  N   -1.18039806323124      1.44772258731563     -0.85587630378036
  H   -1.74794152738687      2.05242681536372     -0.27485370464622
  H   -0.38313026999110      1.94830692596200     -1.21707908379654
  N   -1.95310870119978     -0.58668488377232      0.01079098198491
  H   -2.80015759176834     -0.20681219990573     -0.38140063490602
  H   -2.06563082012644     -0.88853691025093      0.96527003001710
  C   1.62043276557395      0.73836760664212     -0.04622938454888
  H   2.29973394042843      0.56030171481419      0.79418880927463
  H   1.34829229525863      1.79655432352907     -0.01595749478781
  H   2.20147201868168      0.56620555336932     -0.96111539416472
  C   0.70505995869267     -1.59226189957345      0.45961225507279
  H   1.60934308018163     -1.96417273286447     -0.03486491616209
  H   0.87763756928889     -1.68587499752152      1.53986912944567
  H   -0.12540869894230     -2.24714600253279      0.18900162256115
