16
Coordinates from ORCA-job run
  C   -0.81208585565626      0.22049247599996     -0.30092470154812
  C   0.42393252926320     -0.16645191534867      0.09239336948148
  N   -1.11292495842785      1.41390336165795     -0.99285029514410
  H   -1.73768877978286      2.02295496004847     -0.47886609077185
  H   -0.29142385854072      1.91721818407739     -1.29052430883237
  N   -1.93916036910371     -0.61136355982511     -0.15582415170404
  H   -2.13717134964761     -0.89550673462031      0.79010396163985
  H   -2.74968732227132     -0.25124050482727     -0.63435650672000
  C   1.60999727911424      0.75803418094975      0.08744874441919
  H   1.32509127100898      1.81298009606525      0.06298165238170
  H   2.20781605040553      0.61037247116809      0.99317968575656
  H   2.27734188041291      0.56930789866131     -0.76302790310468
  C   0.67680523862530     -1.57299941208097      0.55790027725711
  H   1.62815906270799     -1.94252316472338      0.15942868009472
  H   0.74667225146221     -1.64272507271260      1.65147303004095
  H   -0.11767306957004     -2.24345326448985      0.22446455675360
