16
Coordinates from ORCA-job run
  C   -0.77670665645233      0.31802738613589     -0.30744910788422
  C   0.43080711748320     -0.15423447831829      0.08118852437083
  N   -0.99291331615448      1.68099930175476     -0.58869971615860
  H   -1.89156570747602      1.85070206744944     -1.01214566747091
  H   -0.79707716784663      2.30653412162492      0.17628281319394
  N   -1.91098768015292     -0.47383691782012     -0.58993361192701
  H   -1.71181843310604     -1.46235561306706     -0.59651860076036
  H   -2.69556099217660     -0.27289552310936      0.01801742871041
  C   1.64142831593566      0.73635496001853      0.07605881252690
  H   1.48041972532819      1.61166111481810     -0.55621059745703
  H   1.90560233479310      1.08533579678173      1.08303304181929
  H   2.51362606810697      0.19414681282630     -0.30589818870155
  C   0.64742674049164     -1.57216836730722      0.53228040908977
  H   1.12422966184455     -2.18487256362851     -0.24326874372312
  H   -0.27983170893627     -2.06885477812669      0.82938071881389
  H   1.31292169831798     -1.59454332003239      1.40188248555776
