16
Coordinates from ORCA-job run
  C   -0.82228045944287      0.20963498172249     -0.28078899414581
  C   0.42613941727916     -0.16534686124315      0.08389789954417
  N   -1.14159826059801      1.35674717255245     -1.03947990357140
  H   -1.73711191689635      2.00741297230842     -0.54195244264036
  H   -0.32864734317053      1.82851382864079     -1.40475954434920
  N   -1.94992289678515     -0.59583145201452     -0.02941044191423
  H   -2.10740357964507     -0.81097742645342      0.94206015301416
  H   -2.77790441166544     -0.25792817186217     -0.49411409988718
  C   1.61978174981419      0.74117933482441     -0.03596592912336
  H   2.25557713198061      0.64802978893705      0.85098347023098
  H   1.34452035158163      1.79568085505912     -0.11982277154349
  H   2.24728539800528      0.48711530139526     -0.89962920340967
  C   0.68488117340908     -1.53944672277162      0.63497419856172
  H   1.61262608225617     -1.94942024434914      0.22046009393974
  H   -0.13054142540924     -2.22100432222804      0.38514645896401
  H   0.80459898928653     -1.53435903451792      1.72640105632991
