16
Coordinates from ORCA-job run
  C   -0.84210424627414      0.33435895767107     -0.17816904823291
  C   0.39322587543227     -0.15543145157636      0.08362859306356
  N   -1.14927007186798      1.68674945037929     -0.40685209783885
  H   -1.67128328646292      1.81583843661718     -1.26339511458840
  H   -0.35082177489801      2.29935280185037     -0.36234871016112
  N   -2.01796619410295     -0.43031998614080     -0.26397554444615
  H   -2.75331881200277     -0.06170222830809      0.32429593943303
  H   -1.87626253733826     -1.41561368820408     -0.10958172697645
  C   1.64195589518145      0.66124129338335     -0.11575122360694
  H   2.43892516090668      0.03543676785755     -0.53126408931674
  H   1.49715220037590      1.48912079372036     -0.81464379994017
  H   2.02578443707960      1.07764450608304      0.82424750534072
  C   0.61175090170246     -1.55496171874411      0.59357193388770
  H   1.41169590491656     -1.56247855584756      1.34147041165309
  H   0.91593868333684     -2.24865058902900     -0.20053655976464
  H   -0.27540213598473     -1.96958478971220      1.07930353149427
