16
Coordinates from ORCA-job run
  C   -0.84440403669854      0.27912037056910     -0.09041420514095
  C   0.42121337871800     -0.14817047596030      0.12852150459710
  N   -1.95555356254405     -0.57791887169294      0.02689563877369
  H   -1.93478100872033     -1.38286006198238     -0.57835779860648
  H   -2.83264413093209     -0.08305612131057     -0.00962123102450
  N   -1.22273763097676      1.61631360209140     -0.33846647657967
  H   -0.46688645624298      2.27207467914055     -0.21482462148963
  H   -1.66255458497259      1.74407850413180     -1.24153766601701
  C   1.62997560768326      0.70515879417683     -0.14000003103730
  H   2.05634414596388      1.11995516018110      0.78220592522744
  H   2.41895389795089      0.10627782869785     -0.60738609610045
  H   1.41948275400742      1.53747396001888     -0.81642536253442
  C   0.68533986936377     -1.52659309668108      0.66593647360955
  H   -0.21052184852719     -1.94437698224247      1.12929461608467
  H   1.47929044087106     -1.49758783206233      1.42049777391990
  H   1.02148316505624     -2.21988945707544     -0.11631844368195
