16
Coordinates from ORCA-job run
  C   -0.79376882480713      0.32751133560723     -0.24693161247557
  C   0.43334847960816     -0.16269954091820      0.04631391701787
  N   -1.96788294450132     -0.44339311449661     -0.38900889939884
  H   -1.79490857390735     -1.43665708986680     -0.37470697319896
  H   -2.68757306023702     -0.19686512043662      0.27930333330834
  N   -1.00330104301946      1.68392375641794     -0.56284328298048
  H   -1.93367722818114      1.86187246926956     -0.90691764466861
  H   -0.72122435369829      2.33259321893497      0.15447175792960
  C   1.65939990313797      0.69260691785925     -0.10735405050374
  H   2.47856497328028      0.11266677316063     -0.54685795341479
  H   2.02504088310256      1.07125477600016      0.85626499879666
  H   1.46108863798028      1.54796929585017     -0.75611870678668
  C   0.65561648022140     -1.56745824858773      0.53479976264743
  H   -0.25089336303170     -2.02147058330718      0.94332443298735
  H   1.03530950253443     -2.22648695794303     -0.25626534381717
  H   1.40386053151833     -1.57536788754372      1.33452626455757
