16
Coordinates from ORCA-job run
  C   -0.81900219339527      0.34813444462915     -0.07932639588900
  C   0.42987871739725     -0.13721641819575      0.11264522387344
  N   -1.05322121776389      1.68446191847336     -0.45736029370285
  H   -0.62122747941460      1.95885392425990     -1.32512005940282
  H   -2.02812693975888      1.93538986997089     -0.40985843890535
  N   -2.01620408254607     -0.35354168449795      0.17951160610391
  H   -1.86773334493232     -1.23345466152886      0.64888730308725
  H   -2.58784846428919     -0.48161955670027     -0.64638756023001
  C   1.62181417010829      0.77790993937774      0.08244085871815
  H   2.33015950162483      0.51002057921302      0.87421322969641
  H   2.17210707989533      0.71333171835350     -0.86552425934075
  H   1.32084281790302      1.81680477956274      0.23090716328258
  C   0.71150764828193     -1.59216242395493      0.36692389080432
  H   -0.11061304303350     -2.24321840061808      0.05869760467031
  H   1.59659696251655     -1.90985398366130     -0.19451511200998
  H   0.92206986740652     -1.79384004468318      1.42486523924439
