16
Coordinates from ORCA-job run
  C   -0.83500447499755      0.31023251734740     -0.07009570851061
  C   0.41900823420987     -0.16287888277874      0.11895335950426
  N   -1.17016087540710      1.65943452023336     -0.31497066679692
  H   -0.38778717813747      2.28767471480449     -0.21592453071999
  H   -1.62925002835172      1.79896926495372     -1.20663061333553
  N   -1.97357971041361     -0.50499321658776      0.08021696726309
  H   -2.83260583420265      0.02162454821547      0.05995642849639
  H   -1.99625339082181     -1.31239695857758     -0.52186424354563
  C   1.65140897576332      0.64415838410149     -0.18224667189571
  H   2.11539315969474      1.04559662161599      0.72759769390477
  H   1.45516614516767      1.48203794650473     -0.85619534755700
  H   2.40590960099900      0.01567592744484     -0.66728584402144
  C   0.64350433701764     -1.54937609731007      0.65402440024378
  H   0.92241426368011     -2.25991221820677     -0.13526477405787
  H   1.46362155084968     -1.55109117105486      1.38054199247126
  H   -0.25278477505012     -1.92675590070570      1.15018755855716
