16
Coordinates from ORCA-job run
  C   -0.83633536858129      0.27665055139800     -0.14948438193364
  C   0.41527033289217     -0.13635052913734      0.15900756581280
  N   -1.18667519890659      1.57801587697683     -0.57011885963313
  H   -0.42445108013977      2.23481188018820     -0.50403560701970
  H   -1.59592451151176      1.59886953966503     -1.49611936910578
  N   -1.96384771255029     -0.54626051808861      0.03741019910153
  H   -2.83102624102289     -0.04817732486164     -0.08740268764374
  H   -1.93869488735665     -1.41893395190815     -0.46521460727281
  C   1.64446960433606      0.66372602840302     -0.17300020881588
  H   2.43770147851536      0.00390313522419     -0.54032985770851
  H   1.46641561408163      1.41036037331033     -0.95115369884190
  H   2.04977977225780      1.18272600929248      0.70487595508640
  C   0.64029975013425     -1.44288287375685      0.86675996995895
  H   0.97824664496780     -2.23305885122777      0.18333702103559
  H   1.41857571748119     -1.33556508098974      1.63039920880197
  H   -0.27380391459702     -1.78483426448798      1.35606935817785
