16
Coordinates from ORCA-job run
  C   -0.81023719757298      0.33849505681026     -0.16482425685526
  C   0.41600483333324     -0.13481358082700      0.15848935268010
  N   -1.02526407497203      1.68656222205570     -0.51105536807523
  H   -0.49813649899162      2.00821524422617     -1.30698240336298
  H   -2.00406582473357      1.91907531383847     -0.57064744296033
  N   -2.01510011134779     -0.39318295130824     -0.08620348108025
  H   -2.47611712524274     -0.49563547597275     -0.98195102203774
  H   -1.90593358302459     -1.29007088193000      0.36146718722877
  C   1.58278374963541      0.79921729589859      0.31596503455002
  H   1.24385934422662      1.82566313241975      0.46918707962074
  H   2.24713651274729      0.78554499860816     -0.55816319419224
  H   2.19325925733818      0.50736085002896      1.17766060321920
  C   0.69502384069878     -1.59549979231940      0.38168008891197
  H   -0.06947555337583     -2.24407604348148     -0.05372531690960
  H   0.77853425342983     -1.84247596818805      1.44766860797749
  H   1.64872817785179     -1.87337941985917     -0.07956546871466
