16
Coordinates from ORCA-job run
  C   -0.80636625701920      0.34276060809087     -0.17577232173812
  C   0.41525426296711     -0.13290946447912      0.16106921827986
  N   -2.02178736304452     -0.36417753138908     -0.04780805326581
  H   -1.92145918501020     -1.23844597168785      0.44455704612963
  H   -2.49306214609859     -0.50561700207896     -0.93286062958134
  N   -1.00346428641952      1.67379322017513     -0.59176985637063
  H   -0.47997864498899      1.94337211524552     -1.40911740255015
  H   -1.97882887220693      1.91973740757775     -0.65330469272075
  C   1.59845100350142      0.78837607488497      0.26021349742849
  H   1.27836851427754      1.82779035378861      0.35442706305972
  H   2.20699133258280      0.53640481628320      1.13586008244934
  H   2.25913311802341      0.71104444350412     -0.61334339133963
  C   0.67271584516535     -1.58406125458129      0.45975854464140
  H   1.61917939023810     -1.90051236402919      0.00855365828181
  H   -0.10419183843010     -2.24250527291315      0.06277453196233
  H   0.75904512646232     -1.77605017839153      1.53676270533386
