14
Coordinates from ORCA-job run
  C   -0.45275296203451     -0.00216088512560     -0.06870516284067
  C   0.87504342006148     -0.12927549654395      0.25786874914660
  C   -1.12471682323529      1.27029241037548     -0.47109082024505
  H   -0.43839764497406      2.11306832056007     -0.39668334815846
  H   -1.49529849801159      1.20319347966043     -1.49600666303684
  H   -1.98711032761613      1.46138982189090      0.17090565038697
  N   -1.29702998594896     -1.17362151009141     -0.10270020194252
  O   -2.45643371677195     -1.01778912019948     -0.49030708713173
  O   -0.83108846734877     -2.26835348485904      0.25183410350535
  C   1.67198067590688      1.06937921715637      0.22187507223365
  N   2.35871469006817      2.02442330415329      0.18947222230707
  N   1.54915326036523     -1.22729800254253      0.70661265707526
  H   1.07565203012892     -2.11154535117063      0.59991328982871
  H   2.55228434941056     -1.21170270326391      0.62501153887166
