14
Coordinates from ORCA-job run
  C   -0.47772809671347      0.12024944983395      0.12301087168743
  C   0.84615478020436     -0.16197506113152      0.25967966683879
  C   -1.08211027767924      0.56485387908363     -1.16626923913033
  H   -1.31534265550119     -0.28053103288018     -1.82230798801494
  H   -2.01427232893172      1.09550554429184     -0.98117952156206
  H   -0.39711255179290      1.23926557978677     -1.68675746548404
  N   -1.38597364703864     -0.10004515028681      1.23859190048601
  O   -0.93045328335542     -0.13346202364696      2.38068228214463
  O   -2.57582139344720     -0.24050580916495      0.94705217414768
  C   1.46725337852040     -0.58317815668691      1.48385277623289
  N   2.12977871750946     -0.95388119091237      2.38314455302994
  N   1.74099936827098      0.00232797793811     -0.78657484940537
  H   1.36270792363846     -0.11737373181038     -1.71322389713740
  H   2.63192006631612     -0.45125027441421     -0.65870126383322
