14
Coordinates from ORCA-job run
  C   -0.50002305202624      0.02769093072865      0.08819870458632
  C   0.79664990372050     -0.37095503739001      0.19132803242993
  C   -1.03862889051172      0.72347900988696     -1.11692175550671
  H   -0.80512903736580      1.79338816788727     -1.10754794808320
  H   -2.12227392470240      0.62965991046344     -1.15255963085764
  H   -0.62033514956016      0.27781072620630     -2.02336669240845
  N   -1.40120267915297     -0.13387693609864      1.21954157280906
  O   -1.13805787480000     -0.97898420338266      2.07406925783249
  O   -2.38652070823967      0.60712958813787      1.23692295433622
  C   1.35359656412554     -1.04353245951206      1.33107843754145
  N   1.97478414439171     -1.57084862819937      2.18041005600889
  N   1.69609713713196     -0.20962798281373     -0.84967157154588
  H   2.66613442379982     -0.31485300957793     -0.59812212616687
  H   1.52390914318943      0.56351992366392     -1.47235929097562
