14
Coordinates from ORCA-job run
  C   -0.44728294390270      0.08350586415306     -0.04995254454039
  C   0.86896389353550     -0.30514731333859     -0.00167467925762
  C   -0.93871292061441      1.48775963968215      0.09244366126282
  H   -1.54027358899334      1.76652543691384     -0.77521543233977
  H   -1.57788770824722      1.58266401153901      0.97280940252352
  H   -0.10628566102109      2.18448128360822      0.18374355548604
  N   -1.48265220457525     -0.91074964628792     -0.20575302682554
  O   -1.16435358052869     -2.10155195214757     -0.35209893162885
  O   -2.64922140489082     -0.51388836651040     -0.17937565408329
  C   1.84810129479118      0.73227199837974      0.19391554004240
  N   2.67607349474011      1.54996047593656      0.36871222790839
  N   1.40814863097726     -1.54216571171773     -0.19943133902765
  H   2.34324818445692     -1.69536921324105      0.13921632721891
  H   0.76313451427254     -2.31729650696933     -0.18833910673898
