14
Coordinates from ORCA-job run
  C   -0.48801420616860      0.08539233720756      0.11330137242128
  C   0.77900053082600     -0.40268272422232      0.20042490494997
  C   -1.06406054857504      0.61785446242510     -1.15555635965657
  H   -0.77329392944199      1.65901137603705     -1.33187593437001
  H   -0.73204341522696      0.00996490928828     -2.00117925482915
  H   -2.15127887068880      0.58941332373931     -1.11477766010094
  N   -1.31007046040310      0.19096386913246      1.30972200754939
  O   -1.03572600935513     -0.50734542564024      2.28450601102730
  O   -2.24449512293449      0.99369934061758      1.25528957622072
  C   1.36711326043800     -0.93509505791849      1.39700325499127
  N   2.00956458056290     -1.37814888463161      2.27805181078806
  N   1.60655169668364     -0.48821846204541     -0.90867639770157
  H   1.45417096755213      0.20192906646245     -1.62749319958724
  H   2.58158152673146     -0.63673813045172     -0.70074013170252
