14
Coordinates from ORCA-job run
  C   -0.41738817093674      0.13553360206515     -0.08146529117938
  C   0.84129129809774     -0.33315505978582      0.17516289639699
  C   -0.79909502289589      1.45448188533273     -0.67477507537382
  H   -1.38581257206274      2.04234506631152      0.03104215098078
  H   -1.41020089754056      1.28607423857229     -1.56113298462270
  H   0.09286305764484      2.01189443761252     -0.94647248548322
  N   -1.54117568722628     -0.70609753323682      0.32771642489435
  O   -2.50286535658105     -0.14342965081179      0.84694155382050
  O   -1.46637639489163     -1.92726198305735      0.13564598028139
  C   1.93592324333500      0.54510000039872     -0.12018368868988
  N   2.87061680411162      1.22509036836297     -0.35389684951066
  N   1.20537839978901     -1.49927264283350      0.80966904996781
  H   2.09725385906044     -1.89870822375189      0.54441911222982
  H   0.47858744009625     -2.19159450517872      0.86732920628802
