14
Coordinates from ORCA-job run
  C   -0.43540383578261      0.12214042494371     -0.06802732499041
  C   0.82554317476010     -0.40476145722836      0.06725526082962
  C   -0.74708511500144      1.56244732840578     -0.31552010467958
  H   -1.36251714897717      1.66730764953419     -1.21143549738587
  H   0.16627909713303      2.14144566029833     -0.44784257167274
  H   -1.31576450882233      1.98133392222823      0.51726749698712
  N   -1.58963942151481     -0.73168664432656      0.09059520796148
  O   -1.42484445448149     -1.94786682804280      0.27736211980221
  O   -2.69693613554966     -0.19364984480574      0.03140363697198
  C   1.92997522298631      0.51062754123126     -0.05703316878205
  N   2.85582329834024      1.23211881651517     -0.14030977391767
  N   1.20139035242070     -1.70808654293862      0.21650941703607
  H   0.46798289914907     -2.35430771410310      0.46463444930005
  H   2.12619657534007     -1.87706231171151      0.57614085253978
