14
Coordinates from ORCA-job run
  C   -0.45750835607246      0.17379819258541      0.13833938359926
  C   0.82099869093110     -0.28125170891506      0.23666614289652
  C   -1.01239818356073      0.76097562191157     -1.11553633420772
  H   -1.87507364561009      1.38481713517083     -0.88885876416187
  H   -1.34603114787381     -0.01120521369835     -1.81699244815176
  H   -0.25529701322925      1.37991061467173     -1.60453302813528
  N   -1.37514330054254      0.00806727452211      1.25575209882087
  O   -0.91542847527739     -0.14767082358795      2.38604024414907
  O   -2.57616845044607      0.03663752578952      0.97790321453272
  C   1.39580972742770     -0.84661610200164      1.42486964255323
  N   2.01486526543496     -1.35055682804033      2.28978680867789
  N   1.71754751257046     -0.17498144476459     -0.81523735780831
  H   1.31794103905110     -0.19252981784533     -1.74052285471251
  H   2.54588633719704     -0.74239442579790     -0.72767674805210
