14
Coordinates from ORCA-job run
  C   -0.50234949875824      0.00894875782081      0.07927818801078
  C   0.80431772784378     -0.35186770129413      0.19518693601131
  C   -1.04014633349213      0.72221201991881     -1.11540140453828
  H   -0.59124862151080      0.31601932057721     -2.02580906047740
  H   -2.11932731534784      0.59463124127347     -1.17523882702169
  H   -0.84268278537228      1.79875427072989     -1.07253231097901
  N   -1.41757566296359     -0.21289693568715      1.18891135418028
  O   -2.42664701239818      0.49529055349382      1.20843943001359
  O   -1.14165090345434     -1.07187406228811      2.02523897264377
  C   1.36220495379357     -1.04125990032145      1.32445055171298
  N   1.98446287423439     -1.57504002658106      2.16882528825583
  N   1.71661762761620     -0.13115679148517     -0.82423937617686
  H   2.68466089788722     -0.20992034231776     -0.55531444230049
  H   1.53036405192224      0.65815959616084     -1.42279529933481
