14
Coordinates from ORCA-job run
  C   -0.50150397334747      0.07538287957670      0.09815884185078
  C   0.81776922600048     -0.19894599655290      0.29476812582044
  C   -1.05805719797604      0.29211270917430     -1.26903225970738
  H   -0.72505808468139     -0.50034921344301     -1.94622667491153
  H   -2.14443187431032      0.28532952222972     -1.23488962787556
  H   -0.73811781800564      1.25591840934597     -1.68161747144328
  N   -1.41478512106917      0.13470339508514      1.23350890692470
  O   -0.93763062673589      0.15639937514558      2.36707433900531
  O   -2.62041899111868      0.16545930886485      0.98084843244912
  C   1.41964871762264     -0.51249790507958      1.56009645520754
  N   2.07672258010512     -0.79874601635128      2.49363455574472
  N   1.69307005318717     -0.30713660699564     -0.77233497195875
  H   2.67111637249076     -0.27787620141525     -0.53106481412621
  H   1.46167673783843      0.22924634041538     -1.59392383697990
