14
Coordinates from ORCA-job run
  C   -0.50080609927280      0.01236838966556      0.08693227615245
  C   0.80555600461906     -0.35432652428158      0.18685035094103
  C   -1.05716017240357      0.70687869724718     -1.11035495078430
  H   -2.13574351762442      0.56900939142055     -1.15782968994453
  H   -0.86942325978476      1.78557752930536     -1.08121574119679
  H   -0.61361995363299      0.29507085006006     -2.02071089420108
  N   -1.39661595570289     -0.17884030717272      1.21764690982810
  O   -2.40191252656639      0.53484799852070      1.23814725194375
  O   -1.11014414474085     -1.01930634161205      2.06902774805374
  C   1.37882575572435     -1.02473720489114      1.31971283106497
  N   2.01416902095223     -1.54511480247655      2.16285281024226
  N   1.70141247545740     -0.15923925702066     -0.85237687161198
  H   1.51308735543308      0.62333912641112     -1.45896049439336
  H   2.67337501754256     -0.24452754517586     -0.59972153609427
