14
Coordinates from ORCA-job run
  C   -0.50287156755457      0.06122716524619      0.11552127915814
  C   0.81766620393749     -0.23379593931190      0.26984442482862
  C   -1.09847583170614      0.29659303355080     -1.23277640259028
  H   -2.18320575047748      0.23816877883546     -1.17695085676540
  H   -0.83750890434189      1.28726716610750     -1.62286153479659
  H   -0.73987972665799     -0.45750283457674     -1.93853552596786
  N   -1.36910318100403      0.20129525063865      1.27859310065384
  O   -2.53330442275455      0.54579413952205      1.06621700822988
  O   -0.89780899392263     -0.01937948520628      2.39260384265115
  C   1.46304409318592     -0.55464660381913      1.51138307218709
  N   2.16521408158513     -0.84973359646440      2.40902042290613
  N   1.65505620191560     -0.35593569103126     -0.82655219829455
  H   1.41914607961921      0.20146643681700     -1.63278257297358
  H   2.64003171817591     -0.35981782030792     -0.61272405922659
