14
Coordinates from ORCA-job run
  C   -0.42019853693759      0.17701064219629      0.01033374754737
  C   0.77739832947668     -0.49237589029478      0.07422610495641
  C   -0.57624603308887      1.65927614835649     -0.10380228444167
  H   0.39387690660746      2.15486306967339     -0.10117414250804
  H   -1.10677099126787      1.91879414289074     -1.02228701942593
  H   -1.16929002551829      2.04219756575002      0.72904511686524
  N   -1.65837530540483     -0.56646230491661      0.00307009268805
  O   -1.62342662376117     -1.80461212875487      0.09143326837529
  O   -2.70228610972849      0.08120115653720     -0.09710501175968
  C   1.97154447012489      0.31143215040662      0.03990620585773
  N   2.96390788441442      0.94213651004161     -0.00270844846057
  N   1.00893216521181     -1.82440942535571      0.25486073345446
  H   0.21791882349036     -2.43461655323810      0.11766331387211
  H   1.92301504638149     -2.16643508329231      0.00853832297923
