14
Coordinates from ORCA-job run
  C   -0.45247264649620      0.00295741905500     -0.06921608326789
  C   0.87303320057428     -0.13691988642814      0.26153847099637
  C   -1.10317986757312      1.27475297487760     -0.50739368437493
  H   -1.95601600920170      1.50495703000859      0.13453225151960
  H   -1.48330468295053      1.18046749608239     -1.52673795253950
  H   -0.39968320588024      2.10575161052236     -0.46755369636986
  N   -1.31761001837639     -1.15360262239858     -0.06546748068118
  O   -0.86765754951357     -2.24728923566492      0.31196414024805
  O   -2.47866884461102     -0.98639096273567     -0.44363180020497
  C   1.68978189839749      1.04669567643299      0.18965276709044
  N   2.39191271474907      1.98899767396975      0.12777138320740
  N   1.52911933233185     -1.23332675272779      0.74032823094798
  H   1.04228109376692     -2.11257600809071      0.65581222657289
  H   2.53246458478316     -1.23547441290287      0.66040122685559
