14
Coordinates from ORCA-job run
  C   -0.43740780600863      0.12729354394602      0.04945473990490
  C   0.89705236788190     -0.19615370358968      0.06855376985942
  C   -1.48617770850406     -0.58453334858356     -0.74171624253963
  H   -1.06637348258274     -1.44769579477542     -1.25717396581688
  H   -2.29003896386712     -0.92430444495622     -0.08533468441387
  H   -1.93413936375536      0.08571209651850     -1.47834940104377
  N   -0.90742186925013      1.27357379819092      0.79125800019096
  O   -2.10250385920290      1.55648299596693      0.68801864402996
  O   -0.10676069503142      1.91509669086247      1.49030377758664
  C   1.30601005214914     -1.32395733936360     -0.72798448474325
  N   1.68444214961520     -2.23046344157201     -1.37592370859641
  N   1.90265517256544      0.34740403918266      0.81255186172496
  H   1.69719229635644      1.22628703038404      1.26222301994195
  H   2.84547170963424      0.17625787778897      0.50511867391500
