14
Coordinates from ORCA-job run
  C   -0.44303973351981      0.09135005576201     -0.05258381251882
  C   0.83894885502508     -0.32941184988013      0.20439751616006
  C   -0.85915380067629      1.50910958287538     -0.28046526320148
  H   -0.03965881654876      2.19383997232272     -0.06890068014902
  H   -1.18859656763033      1.65653566369840     -1.31099034340791
  H   -1.70238512920582      1.75825436458841      0.36536156040293
  N   -1.50463025222830     -0.88091384656460     -0.18343685503694
  O   -1.25534036871170     -2.08082961820937      0.01631201167830
  O   -2.61891564382808     -0.45386270719172     -0.48941002610246
  C   1.85045931471568      0.69293903309284      0.27820350499191
  N   2.69595217108782      1.50942621604290      0.33615139831962
  N   1.29404447493575     -1.58202462916913      0.49340801939265
  H   2.27965020834318     -1.74698214577183      0.37488338094937
  H   0.65166528824159     -2.33843009159588      0.31606958852180
