14
Coordinates from ORCA-job run
  C   -0.44800504019886      0.09334695805066     -0.00553971164665
  C   0.86000493314824     -0.29631796256923      0.14631920951143
  C   -0.89928957061945      1.42408780096000     -0.51288237933090
  H   -1.46699811195670      1.30870444778824     -1.43857581251798
  H   -1.56012534428523      1.90334264982826      0.21237049441353
  H   -0.04905561099934      2.07939889090936     -0.69946038612952
  N   -1.51157332879732     -0.84039524968167      0.28383016812761
  O   -2.66428266768570     -0.46140454057424      0.06797646954138
  O   -1.22876386088980     -1.96417972304518      0.72882423878721
  C   1.87057415323454      0.66980698074413     -0.19930767930299
  N   2.72509219564258      1.42660825505637     -0.48539508780793
  N   1.35809554621540     -1.45323278370849      0.67045816077641
  H   0.70108348417773     -2.21069527573452      0.77876097866925
  H   2.31424322301391     -1.67907044802368      0.45262133690915
