14
Coordinates from ORCA-job run
  C   -0.49791962706150      0.07353729255253      0.11346925925747
  C   0.82848263073577     -0.19260093324728      0.26876543242501
  C   -1.10113841836396      0.27805508103950     -1.23567649541518
  H   -0.80395328622023      1.24227492299984     -1.66391503539818
  H   -0.78412391304053     -0.51548167631264     -1.91926099781092
  H   -2.18570238255845      0.26171238594468     -1.16494908160791
  N   -1.37341853133006      0.13696285018795      1.27800338708887
  O   -0.85878153612335      0.18203607816743      2.39442657552494
  O   -2.58709149284522      0.14818534907039      1.06547992921268
  C   1.47227938775935     -0.49381901972343      1.51634663060159
  N   2.15898958863680     -0.77050129430475      2.43128187466856
  N   1.66937442623740     -0.30481895969726     -0.82526039984441
  H   2.65456505619208     -0.26859794276298     -0.61634402808577
  H   1.40843809798188      0.22305586608602     -1.64336705061674
