14
Coordinates from ORCA-job run
  C   -0.50309278999443      0.02764502513842      0.10102262496332
  C   0.83280927515672     -0.17189812578667      0.26977815898347
  C   -1.07335301412623      0.46042727393457     -1.20789655731745
  H   -0.77571467236663      1.48732087057102     -1.44865834241125
  H   -0.73014221275789     -0.19532780552605     -2.01459891735607
  H   -2.15918100644110      0.42016808882127     -1.17273384194487
  N   -1.42162696829961     -0.25023053523228      1.19862444055201
  O   -0.96833094908334     -0.29446146468046      2.34171468717491
  O   -2.60605465085542     -0.42099090043475      0.90499679253056
  C   1.44354894893729     -0.68534891412171      1.46316357931337
  N   2.09934509823015     -1.10712088547896      2.34474871309073
  N   1.72354666908884     -0.00023498093447     -0.77580514191080
  H   1.44620370513433      0.64949146039765     -1.49502967683367
  H   2.69204256737732      0.07856089333243     -0.50832651883428
