14
Coordinates from ORCA-job run
  C   -0.50176305946447      0.02551327775284      0.10726024765890
  C   0.83769005318695     -0.16230134886564      0.25996811110641
  C   -1.09534466508863      0.41435339378285     -1.20521425685855
  H   -2.17845492819240      0.33337214508764     -1.16339505905963
  H   -0.83867788960748      1.44773464643165     -1.46493079400923
  H   -0.72982459334252     -0.24085489248141     -2.00182842807172
  N   -1.40113853742441     -0.21415317487486      1.22920679165004
  O   -0.92787233039476     -0.21915598516206      2.36493629487828
  O   -2.59077672497208     -0.39217069389298      0.96317759408175
  C   1.46971966749147     -0.63905679781720      1.45757279110151
  N   2.14079517311280     -1.03477376867080      2.33967323733607
  N   1.71024481985805     -0.01387309242382     -0.80504612366590
  H   1.42304705264675      0.62878207444216     -1.52684143038947
  H   2.68335596219073      0.06658421669161     -0.55553897575846
