14
Coordinates from ORCA-job run
  C   -0.41764113582408      0.17618548680025     -0.06302083870102
  C   0.89494895702614     -0.18370865542043      0.12056054939578
  C   -1.45473913955181     -0.65840451198422     -0.74176300986113
  H   -2.25827288569704     -0.91220494214300     -0.04729167527029
  H   -1.90583793231298     -0.10420603026592     -1.56747848443254
  H   -1.02054293486365     -1.57827852191078     -1.13192126596474
  N   -0.89832641187549      1.42906120797536      0.47089469970884
  O   -2.09922488350481      1.67185456478696      0.33559189786492
  O   -0.10059812017402      2.19591880570881      1.03366233997838
  C   1.29661917202962     -1.46567449675200     -0.39787506584972
  N   1.65934309298928     -2.51221768299262     -0.79515256227965
  N   1.91848973664102      0.54171651260218      0.65596930826118
  H   2.73256587187244      0.03231573055768      0.95710014564337
  H   1.65521661324539      1.36864253303773      1.16972396150662
