14
Coordinates from ORCA-job run
  C   -0.48573134561440      0.10592348583116      0.10936609927108
  C   0.85194976814152     -0.07613766092129      0.27741542263074
  C   -1.10531275435191      0.35510799939965     -1.22451260896739
  H   -1.26128843731739     -0.57396741474680     -1.78340880397429
  H   -0.46689726697536      1.01889891418584     -1.81366131455651
  H   -2.07883865457495      0.82671651142009     -1.10517283968970
  N   -1.38566946319360     -0.03563823257087      1.24431116429361
  O   -2.56291823963737     -0.28364185295673      0.97420761082041
  O   -0.93511859461289      0.09647785855231      2.38131530398702
  C   1.49016355803341     -0.31376115287732      1.54131790038555
  N   2.16839119834128     -0.54062276515245      2.47607879034457
  N   1.74040842405378      0.01785817581393     -0.78300573764078
  H   2.65685653886415     -0.36160555235348     -0.60413879027887
  H   1.37500526884372     -0.23460831362403     -1.68811219662542
