13

C	-0.356331	0.008165	-1.452487
C	0.0	0.0	0.0
Br	-2.259392	0.297917	-1.884477
H	1.090998	0.0	0.0
H	0.184996	0.825195	-1.92184
H	-0.384128	0.924984	0.429179
N	0.088406	-1.222767	-2.195814
O	-0.454584	-2.286273	-1.924169
O	0.97251	-1.049632	-3.031062
N	-0.597561	-1.09786	0.774597
O	-0.036573	-2.192764	0.752498
O	-1.618259	-0.846519	1.42764
F	2.512133	0.0	0.0
