13

C	-0.638045	-0.053693	-1.356538
C	0.0	0.0	0.0
Br	-0.167566	-1.729667	-2.219798
H	1.087215	0.0	0.0
H	-1.724547	0.006469	-1.362069
H	-0.284215	-0.88582	0.570633
N	-0.207132	1.05626	-2.289804
O	-1.007775	1.325449	-3.185108
O	0.879637	1.579015	-2.109145
N	-0.52546	1.146348	0.743025
O	-0.377754	1.153284	1.96234
O	-1.072272	2.058979	0.107627
F	2.496093	0.0	0.0
