13

C	-0.635711	0.009544	-1.358702
C	0.0	0.0	0.0
Br	-0.177263	-1.633996	-2.287526
H	1.087253	0.0	0.0
H	-1.722052	0.076287	-1.364938
H	-0.28473	-0.910726	0.529493
N	-0.198123	1.155271	-2.243531
O	-1.013216	1.491685	-3.102797
O	0.907027	1.639128	-2.063726
N	-0.526956	1.112501	0.791404
O	-0.410804	1.05383	2.014381
O	-1.04077	2.065336	0.191104
F	2.494615	0.0	0.0
