13

C	-0.528965	0.080709	-1.395014
C	0.0	0.0	0.0
Br	-2.461504	0.392273	-1.498254
H	1.091065	0.0	0.0
H	-0.061991	0.937557	-1.877821
H	-0.309121	0.891693	0.545449
N	-0.146987	-1.09868	-2.278163
O	-1.00083	-1.868324	-2.691138
O	1.052509	-1.141941	-2.520182
N	-0.510944	-1.143241	0.75065
O	-0.748343	-0.983048	1.950005
O	-0.615594	-2.220428	0.158443
F	2.491064	0.0	0.0
