13

C	-0.572474	-0.04098	-1.391533
C	0.0	0.0	0.0
Br	0.716479	-0.524487	-2.768097
H	1.085762	0.0	0.0
H	-1.393032	-0.741572	-1.505336
H	-0.315896	0.886938	0.547776
N	-1.128591	1.302206	-1.767586
O	-2.278445	1.313751	-2.211845
O	-0.420478	2.288435	-1.603014
N	-0.443479	-1.164562	0.76498
O	-0.477213	-1.054065	1.99174
O	-0.69469	-2.212593	0.158814
F	2.484253	0.0	0.0
