13

C	-0.640359	-0.025737	-1.356901
C	0.0	0.0	0.0
Br	-0.192111	-1.692911	-2.248128
H	1.087254	0.0	0.0
H	-1.726285	0.044139	-1.36
H	-0.286909	-0.895392	0.554764
N	-0.204528	1.094852	-2.274816
O	-1.043378	1.443524	-3.106265
O	0.922054	1.545458	-2.149152
N	-0.528348	1.13555	0.758008
O	-1.018344	2.081655	0.12546
O	-0.433778	1.103345	1.983781
F	2.494193	0.0	0.0
