13

C	-0.45861	-0.095729	-1.421614
C	0.0	0.0	0.0
Br	0.294355	1.226736	-2.596286
H	1.08795	0.0	0.0
H	-0.115064	-1.058324	-1.802243
H	-0.314124	-0.888262	0.548628
N	-1.978337	-0.164532	-1.564391
O	-2.49069	-1.020907	-0.847934
O	-2.577151	0.546966	-2.356746
N	-0.560314	1.142925	0.725554
O	-0.358981	1.173434	1.937796
O	-1.194346	2.000029	0.103003
F	2.511681	0.0	0.0
