12
Coordinates from ORCA-job run
  C   -0.26746633127367     -0.45402215128958      0.20646942077291
  C   0.89864463049599      0.40689221624938     -0.27965211414066
  Br  -0.06672350394114     -0.79289834708395      2.11927161465558
  H   0.92614631398426      1.34405289803067      0.28368012105408
  H   -0.22011623383734     -1.43894987406057     -0.26138124241794
  H   0.73209275996068      0.65923604994558     -1.33315256082234
  C   -1.60393486359811      0.21169346653141     -0.06455354626662
  H   -2.42672599013454     -0.40675663171765      0.29496208213880
  H   -1.72993656236669      0.36179070720303     -1.14129709153877
  H   -1.66112210777208      1.18158556685431      0.43402068256787
  C   2.19274611391519     -0.26167134729725     -0.16453682474354
  N   3.22739577456745     -0.80995255336538     -0.09183054125938
