12
Coordinates from ORCA-job run
  C   -0.32368603958371     -0.65687977876148      0.14879479411853
  C   1.11780038491890     -0.16194831883598      0.30071459439044
  Br  -0.77292432425650     -1.66876858298300      1.76071104853610
  H   1.79281085674137     -1.00178521530101      0.48227766773788
  H   -0.37798367017260     -1.38328161587951     -0.66400493484483
  H   1.18931713613463      0.50977798253200      1.16114186315446
  C   -1.32215606498111      0.46509890048198     -0.05801468687750
  H   -1.29031561433179      1.16766045052301      0.77770181967703
  H   -1.08683063912742      1.00403446569256     -0.98004210308313
  H   -2.33581875107668      0.07101228180548     -0.13741662270782
  C   1.54804213425679      0.54761523801479     -0.90458193436095
  N   1.86274459147812      1.10846419271115     -1.88628150574021
