12
Coordinates from ORCA-job run
  C   -0.37262618172704     -0.67754328986327      0.15981009854087
  C   0.99297083002262     -0.42673648582637     -0.48199881149773
  Br  -0.12794975965559     -1.13698755549250      2.04343076558513
  H   1.65115460971071     -1.28507162091910     -0.32735445615186
  H   -0.80027049321322     -1.57434873690968     -0.29310267129575
  H   0.85242959158658     -0.30767317934590     -1.56274039580662
  C   -1.31978575853730      0.49925221750183      0.02749194843271
  H   -0.92293090067599      1.37790472798998      0.53871980160827
  H   -2.29432392673722      0.26114764234532      0.45481504437001
  H   -1.45555480951025      0.74262688029927     -1.03130661132109
  C   1.64479321291854      0.77539872342308      0.03448762890077
  N   2.15209358581816      1.75303067679734      0.43874765863530
