12
Coordinates from ORCA-job run
  C   -0.36176289491110     -0.68914710419346      0.13041756428120
  C   0.99077489678712     -0.38867196354957     -0.51766648568528
  Br  -0.08201376187903     -1.23775416750022      1.98521475317135
  H   1.66085959848881     -1.24575941919800     -0.41760849422113
  H   -0.78524983374746     -1.56808362724291     -0.35988528927163
  H   0.83304690767929     -0.21474189653690     -1.58844027063081
  C   -1.32580051834415      0.47987028798250      0.07061324899851
  H   -1.48395469421350      0.77085258932949     -0.97313281749872
  H   -2.28936161674958      0.20849840763988      0.50307807436010
  H   -0.93090274871564      1.33885514453561      0.61586262653038
  C   1.63586521599249      0.79308016722686      0.05181688340768
  N   2.13749944961275      1.75400158150673      0.50073020655835
