15

C	0.0	0.0	0.0
C	-0.568839	-0.04414	-1.393448
F	1.40845	0.0	0.0
H	-1.679635	-0.085269	-1.069645
H	-0.338776	0.917204	0.495382
N	-0.366746	-1.201955	0.716155
H	0.471562	-1.692407	0.946405
H	-0.933218	-0.999507	1.528138
C	-0.192505	-1.267855	-2.076449
N	0.089419	-2.247655	-2.681401
C	-0.24213	1.188973	-2.221176
H	0.850586	1.334538	-2.362869
H	-0.647268	2.077444	-1.714889
H	-0.710281	1.142013	-3.212418
F	-2.761866	0.0	0.0
