15

C	0.0	0.0	0.0
C	-0.323663	0.051925	-1.511486
F	1.386889	0.0	0.0
H	0.443136	0.731983	-1.90649
H	-0.30107	0.943388	0.47041
N	-0.515099	-1.165566	0.628367
H	-0.324577	-1.080548	1.622669
H	-1.548475	-0.956819	0.49393
C	-1.591	0.639233	-1.972016
N	-2.357191	1.176551	-2.686354
C	-0.092708	-1.3183	-2.155124
H	-0.129682	-1.237005	-3.244963
H	0.888623	-1.690852	-1.85348
H	-0.847764	-2.024343	-1.81433
F	-2.674751	0.0	0.0
