15

C	0.0	0.0	0.0
C	-0.486943	-0.079237	-1.455503
F	1.389312	0.0	0.0
H	-1.589445	-0.076275	-1.289187
H	-0.33205	0.966868	0.385872
N	-0.514962	-1.011526	0.859529
H	-0.335777	-1.917548	0.434009
H	-1.53879	-0.819577	0.776928
C	-0.070348	-1.338809	-2.062021
N	0.265233	-2.348749	-2.562467
C	-0.027045	1.110643	-2.296369
H	1.063864	1.149918	-2.359334
H	-0.385479	2.032744	-1.829114
H	-0.436191	1.062822	-3.308632
F	-2.798419	0.0	0.0
