15

C	0.0	0.0	0.0
C	-0.514243	0.775332	-1.223474
Cl	1.793654	0.0	0.0
H	0.042631	0.385276	-2.085601
H	-0.327379	0.50843	0.907143
C	-0.412421	-1.402101	0.001718
N	-0.638712	-2.552319	-0.077949
N	-0.203468	2.188146	-0.997969
H	-1.04241	2.740547	-1.115012
H	0.491784	2.518804	-1.650929
C	-2.002543	0.554575	-1.441385
H	-2.621474	0.9326	-0.625574
H	-2.301162	1.065567	-2.360436
H	-2.266819	-0.497528	-1.54554
Br	-5.23402	0.0	0.0
