15

C	0.0	0.0	0.0
C	-0.490728	0.261784	-1.444211
Cl	1.793653	0.0	0.0
H	0.198085	-0.284262	-2.100464
H	-0.332592	0.819468	0.637127
C	-0.419469	-1.293564	0.536219
N	-0.676695	-2.373616	0.91984
N	-0.382172	1.705334	-1.667026
H	-1.269059	2.061894	-2.002184
H	0.323126	1.910674	-2.359725
C	-1.902097	-0.254954	-1.688092
H	-2.205871	0.030683	-2.699273
H	-2.654311	0.130575	-0.995185
H	-1.946221	-1.342814	-1.620706
Br	-5.170325	0.0	0.0
