15

C	0.0	0.0	0.0
C	-0.567247	0.395781	-1.363199
Cl	1.793757	0.0	0.0
H	-0.213894	-0.351761	-2.091395
H	-0.311056	0.747077	0.732581
C	-0.426012	-1.334993	0.41432
N	-0.713513	-2.431254	0.721907
N	-0.096084	1.747555	-1.657363
H	0.832815	1.722971	-2.059333
H	-0.720726	2.170578	-2.33193
C	-2.086407	0.382628	-1.297549
H	-2.463425	1.11589	-0.585132
H	-2.508249	-0.575834	-1.002551
H	-2.508042	0.627112	-2.275527
Br	-5.379188	0.0	0.0
