15

C	0.0	0.0	0.0
C	-0.489442	1.036784	-1.100314
Cl	1.791811	0.0	0.0
H	0.436631	1.526517	-1.412553
H	-0.327097	0.33187	0.984326
C	-0.412277	-1.38828	-0.18433
N	-0.664748	-2.522557	-0.351919
N	-1.353055	2.079365	-0.583485
H	-2.244177	1.653872	-0.317126
H	-0.935573	2.500602	0.240332
C	-1.12931	0.385003	-2.339739
H	-1.339086	-0.675184	-2.213357
H	-2.084581	0.868313	-2.531115
H	-0.48656	0.519419	-3.211301
Br	-3.910866	0.0	0.0
