12
Coordinates from ORCA-job run
  C   0.43953543420362     -0.05705568923476      0.61916888882669
  C   -0.42871914601318      0.10333800391110     -0.60290661532554
  F   0.26878144904174      0.98601034844058      1.45941254406347
  H   -0.24060056399315     -0.69829807942245     -1.31657652239466
  H   0.26136365835782     -0.99420817449074      1.14394225952502
  H   -0.28782428440794      1.08218835659747     -1.05906682905919
  N   1.87975883325651     -0.09145412062829      0.15202410935738
  O   2.16304348486358     -1.07412935617391     -0.52563414476449
  O   2.61361771733186      0.83019828585980      0.47243847840004
  N   -1.86763941308248      0.00486893844449     -0.20407648594887
  O   -2.16142781483270     -0.90428253549837      0.56680736088379
  O   -2.63988935472568      0.81382402219506     -0.70453304356363
