12
Coordinates from ORCA-job run
  C   0.47020394615718      0.26162085650896      0.53779097081595
  C   -0.45545301971767     -0.21730632448504     -0.55173455939547
  F   0.42483739475649      1.60755828398996      0.63753340264208
  H   -0.36842679871472     -1.29546759221052     -0.68349293619368
  H   0.25586267821543     -0.19303789702923      1.50358531037002
  H   -0.27125100233543      0.31301922690595     -1.48497135569327
  N   1.87382732248814     -0.16437150792520      0.16186801063830
  O   2.68971633407567      0.70402390212768     -0.10405874145443
  O   2.04472651203414     -1.37921575860518      0.16098178542779
  N   -1.87075350138428      0.06285338166098     -0.15559739727661
  O   -2.60871274205499      0.52598158776188     -1.01706843048219
  O   -2.18457712351997     -0.22765815870024      0.99516394060151
