12
Coordinates from ORCA-job run
  C   0.44239161447717     -0.20809019763751      0.58458293740214
  C   -0.44100336986660      0.24614657556422     -0.54969218241601
  F   0.06681999590688      0.38081114110191      1.74007438711441
  H   -0.50055596904605      1.33286086523578     -0.58985808163742
  H   0.45539653905647     -1.29034035606349      0.70235240350856
  H   -0.09524092203860     -0.16753209576333     -1.49662286185621
  N   1.85995660158945      0.20691449037975      0.25038547822671
  O   2.33435188052859     -0.36996284503757     -0.72288213833011
  O   2.39411895525281      1.05423151717707      0.94848524992673
  N   -1.83068130377110     -0.26401331278356     -0.33102424739052
  O   -2.74984285720185      0.51330164794105     -0.55924379141059
  O   -1.93571116488718     -1.43432743011430      0.02444284686230
