12
Coordinates from ORCA-job run
  C   0.73414195722614     -0.51801550448564     -0.22776164519528
  C   -0.74455741418169     -0.52172022043029      0.08910153029738
  F   1.24692114588218     -1.75346780699173     -0.01695522535019
  H   -0.94033152907561     -0.49751228544239      1.15859999019512
  H   0.93655279788748     -0.19626209041249     -1.24915696782547
  H   -1.18752172153516     -1.41322087008101     -0.35863070206880
  N   1.44949070105164      0.46118185862315      0.67535243475674
  O   2.53581341563064      0.13636905571748      1.12717403699684
  O   0.86263231473604      1.52799295607718      0.83024144367439
  N   -1.44663253760422      0.64896830293562     -0.51883624736273
  O   -1.11437018878537      0.96035594512879     -1.65828708608277
  O   -2.33213894123206      1.16733065936134      0.14815843796477
