12
Coordinates from ORCA-job run
  C   0.67164085781705     -0.63453666415278      0.16061375261565
  C   -0.79538181248020     -0.37420351526379      0.37830049611910
  F   1.14122296080338     -1.33892388913884      1.23189034973818
  H   -1.33717819537035     -1.31882532325591      0.44374211777080
  H   0.91065705998549     -1.16065832495334     -0.75976637818529
  H   -0.95611108000503      0.20793430430223      1.28258134480161
  N   1.45143103773079      0.65658064116553      0.12201960737930
  O   0.99685944037817      1.60551544179167      0.75468264364920
  O   2.50866356589517      0.62181641397744     -0.49711692775504
  N   -1.38220128511772      0.39488078749601     -0.75609240476747
  O   -0.67863772619116      0.55291351278003     -1.75278437988504
  O   -2.53096482344560      0.78850661525177     -0.60807022148099
