13

C	0.0	0.0	0.0
C	-0.448138	-0.127388	-1.483581
Br	1.943479	0.0	0.0
H	0.446659	-0.269465	-2.100261
H	-0.292072	0.975284	0.373487
C	-0.482784	-1.047936	0.892812
N	-0.547563	-1.933941	1.670742
N	-1.050656	1.132754	-1.901262
H	-1.915462	1.152233	-1.344317
H	-1.299716	1.056374	-2.884182
C	-1.289463	-1.317043	-1.727549
N	-1.79059	-2.274741	-2.198698
H	-2.293803	0.0	0.0
