13

C	0.0	0.0	0.0
C	-0.442602	-0.079139	-1.489802
Br	1.943583	0.0	0.0
H	0.457098	-0.190759	-2.10549
H	-0.292046	0.963683	0.400942
C	-0.484213	-1.074644	0.858662
N	-0.543025	-1.985088	1.608053
N	-1.048854	1.194094	-1.865487
H	-1.9158	1.18968	-1.311425
H	-1.295736	1.151344	-2.85179
C	-1.27164	-1.264368	-1.780962
N	-1.781237	-2.225535	-2.232743
H	-2.289057	0.0	0.0
