15

C	-0.435899	0.090459	-1.46673
C	0.0	0.0	0.0
F	-0.226712	-1.142747	-2.082378
H	1.09622	0.0	0.0
H	-1.519325	0.277158	-1.517952
C	0.351745	1.139581	-2.218211
H	0.134348	2.137908	-1.83156
H	0.086217	1.112504	-3.277744
H	1.418922	0.940472	-2.096937
C	-0.544228	-1.219463	0.606958
N	-1.037858	-2.175492	1.076229
N	-0.408867	1.167256	0.783199
H	0.336523	1.84994	0.754555
H	-1.258332	1.579986	0.418199
Cl	3.37036	0.0	0.0
