15

C	-0.488678	0.07762	-1.44671
C	0.0	0.0	0.0
F	-0.342271	-1.177137	-2.04071
H	1.094922	0.0	0.0
H	-1.563481	0.300082	-1.455039
C	0.299601	1.093698	-2.234271
H	-0.033798	1.105401	-3.275079
H	0.156852	2.081002	-1.795815
H	1.359764	0.840075	-2.185429
C	-0.498635	-1.220381	0.650197
N	-0.955732	-2.131867	1.234012
N	-0.423771	1.217194	0.700612
H	0.262309	1.427923	1.41581
H	-1.319643	1.072811	1.152341
Cl	3.388279	0.0	0.0
