15

C	-0.512618	0.074716	-1.434372
C	0.0	0.0	0.0
F	-0.336155	-1.168375	-2.044268
H	1.100815	0.0	0.0
H	-1.592985	0.264642	-1.419481
C	0.225059	1.128139	-2.226245
H	-0.138154	1.143368	-3.256965
H	0.060866	2.105476	-1.769722
H	1.294539	0.907178	-2.210059
C	-0.490416	-1.211201	0.664446
N	-0.963719	-2.114563	1.247185
N	-0.41591	1.216847	0.715528
H	0.383195	1.557653	1.236367
H	-1.164845	1.019774	1.363638
Cl	3.363188	0.0	0.0
