15

C	-0.386739	0.026554	-1.470019
C	0.0	0.0	0.0
F	-1.77392	-0.045317	-1.622299
H	1.103028	0.0	0.0
H	-0.078969	1.000175	-1.870268
C	0.26277	-1.09443	-2.246441
H	-0.107441	-2.058097	-1.888979
H	1.345346	-1.054228	-2.104951
H	0.02453	-1.002818	-3.308585
C	-0.497754	-1.222748	0.631514
N	-0.896553	-2.203598	1.138543
N	-0.545781	1.171705	0.713201
H	-0.052538	1.977387	0.336338
H	-0.23086	1.102585	1.676909
Cl	3.383153	0.0	0.0
