15

C	-0.440127	0.096214	-1.464533
C	0.0	0.0	0.0
F	-0.320756	-1.212744	-1.976269
H	1.087479	0.0	0.0
H	-0.381801	0.863306	0.545681
N	-1.766361	0.587037	-1.601663
H	-2.385504	0.036204	-1.019713
H	-2.03393	0.500436	-2.574734
N	0.440191	0.902757	-2.252705
H	1.403673	0.631241	-2.064285
H	0.325725	1.869316	-1.975697
N	-0.574466	-1.20107	0.649843
O	0.169482	-2.104408	1.007218
O	-1.806836	-1.214789	0.777448
Br	3.558708	0.0	0.0
