15

C	-0.483017	0.16759	-1.432598
C	0.0	0.0	0.0
F	-1.893409	0.380022	-1.343812
H	1.090226	0.0	0.0
H	-0.350763	0.852748	0.579274
N	0.045356	1.372111	-2.015582
H	-0.182679	2.162738	-1.423279
H	1.056675	1.272818	-2.038174
N	-0.157141	-0.898666	-2.283293
H	-0.566214	-0.742457	-3.193404
H	-0.406058	-1.791477	-1.886503
N	-0.514539	-1.187799	0.72506
O	-0.557808	-2.273095	0.141466
O	-0.850873	-1.024472	1.896578
Br	3.487955	0.0	0.0
