15

C	-0.364749	0.018996	-1.474671
C	0.0	0.0	0.0
F	-1.746367	0.147131	-1.638071
H	1.087773	0.0	0.0
H	-0.420826	0.874656	0.484648
N	0.190892	1.255998	-1.978656
H	-0.037295	1.342699	-2.963065
H	1.201244	1.220998	-1.869184
N	0.025094	-1.198749	-2.124703
H	0.282642	-1.005685	-3.083247
H	0.815593	-1.619562	-1.651383
N	-0.509055	-1.188642	0.715918
O	-1.430239	-1.016	1.516993
O	0.018804	-2.274193	0.481393
Br	3.486506	0.0	0.0
