15

C	-0.365326	-0.034327	-1.48175
C	0.0	0.0	0.0
F	-1.737123	-0.313709	-1.584517
H	1.089277	0.0	0.0
H	-0.403637	-0.883039	0.489813
N	-0.074793	1.186129	-2.1379
H	0.588884	1.749518	-1.624297
H	0.258368	0.988082	-3.070608
N	0.298253	-1.142626	-2.132461
H	1.297947	-1.053644	-1.956827
H	-0.012277	-2.016457	-1.721109
N	-0.527996	1.168773	0.735515
O	-0.048676	2.272713	0.478034
O	-1.41467	0.968791	1.568091
Br	3.482595	0.0	0.0
