15

C	-0.407083	-0.205379	-1.455188
C	0.0	0.0	0.0
F	0.109207	0.918323	-2.129159
H	1.08774	0.0	0.0
H	-0.435501	0.918646	0.387118
N	0.231986	-1.394643	-1.915898
H	0.136036	-1.465633	-2.922362
H	1.223619	-1.349607	-1.688155
N	-1.824835	-0.161242	-1.668221
H	-2.039844	-0.531826	-2.586962
H	-2.276391	-0.737829	-0.969975
N	-0.498092	-1.125591	0.832152
O	-1.715424	-1.160293	1.056881
O	0.303032	-1.955067	1.243096
Br	3.559242	0.0	0.0
