15

C	-0.568986	0.035865	-1.405654
C	0.0	0.0	0.0
F	-1.990774	0.201708	-1.295164
H	1.093585	0.0	0.0
C	-0.123299	1.242936	-2.130259
N	0.214926	2.167979	-2.767072
N	-0.24849	-1.114311	-2.153938
H	-0.744713	-1.129374	-3.034836
H	-0.432021	-1.958138	-1.627155
C	-0.458222	-1.220964	0.658873
N	-0.815429	-2.209194	1.189745
N	-0.349552	1.222108	0.706101
H	0.449242	1.471884	1.281022
H	-1.172977	1.117118	1.28068
H	2.641145	0.0	0.0
