15

C	-0.46312	0.059591	-1.44926
C	0.0	0.0	0.0
F	-1.864354	0.408412	-1.454451
H	1.094497	0.0	0.0
C	0.166339	1.194358	-2.157936
N	0.592693	2.101889	-2.76767
N	-0.234034	-1.134024	-2.153918
H	-0.564888	-1.936774	-1.634927
H	-0.641056	-1.105369	-3.078651
C	-0.520084	-1.219941	0.605733
N	-0.894926	-2.24627	1.043119
N	-0.356778	1.176553	0.771832
H	-1.165898	1.64511	0.387835
H	0.448943	1.794702	0.760989
H	2.621049	0.0	0.0
