15

C	-0.541374	-0.000401	-1.417796
C	0.0	0.0	0.0
F	-1.956479	0.216784	-1.346364
H	1.093848	0.0	0.0
C	-0.038677	1.160834	-2.179718
N	0.291051	2.053275	-2.866343
N	-0.243097	-1.189228	-2.114756
H	-0.489736	-2.004251	-1.568949
H	-0.704824	-1.209691	-3.013659
C	-0.472943	-1.2012	0.684127
N	-0.846917	-2.172151	1.235555
N	-0.357615	1.242948	0.661905
H	0.411133	1.489974	1.277791
H	-1.217003	1.169232	1.188047
H	2.641265	0.0	0.0
