15

C	-0.302428	-0.046514	-1.492892
C	0.0	0.0	0.0
F	-1.657732	-0.305658	-1.717514
H	1.102447	0.0	0.0
C	-0.022011	1.275494	-2.09824
N	0.168264	2.296689	-2.643311
N	0.462935	-1.053831	-2.180623
H	0.201853	-1.950294	-1.777919
H	1.440588	-0.890148	-1.913913
C	-0.441366	-1.248003	0.615887
N	-0.787936	-2.238889	1.14764
N	-0.46777	1.201149	0.661137
H	-1.345529	1.055102	1.14137
H	0.239175	1.491447	1.329084
H	2.668274	0.0	0.0
