15

C	-0.334119	-0.215479	-1.48121
C	0.0	0.0	0.0
F	-0.172826	-1.560673	-1.76742
H	1.103094	0.0	0.0
C	-1.750002	0.131684	-1.766059
N	-2.874141	0.417932	-1.947783
N	0.539777	0.533559	-2.335011
H	1.482278	0.391158	-1.952101
H	0.327422	1.515059	-2.19075
C	-0.557149	-1.017114	0.877846
N	-1.021716	-1.797679	1.625923
N	-0.352505	1.370297	0.358565
H	0.393253	1.736999	0.941401
H	-1.226088	1.415445	0.86736
H	2.693742	0.0	0.0
