15

C	-0.507821	0.02225	-1.441309
C	0.0	0.0	0.0
F	-0.104545	1.182066	-2.056626
H	1.095118	0.0	0.0
C	0.093072	-1.097696	-2.223362
N	0.440709	-2.002081	-2.887875
N	-1.949971	-0.002837	-1.499449
H	-2.248451	-0.08463	-2.465553
H	-2.294154	-0.808881	-0.990865
C	-0.476946	-1.222913	0.640343
N	-0.905131	-2.187895	1.161875
N	-0.368695	1.21767	0.697521
H	0.427184	1.478065	1.271881
H	-1.19089	1.104526	1.273258
H	2.655245	0.0	0.0
