15

C	-0.443866	-0.015047	-1.464569
C	0.0	0.0	0.0
F	0.027577	1.127241	-2.084011
H	1.096596	0.0	0.0
C	0.130983	-1.167088	-2.207551
N	0.454622	-2.098829	-2.846404
N	-1.883417	0.03545	-1.569957
H	-2.288375	-0.720688	-1.028999
H	-2.163131	-0.073708	-2.538553
C	-0.536747	-1.188095	0.653926
N	-0.988257	-2.158582	1.14351
N	-0.394112	1.217692	0.688126
H	0.403286	1.843401	0.623754
H	-1.186994	1.642804	0.222509
H	2.65862	0.0	0.0
