15

C	-0.466488	-0.172035	-1.43797
C	0.0	0.0	0.0
F	-1.876641	0.135012	-1.485993
H	1.103443	0.0	0.0
C	0.124643	0.860475	-2.317038
N	0.486969	1.68728	-3.067874
N	-0.206229	-1.452653	-1.955814
H	-0.505063	-2.1743	-1.313612
H	-0.626679	-1.578991	-2.865959
C	-0.518024	-1.111073	0.788303
N	-0.906963	-2.054226	1.375294
N	-0.358903	1.282087	0.579032
H	0.447351	1.890387	0.473714
H	-1.165676	1.687065	0.123883
H	2.615979	0.0	0.0
