17

C	-0.391647	0.012247	-1.47956
C	0.0	0.0	0.0
Cl	0.317733	1.439601	-2.330679
H	1.096471	0.0	0.0
C	0.099944	-1.184697	-2.173484
N	0.470789	-2.134165	-2.756889
C	-1.849495	0.083177	-1.665282
N	-3.022477	0.13428	-1.734006
C	-0.475694	-1.293328	0.650571
H	-0.132351	-1.290916	1.688551
H	-0.024611	-2.165519	0.171476
H	-1.568686	-1.408426	0.651611
C	-0.531685	1.219009	0.733493
H	-0.180102	2.144208	0.273903
H	-0.133832	1.196782	1.751607
H	-1.628713	1.244573	0.792737
F	2.594249	0.0	0.0
