17

C	-0.263534	0.000635	-1.485422
C	0.0	0.0	0.0
Cl	-2.071179	0.002889	-1.930865
H	1.098384	0.0	0.0
C	0.296066	1.191715	-2.132477
N	0.731232	2.141867	-2.669104
C	0.291997	-1.192226	-2.132712
N	0.722906	-2.143763	-2.670392
C	-0.495984	-1.265794	0.673397
H	-0.058276	-2.154997	0.212682
H	-1.589297	-1.358994	0.658688
H	-0.164481	-1.252156	1.715076
C	-0.494796	1.265415	0.674773
H	-0.05666	2.154807	0.214801
H	-1.588022	1.359378	0.661063
H	-0.162572	1.25015	1.716159
F	2.558845	0.0	0.0
