17

C	-0.264073	-0.001604	-1.485237
C	0.0	0.0	0.0
Cl	-2.071613	0.000455	-1.930138
H	1.098329	0.0	0.0
C	0.295211	1.188451	-2.134581
N	0.727962	2.137592	-2.675118
C	0.291753	-1.195314	-2.13081
N	0.723617	-2.147413	-2.666597
C	-0.494473	-1.264991	0.675709
H	-0.05619	-2.154554	0.21603
H	-1.587752	-1.359324	0.662462
H	-0.161635	-1.249198	1.716933
C	-0.493767	1.266108	0.67425
H	-0.160465	1.251619	1.715346
H	-0.055412	2.154925	0.213257
H	-1.586993	1.360752	0.661398
F	2.558881	0.0	0.0
