14
Coordinates from ORCA-job run
  C   -0.66059920123506     -0.23328310076715     -0.55752078672986
  C   0.27915158419356      0.29835879233412      0.52681370881701
  Br  -2.28126725409275      0.93485798297188     -0.64457109037420
  H   -0.21494134853125      0.28706730885589      1.50013193607993
  H   -0.18826841719567     -0.11464297757614     -1.53260526549616
  N   -0.94654678349332     -1.59932663140115     -0.30135807893703
  H   -1.54216192300489     -1.70433123310170      0.51160228516549
  H   -1.40147904913768     -2.03858990884515     -1.09049544748076
  N   0.59422506566278      1.73522772091581      0.24155552423640
  O   0.29492684863799      2.57385507662334      1.08203626622869
  O   1.15799207165283      1.94548250605957     -0.83111446585332
  N   1.54289929248688     -0.38604509544811      0.59594699523679
  H   1.99630486560543     -0.33786951015117     -0.31038518171734
  H   1.36976424845114     -1.36076093047004      0.80796360082434
