14
Coordinates from ORCA-job run
  C   -0.53487254617623     -0.82072843745193      0.25240505467290
  C   0.66733727705207      0.12432522881401      0.36960045729151
  Br  0.17895438542338     -2.63654471262602      0.13290636203924
  H   1.35912776621226     -0.22980381714716      1.13324535637533
  H   -1.11201798559840     -0.81028876279007      1.18338641416497
  N   -1.28277985896830     -0.55016736286646     -0.95064351344775
  H   -1.98187180786535     -1.26544779098805     -1.10342010170344
  H   -1.73900620794824      0.34947796914905     -0.84169863794416
  N   0.16565159489414      1.44848550200926      0.94665590612511
  O   0.90716340013884      2.02051091270001      1.73650908781253
  O   -0.92038650431720      1.87208143433816      0.54953489366065
  N   1.31274511598195      0.40046913156563     -0.86414645079522
  H   2.24059789585498      0.01165307690299     -0.90826155844675
  H   0.73935747531610      0.08497762839058     -1.63707326980493
