14
Coordinates from ORCA-job run
  C   -0.76158650282718     -0.20401545735607     -0.57330230830239
  C   0.22759095034847      0.23018074747651      0.50397325035552
  Br  -2.34862913887063      1.04343263897885     -0.39539462676844
  H   -0.26901101001798      0.40781154043605      1.45848805319670
  H   -0.37929145066424      0.05181675974609     -1.55985189391049
  N   -1.06082361088358     -1.57163939662926     -0.49681520431930
  H   -1.34848167739013     -1.86767088790777      0.42599570081179
  H   -1.74123247807381     -1.85598048303184     -1.18759133655019
  N   0.75091262479574      1.61261542498729      0.10664996841256
  O   1.24707768309405      1.71186956905708     -1.01374768238265
  O   0.71602205930499      2.49189208316038      0.96288443310734
  N   1.27771209467127     -0.71510701055749      0.66140806466231
  H   1.96849267149487     -0.39703773772667      1.32923733148750
  H   1.71924778501816     -0.93816779063313     -0.22093374980026
