15

C	-0.430005	0.024704	-1.443838
C	0.0	0.0	0.0
Cl	0.312189	-1.278155	-2.389075
H	1.093188	0.0	0.0
H	-0.353181	0.935785	0.448614
N	-1.96787	-0.135332	-1.510274
O	-2.441525	-1.247197	-1.69455
O	-2.602045	0.882205	-1.243038
C	-0.120616	1.299052	-2.090421
N	0.123213	2.323679	-2.611043
C	-0.510939	-1.208523	0.767443
H	-1.595668	-1.21439	0.927797
H	-0.01685	-1.215507	1.741599
H	-0.232708	-2.134058	0.25969
F	2.589871	0.0	0.0
