15

C	0.0	0.0	0.0
C	-0.541368	-0.406867	-1.354656
F	1.360964	0.0	0.0
H	-1.623894	-0.233741	-1.316477
H	-0.383407	-1.49573	-1.437268
N	-0.294083	1.518923	0.185865
O	-1.441	1.820778	0.477773
O	0.644749	2.293964	0.033399
N	-0.5621	-0.651186	1.127799
H	-1.55565	-0.392085	1.131465
H	-0.528264	-1.650569	0.965427
N	0.052977	0.385348	-2.419709
H	0.991978	0.068262	-2.61861
H	-0.504652	0.301561	-3.256164
Cl	-3.947588	0.0	0.0
