15

C	0.0	0.0	0.0
C	-0.497676	-0.198411	-1.410551
F	1.401593	0.0	0.0
H	-1.576913	-0.017565	-1.396377
H	-0.002736	0.54149	-2.046026
N	-0.251936	1.437348	0.482348
O	-0.426688	2.308185	-0.36426
O	-0.168394	1.621572	1.691424
N	-0.543173	-0.883278	0.89297
H	-0.82075	-1.752741	0.468598
H	-0.096873	-0.936446	1.790947
N	-0.229525	-1.588847	-1.791328
H	0.721817	-1.675339	-2.126591
H	-0.85611	-1.856131	-2.538096
Cl	-3.897265	0.0	0.0
