15

C	0.0	0.0	0.0
C	-0.541982	0.096585	-1.411549
F	1.351438	0.0	0.0
H	-1.627647	0.200032	-1.332794
H	-0.321782	-0.880486	-1.849422
N	-0.281413	1.331042	0.783998
O	-0.00904	1.292382	1.982822
O	-0.702573	2.317319	0.189884
N	-0.531753	-1.095098	0.687855
H	-1.551381	-1.06262	0.583316
H	-0.297865	-1.020204	1.671166
N	0.127694	1.130023	-2.204421
H	-0.357223	2.003274	-2.047352
H	0.019431	0.891922	-3.181788
Cl	-3.697459	0.0	0.0
