15

C	0.0	0.0	0.0
C	-0.546538	0.236328	-1.389467
F	1.347585	0.0	0.0
H	0.058471	1.022625	-1.842411
H	-1.574823	0.587346	-1.278376
N	-0.255635	1.314564	0.838616
O	-0.218091	2.389855	0.249023
O	-0.377717	1.174719	2.052973
N	-0.544494	-1.116725	0.628005
H	-0.281485	-1.125993	1.60599
H	-1.566281	-1.029946	0.564836
N	-0.415362	-0.993793	-2.180547
H	-0.964412	-1.706515	-1.713212
H	-0.879118	-0.820038	-3.065814
Cl	-3.640733	0.0	0.0
