15

C	0.0	0.0	0.0
C	-0.561149	-0.182674	-1.388888
F	1.394304	0.0	0.0
H	-1.612059	0.106761	-1.318302
H	-0.040109	0.517789	-2.048058
N	-0.219576	1.505286	0.414493
O	-0.117993	2.361278	-0.459409
O	-0.38221	1.733985	1.609686
N	-0.491049	-0.87868	0.949931
H	-0.386123	-0.476	1.871501
H	-1.480322	-1.038492	0.768889
N	-0.479281	-1.579383	-1.800935
H	0.387873	-1.754371	-2.289241
H	-1.251692	-1.78226	-2.419947
Cl	-3.710223	0.0	0.0
