14

C	-0.396099	0.271554	-1.425651
C	0.0	0.0	0.0
Br	0.178218	2.013399	-2.028457
H	1.099121	0.0	0.0
H	0.050165	-0.456593	-2.101913
N	-1.887901	0.193615	-1.68523
O	-2.646967	0.392489	-0.739811
O	-2.239731	-0.070244	-2.833193
C	-0.45194	-1.344138	0.352727
N	-0.811771	-2.421006	0.663681
N	-0.393241	1.033826	0.938326
H	0.34062	1.10422	1.631141
H	-1.281159	0.841472	1.379847
F	2.520531	0.0	0.0
