14

C	-0.343052	0.115325	-1.452509
C	0.0	0.0	0.0
Br	-2.26806	0.200331	-1.85092
H	1.094497	0.0	0.0
H	0.089878	1.031593	-1.84102
N	0.219029	-1.001205	-2.28073
O	0.790498	-0.675088	-3.318005
O	0.057252	-2.146556	-1.879975
C	-0.555703	-1.152236	0.688397
N	-1.003209	-2.014024	1.353497
N	-0.338794	1.271613	0.646601
H	0.435138	1.490102	1.263533
H	-1.187131	1.19613	1.193562
F	2.504917	0.0	0.0
