14

C	-0.271918	0.177739	-1.488056
C	0.0	0.0	0.0
Br	0.295671	1.909636	-2.131867
H	1.093335	0.0	0.0
H	0.269066	-0.571584	-2.065128
N	-1.724193	0.016928	-1.8499
O	-2.540351	0.735585	-1.274192
O	-2.002464	-0.866186	-2.662033
C	-0.507253	-1.315457	0.372826
N	-0.910968	-2.384583	0.649189
N	-0.449763	1.027227	0.912115
H	0.287251	1.71767	0.977988
H	-1.308105	1.462601	0.600095
F	2.52077	0.0	0.0
