17
Coordinates from ORCA-job run
  C   -0.63231394774567     -0.52364593165051      0.26405441432401
  C   0.83309472888258     -0.49925027880280     -0.18707700517838
  F   -1.03535554366631     -1.83004477184059      0.30730210618632
  H   1.33883348476933     -1.24748640316210      0.43362052200994
  N   -0.60905415826439     -0.05081759344250      1.71519291583133
  O   -0.09078880808739     -0.81970878274865      2.51704864935366
  O   -1.05158777697746      1.06826134773503      1.95727548446205
  C   -1.61057362801710      0.27397522249102     -0.55010447984433
  H   -2.60092862742374      0.19431899476550     -0.10130332373346
  H   -1.33511781728231      1.32512733024772     -0.59718179271642
  H   -1.64198614142927     -0.14451001897451     -1.55699262064719
  C   1.51120890032518      0.86272703899102     -0.01033357989702
  H   2.54222540810594      0.80310294674271     -0.36074710017495
  H   1.00169453421928      1.63823772171634     -0.58343110758946
  H   1.52783770521806      1.15294243678359      1.04106454841811
  C   0.89934409500956     -0.94147181799700     -1.58006799230986
  N   0.95346759236371     -1.26175744085427     -2.70831963849436
