17
Coordinates from ORCA-job run
  C   -0.59119760512150     -0.33918967961395      0.29723432524328
  C   0.71284236095514     -0.13922141910806     -0.49340057555063
  F   -0.44225687252048     -1.44150102887346      1.10359487963262
  H   0.66555286816783     -0.90069779842779     -1.28183723868294
  N   -0.81934863125851      0.81825538640292      1.27445370702974
  O   0.17494352693409      1.27196752519766      1.83226805142272
  O   -1.97842926724080      1.16587202959655      1.47591795194103
  C   -1.80062208255438     -0.51655922174480     -0.57909110870879
  H   -2.68193696406036     -0.68823863671488      0.03510604083341
  H   -1.96681960154010      0.36866667326200     -1.19392935430743
  H   -1.63562232253008     -1.38147964967499     -1.22377986979378
  C   2.02568837060613     -0.35005789558813      0.27052473944987
  H   2.84499638710194     -0.39730234750478     -0.44922432871011
  H   1.98475510771818     -1.29539238546223      0.81127155103625
  H   2.21396225910905      0.45554951073285      0.97350950908652
  C   0.66679240539497      1.16291852331677     -1.15988367172082
  N   0.62570006083888      2.20841041420434     -1.69273460820093
