17
Coordinates from ORCA-job run
  C   -0.65095669373064     -0.51227359863542      0.23948102405514
  C   0.80282413052948     -0.52173506083319     -0.24843464431869
  F   -1.11637208946485     -1.79786776732567      0.19478101214048
  H   1.28487283064897     -1.34069581387648      0.29730002981553
  N   -0.57084739406159     -0.15437607162754      1.72114326966431
  O   -0.95805144328120      0.96001058860566      2.06018191352463
  O   -0.06683896376770     -1.00393017168863      2.44711736861770
  C   -1.60804728760809      0.39030957416051     -0.48535171887731
  H   -2.58963212407939      0.32557599484462     -0.01547347280553
  H   -1.68539074256827      0.04993445507828     -1.51883554372592
  H   -1.28138764493193      1.42758523484673     -0.46359879422842
  C   1.55181750012913      0.78751519044226      0.01829666077419
  H   1.61349803799171      0.98562593935392      1.08920835323199
  H   1.06439490535282      1.63201312683526     -0.47031691187763
  H   2.56794167041903      0.71026425517850     -0.37009562069684
  C   0.81466417140573     -0.85321004629683     -1.67319424000775
  N   0.82751113701679     -1.08474582906199     -2.82420868528587
