17
Coordinates from ORCA-job run
  C   -0.56840732818966     -0.45674939647198      0.26463264368515
  C   0.69918464409297     -0.21038380757492     -0.56522805246197
  F   -0.42531565541136     -1.67917609148817      0.85331704883279
  H   0.79533351099129     -1.11326674094150     -1.18090955099445
  N   -0.59711968554780      0.56914385202941      1.38911065783368
  O   -0.76244264182601      1.72841531287405      1.02149414094880
  O   -0.42979083620386      0.17698059597238      2.53512169733750
  C   -1.87249642135909     -0.40085134799507     -0.48576789918377
  H   -2.68659100820556     -0.65729913717022      0.19512653600286
  H   -1.84790580899374     -1.13358555067566     -1.29489644677682
  H   -2.04036223577882      0.59240704540484     -0.89798520202408
  C   1.94797353221158     -0.06525267215309      0.31077350301559
  H   2.00148949762148     -0.89095821042753      1.02125038354632
  H   1.92911774738271      0.87797315507431      0.85905670821990
  H   2.84214325794928     -0.07877630509897     -0.31343330416929
  C   0.54914234748440      0.92353739463021     -1.47651361846562
  N   0.46804708378218      1.81684190401191     -2.23414924534656
