12

C	0.0	0.0	0.0
C	-0.232056	0.131812	-1.547255
Cl	1.791599	0.0	0.0
H	0.469701	-0.579601	-1.991967
H	0.135107	1.13078	-1.804878
C	-0.441973	1.155574	0.779463
N	-0.50694	2.142614	1.416135
C	-0.432011	-1.286068	0.548477
N	-0.496341	-2.375574	0.988859
C	-1.491256	-0.086595	-2.262781
N	-2.14328	-0.246588	-3.233372
Br	-3.129514	0.0	0.0
