12

C	0.0	0.0	0.0
C	-0.232587	-0.013929	-1.549588
Cl	1.791192	0.0	0.0
H	0.272769	-0.922716	-1.892809
H	0.365581	0.821962	-1.925864
C	-0.410725	1.225197	0.6818
N	-0.713141	2.188667	1.280651
C	-0.38293	-1.230625	0.698286
N	-0.660178	-2.193737	1.310867
C	-1.520168	0.048614	-2.246911
N	-2.175742	0.098418	-3.22712
Br	-3.223697	0.0	0.0
