12

C	0.0	0.0	0.0
C	-0.499421	0.31109	-1.422861
Cl	1.788149	0.0	0.0
H	-1.603012	0.307976	-1.358904
H	-0.166041	-0.491396	-2.086187
C	-0.419431	1.019337	0.968634
N	-0.614848	1.833378	1.793257
C	-0.441904	-1.33763	0.409361
N	-0.598216	-2.463699	0.710527
C	-0.003671	1.591671	-1.907244
N	0.3852	2.615924	-2.330126
Br	-3.479576	0.0	0.0
