12

C	0.0	0.0	0.0
C	-0.216594	0.194653	-1.544111
Cl	1.791264	0.0	0.0
H	0.369469	-0.605164	-2.006794
H	0.300391	1.130191	-1.779381
C	-0.443906	1.130422	0.813075
N	-0.506715	2.105181	1.468518
C	-0.436746	-1.30334	0.499616
N	-0.50948	-2.409815	0.893238
C	-1.49453	0.227444	-2.259621
N	-2.153659	0.287898	-3.23592
Br	-3.130418	0.0	0.0
