14
Coordinates from ORCA-job run
  C   0.80842033034796      0.42134430030987     -0.37025013300495
  C   -0.36035890216487     -0.41512775790307      0.13214775105553
  F   1.72265728443554     -0.52744538251132     -0.92465071873006
  H   0.07563091121377     -1.17841809758266      0.79626956438496
  H   0.50431048181639      1.03108032964293     -1.22480376543146
  N   1.39174933453262      1.22286048010691      0.62441568383276
  H   1.52925503877928      0.72049546027652      1.48995578561413
  H   2.26061941659409      1.63041873528802      0.30830523151200
  N   -1.00141588633932     -0.99632580233253     -1.04994217934412
  H   -0.30032358124981     -1.47761849487601     -1.60319908137093
  H   -1.67998857647787     -1.69003673713039     -0.75649314146236
  N   -1.25981262569248      0.37805638442044      0.93628765541901
  H   -2.00584317758813     -0.20792047430960      1.29248843592538
  H   -1.68490004820716      1.08763705660090      0.34946891160012
