14
Coordinates from ORCA-job run
  C   0.71592414949867      0.58967260165434     -0.32813878462994
  C   -0.58427194231904      0.04654062734246      0.24662885306462
  F   0.78146022058048      0.28662228370546     -1.67803926008159
  H   -0.61298152648651      0.36795651599610      1.30188588791580
  H   0.69683336606615      1.68428575188110     -0.26655345939214
  N   1.85499848019981     -0.04410153652895      0.29170690912211
  H   2.70499854399265      0.29320276736583     -0.14402131524346
  H   1.88792345357455      0.20010431705708      1.27456034905250
  N   -0.60428437389192     -1.39918648403344      0.07972935065257
  H   0.33303034574691     -1.76503324167009      0.20592189504520
  H   -1.21592244486520     -1.82677470153631      0.76303827855237
  N   -1.67980076757753      0.72560035495870     -0.41941556109500
  H   -1.72450167282602      0.35364566069071     -1.36237865911218
  H   -2.55340583169301      0.48646508311701      0.03407551614912
