14
Coordinates from ORCA-job run
  C   0.74117312415218      0.40871212267828     -0.60966039654622
  C   -0.66032335485932     -0.13542964962451     -0.32624151385764
  F   1.28927021357690     -0.36058897101642     -1.63496855811503
  H   -1.23448030845255     -0.05961846768483     -1.26086053465869
  H   0.69128637332895      1.42877055359929     -1.02138911262791
  N   1.54912949961828      0.26962102709092      0.55855855749507
  H   2.40528748059241      0.80159804291679      0.48408455940204
  H   1.00821711530955      0.59399843947983      1.35214059492887
  N   -1.22398761595354      0.63342376589695      0.77798756843424
  H   -2.04917478553638      0.14301057336951      1.10084770082719
  H   -1.50323901994190      1.55695115240427      0.46724617800749
  N   -0.66620887906140     -1.52898720673980      0.07074256611132
  H   -0.40507269270017     -2.09420173544579     -0.72799958431575
  H   0.05812284992700     -1.65925964692448      0.76951197491504
