14
Coordinates from ORCA-job run
  C   0.67114527624970      0.74783968818439     -0.18729982130651
  C   -0.53537117401442     -0.08181944204700      0.23379985077539
  F   1.00960096650088      0.36238640437979     -1.50344076285070
  H   -0.74190750576107      0.19013295632671      1.27788591179692
  H   0.42242355891002      1.81167410389820     -0.25507144671000
  N   1.72707154665950      0.55149750516249      0.72669361549656
  H   2.57226961560421      1.01154243600232      0.41755447824960
  H   1.88295471583936     -0.44420424288851      0.83110572689234
  N   -0.13555454892323     -1.47694291330319      0.22510219818875
  H   -0.80596159602812     -2.04301490292009      0.72892379531655
  H   -0.12647479342993     -1.78238279095862     -0.74182347207994
  N   -1.65047911888972      0.17537321156630     -0.67329838645037
  H   -2.50469223427553     -0.19356502893624     -0.27238032353494
  H   -1.78302470844164      1.17148301553343     -0.80875136378364
