15
Coordinates from ORCA-job run
  C   0.97817631317339     -0.29437348009563     -0.11937119645359
  C   -0.47328238508791      0.16419011004962     -0.30553782385979
  Cl  1.74779489386537     -0.76947821185064     -1.63547040188270
  H   -0.46349195196831      0.90820936816351     -1.10754798744288
  H   1.06637075994241     -1.11828282629052      0.58840053635694
  N   1.75487121634095      0.83891416966243      0.49122348527422
  O   1.83143622774730      1.87626796731595     -0.15678982383660
  O   2.18586423414780      0.65518162212640      1.62723958261181
  N   -1.01737198959694      0.80184105483277      0.87914944241341
  H   -0.55654507605986      1.67806594098255      1.08728288376414
  H   -0.96209215830415      0.19824771541947      1.69068646362490
  C   -1.35083264817446     -1.01585746441310     -0.69494956532074
  H   -1.00601053546771     -1.50037328988450     -1.60849166896210
  H   -2.37077292698588     -0.66065650543750     -0.84199382574499
  H   -1.36411397357199     -1.76089617058080      0.10716989945797
