15
Coordinates from ORCA-job run
  C   1.01527399540492      0.56795453085195      0.05603699263087
  C   -0.38234989627197      0.18388684302030     -0.42870811131191
  Cl  1.01843399168074      1.23673261520111      1.68157366846964
  H   -0.22991949174764     -0.16529945638445     -1.45531322553259
  H   1.45153371060196      1.30114457533165     -0.61889998422470
  N   1.89747871689601     -0.65790375953675     -0.03364693762979
  O   2.19315679464292     -1.27770636245160      0.97768613715405
  O   2.19477986294691     -0.95822877690831     -1.18761075217263
  N   -1.15621046384155      1.41645422630271     -0.50790693179208
  H   -1.96732948070731      1.26981052695466     -1.09566954993633
  H   -1.48874797995408      1.67642245866940      0.41376131261627
  C   -1.00774417953550     -0.93692906888545      0.39602823572175
  H   -1.99749164002745     -1.16592414918496     -0.00546606698646
  H   -1.12353590579143     -0.63591971890752      1.43940440544618
  H   -0.41532803429652     -1.85449448407274      0.36973080754772
