15
Coordinates from ORCA-job run
  C   0.91801398956308      0.57459592337275      0.10780806433836
  C   -0.45384167134387      0.12713630145069     -0.43986950937035
  Cl  0.84420354059155      1.16132398565298      1.76271543140540
  H   -0.25262395898979     -0.17346286755683     -1.47367582425222
  H   1.34202019031069      1.36267556015367     -0.51397601823769
  N   1.88022804405896     -0.58398620438046     -0.02315914339744
  O   2.18321301855555     -1.24505961541983      0.95925519401138
  O   2.22462252922400     -0.79623904396090     -1.18415996334441
  N   -1.43094328814517      1.19655059474448     -0.47828246195494
  H   -1.10316595682312      1.97881257537514     -1.03214762714799
  H   -1.62986185324237      1.53034114677291      0.45715078060772
  C   -1.01528251041685     -1.06139435981217      0.32375771408908
  H   -1.96949337090608     -1.33735463638528     -0.12525828879404
  H   -0.34924719753302     -1.92472283229832      0.28851146296390
  H   -1.18784150490357     -0.80921652770883      1.37233018908323
