15
Coordinates from ORCA-job run
  C   0.98741091022983     -0.38996662117646      0.06060381121413
  C   -0.38435331037653      0.13802250105503     -0.32342009122592
  Cl  1.82620137116503     -1.17323050691916     -1.28690854024836
  H   -0.26534160201180      0.74125728555792     -1.23159937131374
  H   0.93012640453728     -1.08586430663575      0.89545919155196
  N   1.86437216164261      0.73775843740915      0.54059541102310
  O   2.61947431019727      0.48662423930926      1.47242032292864
  O   1.76796021624667      1.81055333615934     -0.04945424622557
  N   -0.84938881085406      0.90698857834195      0.82742134822978
  H   -1.85922931035839      0.88981281470206      0.88043562974678
  H   -0.55303647875332      1.87148782310059      0.75044436306405
  C   -1.33498776240354     -1.01906603292100     -0.58790312087156
  H   -1.47541882981997     -1.60106324636339      0.32704788174910
  H   -2.30782561590833     -0.63306137577910     -0.90202670420019
  H   -0.96596365353275     -1.67825292584042     -1.37311588542220
