18

C	-0.436591	-0.035714	-1.459433
C	0.0	0.0	0.0
F	-1.861976	-0.04712	-1.433375
H	1.095289	0.0	0.0
C	0.006408	1.185338	-2.227815
H	1.089671	1.296127	-2.133663
H	-0.465918	2.073484	-1.813779
H	-0.268455	1.065016	-3.278218
N	-0.021623	-1.237083	-2.127893
H	0.939958	-1.111477	-2.419293
H	-0.021221	-1.969526	-1.423022
N	-0.416802	-1.256582	0.634774
H	-1.387576	-1.193292	0.916546
H	0.153118	-1.413494	1.456083
N	-0.452621	1.234722	0.629424
H	-1.447466	1.173883	0.817134
H	0.040205	1.35643	1.505302
Cl	3.465935	0.0	0.0
