18

C	-0.37187	-0.007205	-1.482972
C	0.0	0.0	0.0
F	-1.760705	-0.203811	-1.583507
H	1.102236	0.0	0.0
C	-0.035026	1.293623	-2.176
H	-0.690976	2.086518	-1.81422
H	1.007697	1.559194	-1.986655
H	-0.190999	1.169965	-3.249046
N	0.255115	-1.110766	-2.164485
H	1.249644	-0.903595	-2.223336
H	0.173771	-1.904686	-1.535363
N	-0.459925	-1.239599	0.595023
H	0.086624	-1.442328	1.421332
H	-1.432621	-1.125767	0.853569
N	-0.557689	1.168411	0.70657
H	-0.100518	2.00186	0.344047
H	-0.229921	1.095403	1.6666
Cl	3.501211	0.0	0.0
