18

C	-0.499371	-0.027855	-1.444394
C	0.0	0.0	0.0
F	0.338406	0.860187	-2.161534
H	1.098511	0.0	0.0
C	-0.337942	-1.374336	-2.11729
H	-1.033321	-2.094961	-1.686881
H	-0.549315	-1.270909	-3.184574
H	0.692606	-1.717693	-2.00665
N	-1.846394	0.436704	-1.517452
H	-1.849951	1.362134	-1.093096
H	-2.102134	0.533439	-2.496124
N	-0.510673	-1.173673	0.740281
H	-0.092854	-1.104537	1.663357
H	-0.089778	-2.006513	0.336187
N	-0.463367	1.225075	0.635838
H	-1.29308	1.001613	1.176398
H	0.25799	1.576959	1.254096
Cl	3.631238	0.0	0.0
