18

C	-0.428224	-0.187266	-1.457006
C	0.0	0.0	0.0
F	-0.143274	-1.523899	-1.791676
H	1.099252	0.0	0.0
C	-1.908187	0.020143	-1.690171
H	-2.130924	-0.225857	-2.730138
H	-2.482398	-0.624688	-1.021418
H	-2.175778	1.060778	-1.500641
N	0.355692	0.629832	-2.352594
H	1.33602	0.435144	-2.144847
H	0.202987	1.590124	-2.058783
N	-0.579866	-1.045877	0.850711
H	-0.041917	-1.05354	1.712258
H	-0.386223	-1.933798	0.398967
N	-0.418611	1.3299	0.432745
H	-1.29059	1.2325	0.941657
H	0.281169	1.70456	1.059762
Cl	3.507238	0.0	0.0
