18

C	-0.421834	-0.001945	-1.465962
C	0.0	0.0	0.0
F	-1.847985	-7.4e-05	-1.454508
H	1.095652	0.0	0.0
C	0.03815	1.232046	-2.204047
H	-0.418135	2.117846	-1.764207
H	1.125218	1.321943	-2.111367
H	-0.243765	1.141719	-3.257069
N	-0.011124	-1.190572	-2.155765
H	0.959513	-1.070137	-2.426712
H	-0.035477	-1.941457	-1.471563
N	-0.421083	-1.269866	0.604847
H	-1.389126	-1.205026	0.898436
H	0.156018	-1.453257	1.416163
N	-0.460899	1.219821	0.649762
H	-1.466275	1.17253	0.776296
H	-0.020115	1.298846	1.557686
Cl	3.500201	0.0	0.0
