18

C	-0.481231	0.025605	-1.449304
C	0.0	0.0	0.0
F	-1.833922	0.515585	-1.441577
H	1.098797	0.0	0.0
C	0.327807	0.989459	-2.279551
H	-0.052024	1.01264	-3.306499
H	1.375493	0.684572	-2.268281
H	0.245645	1.98365	-1.841864
N	-0.473376	-1.288047	-1.990146
H	-0.797319	-1.263395	-2.948581
H	-1.1062	-1.851932	-1.434005
N	-0.510998	-1.229007	0.660635
H	0.171929	-1.961188	0.475255
H	-0.460764	-1.059341	1.660592
N	-0.434799	1.210592	0.65859
H	0.091605	1.337359	1.513707
H	-1.426713	1.152648	0.859414
Cl	3.558699	0.0	0.0
