19

C	-0.190338	-0.016351	-1.527854
C	0.0	0.0	0.0
Br	-2.139765	-0.257982	-2.002735
H	1.102935	0.0	0.0
C	0.250253	1.281353	-2.188035
H	0.216124	1.180762	-3.276846
H	-0.373112	2.129327	-1.901847
H	1.2863	1.46228	-1.879073
N	0.505647	-1.181957	-2.022609
H	0.564344	-1.144121	-3.034354
H	1.457275	-1.134887	-1.649792
N	-0.461402	-1.200549	0.681847
H	-1.440685	-1.341354	0.447303
H	0.042209	-1.991441	0.296903
C	-0.538414	1.233808	0.695855
H	-1.620235	1.330293	0.548959
H	-0.341528	1.126697	1.76345
H	-0.050741	2.145966	0.349108
Cl	3.456562	0.0	0.0
