19

C	-0.55093	-0.014214	-1.429162
C	0.0	0.0	0.0
Br	0.291617	-1.524765	-2.403158
H	1.099221	0.0	0.0
C	-2.055629	-0.264105	-1.49091
H	-2.380211	-0.305004	-2.533555
H	-2.330612	-1.18521	-0.980563
H	-2.572438	0.567334	-1.000064
N	-0.130645	1.184691	-2.135238
H	-0.664069	1.969192	-1.772965
H	-0.350322	1.088361	-3.121035
N	-0.517717	-1.175044	0.730693
H	-0.126509	-1.117393	1.666244
H	-0.074141	-1.991148	0.316359
C	-0.433116	1.258535	0.748493
H	-0.014766	2.151116	0.281211
H	-0.016945	1.217745	1.758876
H	-1.520877	1.341613	0.834479
Cl	3.615101	0.0	0.0
