19

C	-0.261594	0.010589	-1.508954
C	0.0	0.0	0.0
Br	-2.26635	-0.071068	-1.810527
H	1.104591	0.0	0.0
C	0.247577	1.268677	-2.182816
H	1.303953	1.383653	-1.913704
H	0.155456	1.159761	-3.26467
H	-0.302172	2.154393	-1.867137
N	0.300282	-1.143988	-2.15409
H	1.307793	-0.987037	-2.18071
H	0.14915	-1.92025	-1.513497
N	-0.423464	-1.284795	0.556926
H	0.18731	-1.516258	1.330591
H	-1.373101	-1.215416	0.904169
C	-0.506764	1.206329	0.774862
H	-0.08541	2.140343	0.39731
H	-1.599302	1.269387	0.735003
H	-0.198619	1.110101	1.819912
Cl	3.446684	0.0	0.0
