13

C	0.0	0.0	0.0
C	-0.396469	-0.073487	-1.538138
Cl	1.830444	0.0	0.0
H	0.527899	-0.055961	-2.125441
H	-0.32129	0.964928	0.38467
N	-0.453848	-1.025582	0.863393
H	-0.263987	-1.937542	0.462362
H	-1.471557	-0.901189	0.922626
C	-1.153619	1.093297	-1.993481
N	-1.565967	2.078798	-2.482015
C	-1.031282	-1.348172	-1.871518
N	-1.352361	-2.432298	-2.186119
Cl	-3.256979	0.0	0.0
