13

C	0.0	0.0	0.0
C	-0.534445	-0.331688	-1.401862
Cl	1.772385	0.0	0.0
H	-1.638838	-0.296681	-1.279891
H	-0.305212	1.029718	0.218712
N	-0.493706	-0.997484	0.904928
H	-1.516266	-0.915609	0.884871
H	-0.181259	-0.780577	1.844968
C	-0.129471	-1.667144	-1.83954
N	0.175799	-2.727329	-2.238986
C	-0.133674	0.669622	-2.389671
N	0.168039	1.480664	-3.183213
Cl	-3.461004	0.0	0.0
