13

C	0.0	0.0	0.0
C	-0.533409	-0.321041	-1.404393
Cl	1.772475	0.0	0.0
H	-1.638307	-0.289047	-1.28227
H	-0.307046	1.026914	0.227556
N	-0.493095	-1.006199	0.895221
H	-0.182091	-0.796232	1.836701
H	-1.515507	-0.925422	0.873851
C	-0.125268	-1.652615	-1.853121
N	0.185891	-2.708545	-2.261809
C	-0.134029	0.6902	-2.383208
N	0.166409	1.509728	-3.1688
Cl	-3.458878	0.0	0.0
