13

C	0.0	0.0	0.0
C	-0.406451	-0.236534	-1.517483
Cl	1.830342	0.0	0.0
H	0.51578	-0.317024	-2.103296
H	-0.317899	1.000928	0.279926
N	-0.456502	-0.923393	0.970496
H	-0.280146	-1.874601	0.665453
H	-1.472614	-0.784688	1.020374
C	-1.118401	0.907601	-2.090123
N	-1.476375	1.888415	-2.62636
C	-1.081136	-1.519785	-1.711627
N	-1.440945	-2.619076	-1.915777
Cl	-3.26216	0.0	0.0
