13

C	0.0	0.0	0.0
C	-0.512288	0.195873	-1.454592
Cl	1.779611	0.0	0.0
H	-1.616848	0.221587	-1.325777
H	-0.336106	0.870449	0.564787
N	-0.484152	-1.178487	0.64225
H	-1.501023	-1.076141	0.700528
H	-0.265799	-1.996644	0.082497
C	-0.152304	-0.943355	-2.295224
N	0.100579	-1.878472	-2.959647
C	-0.060999	1.448614	-2.053954
N	0.270456	2.469964	-2.529558
Cl	-3.433841	0.0	0.0
