13

C	0.0	0.0	0.0
C	-0.417767	0.063192	-1.533825
Cl	1.805229	0.0	0.0
H	0.499723	0.106489	-2.130817
H	-0.329167	0.923384	0.470927
N	-0.457178	-1.098249	0.772745
H	-1.474857	-0.984464	0.833696
H	-0.260069	-1.972367	0.297984
C	-1.141626	1.290721	-1.86817
N	-1.527112	2.343679	-2.21693
C	-1.092216	-1.160883	-1.964636
N	-1.438021	-2.207732	-2.368418
Cl	-3.26651	0.0	0.0
