13

C	0.0	0.0	0.0
C	-0.455429	-0.446838	-1.433805
Cl	1.777637	0.0	0.0
H	0.456709	-0.63401	-2.012744
H	-0.303835	1.040015	0.144964
N	-0.460417	-0.928133	0.987741
H	-0.191922	-0.582901	1.903196
H	-1.486055	-0.88714	0.929992
C	-1.135594	0.632237	-2.153676
N	-1.465252	1.544421	-2.816028
C	-1.179355	-1.721284	-1.480973
N	-1.592255	-2.807606	-1.646364
Cl	-3.274596	0.0	0.0
