13

C	0.0	0.0	0.0
C	-0.454927	-0.454066	-1.432227
Cl	1.777291	0.0	0.0
H	0.457768	-0.635501	-2.011953
H	-0.30487	1.040524	0.139536
N	-0.463474	-0.922133	0.991858
H	-0.201652	-0.568209	1.905675
H	-1.489175	-0.880319	0.928025
C	-1.144041	0.616675	-2.160921
N	-1.514946	1.486517	-2.855912
C	-1.173676	-1.729519	-1.474295
N	-1.617366	-2.803586	-1.640081
Cl	-3.28246	0.0	0.0
