13

C	0.0	0.0	0.0
C	-0.572948	0.003105	-1.424321
Cl	1.806449	0.0	0.0
H	-1.678318	0.031008	-1.222576
H	-0.318274	0.922869	0.482801
N	-0.504534	-1.125557	0.689935
H	-0.746126	-0.962171	1.652385
H	0.04211	-1.961352	0.553242
C	-0.235256	-1.237914	-2.115001
N	0.059737	-2.243931	-2.641264
C	-0.165951	1.168804	-2.203539
N	0.148108	2.119795	-2.818611
Cl	-3.542457	0.0	0.0
