17
Coordinates from ORCA-job run
  C   -0.33668299659787      0.51623421781158     -0.60073700867559
  C   0.14218189352303     -0.33100938088044      0.58933159995964
  Br  0.46686677248536     -0.09010123623976     -2.33211991570077
  H   -0.63061721535476     -0.23622485546883      1.35316542172124
  N   -0.22548259340408      1.88978628348796     -0.35139838753140
  H   0.74338458881548      2.18062397926435     -0.33142607795612
  H   -0.74534654905468      2.42137211762977     -1.03939002581620
  N   -1.83627425258214      0.24725212798754     -0.81416328725363
  O   -2.30090436269952     -0.78376019191283     -0.34452057157426
  O   -2.44570085307347      1.08968454796572     -1.45720752866115
  N   1.35349569390647      0.30547564200583      1.20993200865091
  O   1.42009766375341      0.25768298061924      2.43359632532661
  O   2.21662616829173      0.75917182249062      0.45963504629540
  C   0.48371734739743     -1.78941980541405      0.34331555648306
  H   1.37267938734811     -1.87551737117816     -0.28053650172733
  H   -0.34937186837341     -2.29121915943649     -0.14359613236944
  H   0.67133117561890     -2.26903171873205      1.30611947882903
