17
Coordinates from ORCA-job run
  C   -0.27142733049678      0.50316569649281     -0.67725670474292
  C   0.31345265409676     -0.25525242151047      0.52578293876932
  Br  0.14503645710977     -0.28306743873044     -2.38781111665032
  H   -0.10997667659205      0.22195960945573      1.41361057889713
  N   0.14372485043061      1.84307448886897     -0.67037687596372
  H   -0.23886797547038      2.37603234414675     -1.43980057394785
  H   -0.04249735412285      2.29441598359247      0.21658475607031
  N   -1.83076357262214      0.35311197617206     -0.44450071931208
  O   -2.46621770936817     -0.50638460243663     -1.03449476847209
  O   -2.26465152003144      1.13497273511557      0.39814740624582
  N   1.77912693855435      0.06395631804335      0.60721403162064
  O   2.54208070698649     -0.59711800880529     -0.08907166195969
  O   2.09625046405338      0.97219655458060      1.37235345934491
  C   0.09097394060204     -1.75077415125490      0.54267236420367
  H   -0.97496801763050     -1.97943850420403      0.51112209178888
  H   0.50497519843471     -2.16691471477591      1.46312622573515
  H   0.58174894606619     -2.22193586475064     -0.30630143162716
