16

C	-0.370073	-0.061209	-1.448566
C	0.0	0.0	0.0
Cl	-2.092681	-0.45265	-1.778041
H	1.093233	0.0	0.0
H	-0.15625	0.880423	-1.939667
N	0.471563	-1.079163	-2.178049
O	1.196784	-0.634074	-3.062255
O	0.36071	-2.260175	-1.868314
C	-0.473793	-1.121839	0.891214
H	0.054757	-1.055252	1.840735
H	-1.55042	-1.090761	1.078006
H	-0.215862	-2.068478	0.419164
N	-0.407804	1.317595	0.52716
O	-0.67424	1.395698	1.729065
O	-0.400065	2.293787	-0.230275
F	2.480676	0.0	0.0
