16

C	-0.379838	-0.024883	-1.446304
C	0.0	0.0	0.0
Cl	-2.127998	-0.311675	-1.765298
H	1.093232	0.0	0.0
H	-0.118644	0.910876	-1.926117
N	0.397819	-1.080728	-2.191824
O	0.1887	-2.259585	-1.927553
O	1.173032	-0.66298	-3.044808
C	-0.484075	-1.133323	0.869358
H	0.013344	-1.063411	1.834158
H	-0.198121	-2.074627	0.404144
H	-1.565436	-1.120343	1.022841
N	-0.397227	1.312702	0.550529
O	-0.685898	1.371239	1.748681
O	-0.359446	2.302519	-0.187727
F	2.483529	0.0	0.0
