16

C	-0.612027	-0.057841	-1.373394
C	0.0	0.0	0.0
Cl	-0.035856	-1.489508	-2.258017
H	1.089388	0.0	0.0
H	-1.70134	-0.088679	-1.38235
N	-0.274365	1.13801	-2.240994
O	0.752426	1.756014	-2.010237
O	-1.076267	1.366821	-3.14579
C	-0.346447	-1.21758	0.845563
H	0.052684	-1.046369	1.844205
H	-1.424923	-1.413463	0.907352
H	0.162292	-2.086774	0.432966
N	-0.521303	1.198089	0.683877
O	-0.179742	1.389392	1.849348
O	-1.281566	1.955577	0.060673
F	2.503039	0.0	0.0
