16

C	-0.379485	-0.052786	-1.446482
C	0.0	0.0	0.0
Cl	-2.107532	-0.432126	-1.76563
H	1.093291	0.0	0.0
H	-0.165039	0.8895	-1.935053
N	0.453903	-1.073127	-2.182158
O	0.32713	-2.255497	-1.8846
O	1.195736	-0.626956	-3.052245
C	-0.471056	-1.126186	0.887491
H	0.057685	-1.061599	1.836907
H	-0.211634	-2.070702	0.412071
H	-1.547948	-1.097756	1.074139
N	-0.403045	1.314905	0.537965
O	-0.640769	1.38953	1.745838
O	-0.418625	2.292576	-0.217497
F	2.48125	0.0	0.0
