16

C	-0.525863	0.022475	-1.424704
C	0.0	0.0	0.0
Cl	0.143546	-1.456796	-2.323654
H	1.098817	0.0	0.0
H	-0.094347	0.855485	-1.9792
N	-1.944658	0.062891	-1.4403
H	-2.308463	-0.078711	-2.372605
H	-2.273835	-0.673134	-0.824323
N	-0.558132	-1.184846	0.677728
H	-0.387785	-1.073669	1.671641
H	-0.001244	-1.984194	0.390576
C	-0.451814	1.257856	0.730703
H	-1.534853	1.27121	0.866283
H	0.043635	1.30331	1.704897
H	-0.154023	2.149597	0.174122
Br	3.702378	0.0	0.0
