16

C	-0.340718	-0.099885	-1.494006
C	0.0	0.0	0.0
Cl	-0.286605	1.577516	-2.327644
H	1.09864	0.0	0.0
H	-1.384731	-0.387457	-1.651442
N	0.536363	-1.03272	-2.091774
H	0.417858	-1.092573	-3.093568
H	1.503935	-0.805685	-1.864816
N	-0.422142	-1.229035	0.679299
H	-1.402059	-1.406722	0.476868
H	0.107033	-1.997943	0.285804
C	-0.573387	1.201497	0.719462
H	-0.345987	1.098337	1.781164
H	-0.145571	2.132694	0.352289
H	-1.663223	1.250454	0.599359
Br	3.650198	0.0	0.0
