16

C	-0.266646	0.026149	-1.501621
C	0.0	0.0	0.0
Cl	-2.060394	0.167704	-1.862472
H	1.100374	0.0	0.0
H	-0.020388	-0.960596	-1.913792
N	0.425036	1.125079	-2.113032
H	1.37209	1.139162	-1.734033
H	0.487097	0.988435	-3.113904
N	-0.470516	-1.203617	0.668929
H	0.085006	-1.995729	0.364603
H	-1.438379	-1.376185	0.411881
C	-0.508422	1.23663	0.716696
H	-0.218311	2.14264	0.183215
H	-1.599521	1.216412	0.799363
H	-0.082793	1.256446	1.721047
Br	3.624208	0.0	0.0
