16

C	-0.393688	-0.027195	-1.465278
C	0.0	0.0	0.0
Cl	-2.273053	-0.157345	-1.623364
H	1.101899	0.0	0.0
H	-0.068088	-0.963905	-1.919571
N	0.123973	1.053092	-2.19595
H	-0.161774	1.947998	-1.828449
H	-0.091126	0.994234	-3.179802
N	-0.510348	-1.206149	0.672274
H	-0.172581	-1.160497	1.629234
H	-0.023057	-2.002529	0.267893
C	-0.493399	1.229952	0.74
H	-0.073807	2.145759	0.317195
H	-0.146156	1.186744	1.775947
H	-1.58458	1.27893	0.735717
Br	3.672409	0.0	0.0
