16

C	-0.377314	-0.105836	-1.487183
C	0.0	0.0	0.0
Cl	-0.33209	1.503042	-2.308315
H	1.097829	0.0	0.0
H	-1.419186	-0.436205	-1.584133
N	0.466369	-1.006123	-2.243088
H	0.30026	-1.946694	-1.904408
H	1.436916	-0.777512	-2.025615
N	-0.38074	-1.246756	0.683726
H	0.330037	-1.950804	0.527768
H	-1.270863	-1.597349	0.343726
C	-0.588188	1.182578	0.743403
H	-0.334818	1.081591	1.799319
H	-1.681521	1.199558	0.650517
H	-0.19541	2.128196	0.371709
Br	3.6227	0.0	0.0
