17

C	0.0	0.0	0.0
C	-0.359576	-0.001378	-1.579956
Br	1.999926	0.0	0.0
H	-1.475714	-0.349068	-1.607817
N	-0.401611	1.135159	0.868552
H	-0.224952	0.940183	1.825347
H	-0.143241	2.012417	0.481931
N	-0.286373	-1.345086	0.709371
O	-0.668268	-2.289353	0.03416
O	-0.189966	-1.323498	1.933485
C	0.236083	-1.006364	-2.344032
N	0.712435	-1.792366	-3.072016
C	-0.355058	1.390506	-2.1237
H	-1.036227	2.068687	-1.587007
H	0.660839	1.774904	-2.088953
H	-0.703338	1.337807	-3.156336
Cl	-2.085525	0.0	0.0
