17

C	0.0	0.0	0.0
C	-0.568157	0.103055	-1.410664
Br	2.00088	0.0	0.0
H	-1.615606	-0.229866	-1.26774
N	-0.523508	0.954955	0.850106
H	-0.471625	0.691737	1.823402
H	-0.211323	1.894075	0.667158
N	-0.329361	-1.373121	0.603399
O	-0.351861	-1.441478	1.825889
O	-0.489906	-2.297755	-0.176836
C	0.116682	-0.732481	-2.39028
N	0.610835	-1.34728	-3.260908
C	-0.617906	1.556733	-1.887134
H	0.363921	2.036028	-1.822804
H	-1.35772	2.087823	-1.287957
H	-0.944891	1.583104	-2.927577
Cl	-3.612017	0.0	0.0
