17

C	0.0	0.0	0.0
C	-0.338011	-0.320345	-1.500792
Br	1.936809	0.0	0.0
H	0.441465	0.259452	-2.01204
N	-0.485483	1.266808	0.343216
H	-0.228309	1.490265	1.301176
H	-1.523623	1.178826	0.293824
N	-0.392548	-1.081781	1.04806
O	-0.3406	-2.265688	0.738471
O	-0.659407	-0.638254	2.158444
C	-1.547254	0.261751	-2.129682
N	-2.116426	0.70654	-3.064816
C	-0.191447	-1.773691	-1.977003
H	0.734059	-2.210281	-1.60611
H	-1.028297	-2.386109	-1.639783
H	-0.166243	-1.762639	-3.067054
Cl	-3.25815	0.0	0.0
