15

C	-0.339912	-4e-06	-1.456831
C	0.0	0.0	0.0
F	-1.739744	-6e-06	-1.711408
H	1.098871	0.0	0.0
H	0.064278	0.890053	-1.947698
H	0.064281	-0.890062	-1.947693
C	-0.495516	-1.261019	0.694181
H	-1.589873	-1.346433	0.682857
H	-0.07476	-2.149341	0.211699
H	-0.158246	-1.271583	1.735188
C	-0.495517	1.261022	0.694174
H	-0.074759	2.149342	0.211689
H	-0.158247	1.271591	1.735182
H	-1.589873	1.346437	0.68285
F	2.720467	0.0	0.0
