14

C	-0.564819	-0.020958	-1.41296
C	0.0	0.0	0.0
Br	0.200921	1.600957	-2.412031
H	1.094856	0.0	0.0
H	-0.35334	-0.925351	0.469184
C	-0.088991	-1.164447	-2.189632
N	0.239682	-2.101303	-2.818471
N	-1.97893	0.025785	-1.38423
H	-2.222705	0.752078	-0.716266
H	-2.371103	0.226749	-2.295083
N	-0.572583	1.157412	0.70773
H	0.11806	1.899779	0.637846
H	-0.626796	0.91979	1.690678
H	2.918651	0.0	0.0
