14

C	-0.368061	-0.116187	-1.481529
C	0.0	0.0	0.0
Br	-0.09137	-1.994493	-2.039853
H	1.092107	0.0	0.0
H	-0.413848	-0.822632	0.592735
C	-1.791042	0.167748	-1.70751
N	-2.93497	0.415367	-1.818867
N	0.453585	0.732055	-2.318354
H	1.418392	0.535633	-2.029604
H	0.264596	1.676012	-1.986
N	-0.395978	1.338592	0.437544
H	0.361805	1.724225	0.989709
H	-1.235808	1.318268	0.9991
H	2.909364	0.0	0.0
