14

C	-0.272712	0.057178	-1.500741
C	0.0	0.0	0.0
Br	-0.092195	-1.906479	-2.24893
H	1.100811	0.0	0.0
H	-0.334825	0.966738	0.392533
C	-1.645893	0.375644	-1.889547
N	-2.739829	0.696463	-2.1778
N	0.665842	0.921836	-2.056923
H	1.601082	0.738666	-1.661752
H	0.664408	0.944421	-3.067055
N	-0.691393	-1.071271	0.701336
H	-0.637049	-0.863451	1.691957
H	-0.157889	-1.92208	0.559948
H	2.944666	0.0	0.0
