14

C	-0.365036	-0.215046	-1.47204
C	0.0	0.0	0.0
Br	-0.111608	-2.128942	-1.895269
H	1.089141	0.0	0.0
H	-0.416309	-0.777961	0.649929
C	-1.781645	0.070553	-1.726987
N	-2.918112	0.330195	-1.87134
N	0.472346	0.566574	-2.360119
H	1.434231	0.372172	-2.058489
H	0.300338	1.532628	-2.088533
N	-0.389753	1.369428	0.342092
H	-1.231604	1.392019	0.903144
H	0.36848	1.785289	0.871174
H	2.911869	0.0	0.0
