14

C	-0.58637	-0.085306	-1.404749
C	0.0	0.0	0.0
Br	-0.134267	1.560379	-2.391796
H	1.095736	0.0	0.0
H	-0.38584	0.920005	0.447116
C	0.001275	-1.19765	-2.172671
N	0.331887	-2.13349	-2.803756
N	-2.024457	-0.193108	-1.324037
H	-2.408485	-0.482365	-2.216604
H	-2.182532	-0.927475	-0.63575
N	-0.476944	-1.187445	0.741228
H	0.333386	-1.79061	0.860271
H	-0.75975	-0.903401	1.670046
H	2.909621	0.0	0.0
