14

C	-0.621161	-0.025383	-1.391255
C	0.0	0.0	0.0
Br	0.206556	1.500957	-2.479922
H	1.095387	0.0	0.0
H	-0.35397	-0.910902	0.496079
C	-0.272665	-1.228699	-2.145494
N	-0.023956	-2.224644	-2.717316
N	-2.027993	0.119418	-1.301924
H	-2.188475	0.881775	-0.648034
H	-2.445534	0.31995	-2.202071
N	-0.522436	1.184679	0.706091
H	0.216139	1.882291	0.665118
H	-0.624751	0.946235	1.684482
H	2.907783	0.0	0.0
