14

C	0.0	0.0	0.0
C	-0.269929	-0.042852	-1.544791
Br	1.969658	0.0	0.0
H	0.389064	-0.813384	-1.953281
H	-1.301373	-0.348747	-1.686355
C	-0.516715	1.202922	0.644514
N	-0.573866	2.242723	1.208152
C	-0.529215	-1.197676	0.653713
N	-0.567597	-2.253563	1.189593
C	-0.034324	1.29181	-2.23928
H	-0.336139	1.212792	-3.288994
H	1.014719	1.592004	-2.208171
H	-0.633985	2.078156	-1.77396
H	-2.072133	0.0	0.0
