14

C	0.0	0.0	0.0
C	-0.282112	-0.023101	-1.546506
Br	1.969986	0.0	0.0
H	-1.274214	-0.435898	-1.704434
H	0.456881	-0.696977	-1.98837
C	-0.504505	1.191589	0.669711
N	-0.553712	2.230034	1.236908
C	-0.508192	-1.213824	0.637456
N	-0.542995	-2.286993	1.136494
C	-0.199146	1.361612	-2.16979
H	-0.301647	1.288352	-3.257263
H	0.751636	1.850143	-1.947627
H	-1.007505	1.989123	-1.787787
H	-2.053252	0.0	0.0
