14

C	0.0	0.0	0.0
C	-0.285711	0.05477	-1.544626
Br	1.970011	0.0	0.0
H	0.474149	0.708436	-1.982643
H	-1.263221	0.502102	-1.699435
C	-0.460078	1.219412	0.663138
N	-0.534107	2.27234	1.194294
C	-0.540314	-1.186087	0.649558
N	-0.566041	-2.238785	1.194955
C	-0.251092	-1.328799	-2.175029
H	0.660353	-1.870106	-1.915624
H	-1.107525	-1.909299	-1.827062
H	-0.305696	-1.246707	-3.26578
H	-2.053785	0.0	0.0
