14

C	0.0	0.0	0.0
C	-0.280461	-0.059597	-1.545275
Br	1.969787	0.0	0.0
H	-1.273701	-0.472772	-1.695805
H	0.457489	-0.746089	-1.970475
C	-0.502805	1.210024	0.640897
N	-0.543193	2.260853	1.179667
C	-0.508808	-1.193168	0.674371
N	-0.551599	-2.244176	1.219392
C	-0.191344	1.311492	-2.19833
H	-0.274521	1.214315	-3.285707
H	0.752938	1.808893	-1.969815
H	-1.00874	1.943494	-1.844268
H	-2.052845	0.0	0.0
