17

C	-0.413268	0.020618	-1.476384
C	0.0	0.0	0.0
F	-0.063106	1.340909	-1.875035
H	1.097931	0.0	0.0
N	0.326185	-0.833112	-2.349513
H	0.127301	-1.780043	-2.04914
H	1.309977	-0.669826	-2.136681
N	-1.806623	-0.192283	-1.614634
H	-2.069953	0.003718	-2.57282
H	-2.276126	0.448241	-0.983751
N	-0.393099	-1.242945	0.662528
O	-0.185791	-2.309776	0.07186
O	-0.799171	-1.183938	1.833395
N	-0.591013	1.133406	0.696214
H	-0.468964	0.965943	1.688564
H	-0.004941	1.924991	0.4478
H	2.675865	0.0	0.0
