17

C	-0.543854	-0.08972	-1.433313
C	0.0	0.0	0.0
F	-1.88201	-0.616576	-1.306248
H	1.089638	0.0	0.0
N	-0.611906	1.209628	-2.016474
H	-1.236109	1.163928	-2.814391
H	-0.96977	1.858325	-1.325285
N	0.185497	-0.969505	-2.296444
H	0.807834	-0.375367	-2.82607
H	0.741598	-1.591596	-1.717041
N	-0.352569	-1.276398	0.705775
O	-0.96737	-1.237389	1.77394
O	0.050016	-2.317238	0.185418
N	-0.480183	1.146677	0.713842
H	0.272972	1.440888	1.323268
H	-1.275648	0.889919	1.286106
H	2.703771	0.0	0.0
