17

C	-0.528553	0.114835	-1.430442
C	0.0	0.0	0.0
F	-1.959586	0.20784	-1.283684
H	1.095648	0.0	0.0
N	-0.128896	1.349656	-2.039087
H	-0.276925	2.070295	-1.340663
H	0.876338	1.26998	-2.170653
N	-0.169279	-0.93474	-2.295871
H	-0.676552	-0.822573	-3.162772
H	-0.325103	-1.834648	-1.869479
N	-0.421485	-1.254467	0.677701
O	-0.244482	-2.330247	0.089232
O	-0.838993	-1.186729	1.841455
N	-0.382282	1.163088	0.744878
H	0.309163	1.30138	1.472816
H	-1.28646	1.030052	1.177205
H	2.630361	0.0	0.0
