17

C	-0.669515	-0.078822	-1.367765
C	0.0	0.0	0.0
F	-2.117406	-0.11021	-1.047425
H	1.087256	0.0	0.0
N	-0.432948	1.121346	-2.090568
H	-1.253411	1.30816	-2.651554
H	-0.338436	1.858832	-1.401469
N	-0.351	-1.20443	-2.146715
H	-0.752245	-1.11471	-3.068975
H	-0.65152	-2.046578	-1.685255
N	-0.379389	-1.13924	0.86682
O	-0.542404	-2.264383	0.372245
O	-0.404037	-0.933398	2.086581
N	-0.305623	1.260488	0.625852
H	0.459678	1.471537	1.260129
H	-1.164881	1.200502	1.157748
H	2.595601	0.0	0.0
