17

C	-0.479816	-0.190561	-1.446026
C	0.0	0.0	0.0
F	-1.821873	-0.69412	-1.369676
H	1.089662	0.0	0.0
N	-0.443432	1.058096	-2.093243
H	-0.87355	1.756573	-1.501883
H	-0.888418	0.967579	-2.996886
N	0.242667	-1.141882	-2.237702
H	0.218684	-2.02612	-1.74229
H	1.21389	-0.834806	-2.206708
N	-0.387865	-1.197564	0.804766
O	-1.004828	-1.036035	1.865215
O	-0.029381	-2.302122	0.390945
N	-0.471256	1.217887	0.594262
H	0.282519	1.583273	1.16837
H	-1.261234	1.017202	1.198424
H	2.686427	0.0	0.0
