17

C	-0.49417	-0.060069	-1.443943
C	0.0	0.0	0.0
F	-1.932546	-0.053082	-1.383354
H	1.089079	0.0	0.0
N	-0.096548	1.122686	-2.151837
H	-0.743268	1.254914	-2.921545
H	-0.171376	1.921712	-1.537358
N	-0.100207	-1.253657	-2.1181
H	0.194079	-1.008169	-3.055697
H	0.700142	-1.65281	-1.638932
N	-0.475796	-1.253614	0.687663
O	0.169875	-2.282159	0.473032
O	-1.464897	-1.18982	1.415849
N	-0.430686	1.135699	0.735524
H	0.310083	1.817917	0.801691
H	-1.32255	1.511993	0.458213
H	2.767909	0.0	0.0
