16

C	-0.571109	-0.018591	-1.3853
C	0.0	0.0	0.0
Br	0.397681	-1.424837	-2.493394
H	1.093089	0.0	0.0
H	-0.324247	0.940334	0.458156
N	-1.972534	-0.185438	-1.4568
H	-2.271766	-0.227568	-2.423856
H	-2.236821	-1.03577	-0.978298
N	-0.280217	1.274676	-2.143723
O	-0.867765	1.417378	-3.216102
O	0.49406	2.076174	-1.641049
C	-0.46181	-1.186721	0.839344
H	-1.521644	-1.144433	1.115074
H	-0.262248	-2.129573	0.323516
H	0.128212	-1.199116	1.758848
H	2.910518	0.0	0.0
