15

C	-0.570664	-0.002354	-1.43125
C	0.0	0.0	0.0
Br	0.349591	-1.298727	-2.528662
H	1.093659	0.0	0.0
C	-1.994444	-0.319588	-1.414177
N	-3.130278	-0.613908	-1.326066
N	-0.381416	1.370375	-2.081688
O	0.728943	1.859526	-1.968772
O	-1.35182	1.848904	-2.65894
N	-0.389965	-1.24318	0.646607
H	0.382648	-1.561601	1.218497
H	-1.220115	-1.136211	1.215054
C	-0.494932	1.197155	0.692039
N	-0.909734	2.124972	1.283748
Cl	3.217405	0.0	0.0
