15

C	-0.439042	0.010214	-1.469087
C	0.0	0.0	0.0
Br	0.371462	-1.457295	-2.443899
H	1.092344	0.0	0.0
C	-1.884736	-0.089866	-1.591944
N	-3.055518	-0.21205	-1.591588
N	0.022317	1.309753	-2.15034
O	1.147228	1.683709	-1.865038
O	-0.755801	1.83574	-2.937163
N	-0.490176	-1.198383	0.63614
H	0.071432	-1.404835	1.45357
H	-1.459922	-1.104361	0.919403
C	-0.471792	1.246287	0.610767
N	-0.889878	2.219654	1.129113
Cl	2.68682	0.0	0.0
