15

C	-0.381474	-0.019791	-1.475893
C	0.0	0.0	0.0
Br	0.249965	1.573393	-2.401271
H	1.096934	0.0	0.0
C	0.166055	-1.206706	-2.125022
N	0.640829	-2.181889	-2.579679
N	-1.912064	-0.152396	-1.69189
O	-2.290725	-0.232741	-2.869913
O	-2.624428	0.2584	-0.768094
N	-0.455468	-1.145512	0.745674
H	-1.462073	-1.258921	0.723047
H	0.024453	-1.98894	0.453437
C	-0.425923	1.234154	0.642391
N	-0.732987	2.222459	1.200986
Cl	2.855075	0.0	0.0
