16
Coordinates from ORCA-job run
  C   -0.58748915938250      0.32585629349461     -0.12257524893242
  C   0.92908743113796      0.42950421154582     -0.03105454740811
  Cl  -1.12542056634755      0.56637911990604     -1.80793814458821
  H   1.17806107813167      0.48695170770125      1.03576062236372
  H   1.22366421834688      1.37903632618048     -0.48096885452208
  C   -1.16959461988261     -0.96090808842326      0.40871317822108
  H   -0.84224511686800     -1.78729349921032     -0.22147408308152
  H   -2.25737179743422     -0.92337298613922      0.40081219000923
  H   -0.83337575169887     -1.13086331871439      1.43308484373112
  N   -1.14389199383588      1.51675684697231      0.66767896013450
  O   -0.74225752777336      2.62623288691921      0.33967862877940
  O   -1.91631648521176      1.27549193291916      1.59091333782764
  C   1.67029109200701     -0.73302963519677     -0.67911307407905
  H   1.49467835458949     -1.67266726070937     -0.15294676212574
  H   2.74455972292250     -0.53972654279834     -0.65724078907404
  H   1.37562112129925     -0.85834799444721     -1.72233025725552
