16
Coordinates from ORCA-job run
  C   -0.61986692572410      0.09474445588076     -0.20285376880555
  C   0.72326459856478     -0.62525529155967     -0.25543866881428
  Cl  -0.97071743580132      0.86870860163467     -1.75721171579176
  H   0.81437465497497     -1.19820812185448      0.67153829930616
  H   0.66564869432838     -1.33852976748884     -1.08260904323958
  C   -1.77477952472328     -0.81057403737266      0.17793734322661
  H   -2.70625227097109     -0.24358552018717      0.22404615490427
  H   -1.58156175042463     -1.26834541838986      1.14762154764696
  H   -1.87979429176745     -1.58915401511026     -0.57885010413151
  N   -0.48754190440335      1.17219888708200      0.87803593344716
  O   -0.34444771693259      0.71611711515828      2.01039083786639
  O   -0.48177112968667      2.35544714562789      0.57387715775356
  C   1.92562261940105      0.29603563970499     -0.42203873456890
  H   2.83475117467189     -0.29810118737201     -0.53245078688514
  H   2.05654113365301      0.93805012214873      0.45159502560739
  H   1.82553007484039      0.93045139209762     -1.30358947752176
