16
Coordinates from ORCA-job run
  C   -0.73858134416023      0.24980792652032     -0.26645832089336
  C   0.61883925498023      0.10907757994986     -0.93875312852554
  Cl  -1.91364783802931      0.88360738798651     -1.45000179755875
  H   0.50896949407800     -0.63780081859138     -1.73040344941736
  H   0.85199023374966      1.06127715788910     -1.41856549594300
  C   -1.28809664216815     -1.01847541379477      0.34175599970115
  H   -1.39138602819920     -1.76298619103633     -0.44943145028116
  H   -0.62261542727290     -1.39930820986001      1.11514389982024
  H   -2.26509142476197     -0.83920492039401      0.78786806499985
  N   -0.58914943766776      1.32945470601291      0.80870495147122
  O   -0.86583493427062      1.02134880015322      1.96458929277388
  O   -0.15564629507448      2.41351728862460      0.43906269232120
  C   1.73808838558959     -0.28135827270318      0.02246871657872
  H   2.68055091704297     -0.34387069739792     -0.52510635540760
  H   1.86879870799057      0.46447295735425      0.80960062561271
  H   1.56481237817361     -1.25155928071318      0.49052575474780
