19

C	0.0	0.0	0.0
C	-0.259813	-0.087851	-1.541896
Cl	1.768331	0.0	0.0
H	0.295356	-0.976372	-1.84812
N	-0.652769	1.146956	0.65369
O	-1.82401	1.355315	0.103194
O	-0.380748	1.315491	1.869627
C	-0.534852	-1.23243	0.685607
H	-0.225236	-2.14841	0.177929
H	-0.186837	-1.227349	1.719097
H	-1.635584	-1.142145	0.672429
N	0.461479	1.011274	-2.272452
O	0.368828	2.157561	-1.850689
O	1.059909	0.681551	-3.301045
C	-1.64343	-0.153746	-2.160567
H	-2.27435	-0.859793	-1.621247
H	-2.1367	0.810727	-2.094745
H	-1.525424	-0.468102	-3.203627
H	-3.018968	0.0	0.0
