19

C	0.0	0.0	0.0
C	-0.259216	-0.09606	-1.54191
Cl	1.768284	0.0	0.0
H	0.290943	-0.989591	-1.842023
N	-0.652497	1.151543	0.647596
O	-0.381058	1.325675	1.862607
O	-1.823888	1.355776	0.096115
C	-0.536589	-1.228216	0.690889
H	-0.228872	-2.147298	0.187746
H	-0.18892	-1.218567	1.724839
H	-1.636956	-1.136068	0.675991
N	0.468945	0.995196	-2.275854
O	1.084125	0.654901	-3.291913
O	0.367272	2.145875	-1.867805
C	-1.64243	-0.156971	-2.162179
H	-2.131172	0.810525	-2.096929
H	-1.525349	-0.472759	-3.20606
H	-2.276206	-0.861487	-1.624024
H	-3.017325	0.0	0.0
