19

C	0.0	0.0	0.0
C	-0.259451	-0.147851	-1.537716
Cl	1.768449	0.0	0.0
H	0.294902	-1.047961	-1.80977
N	-0.651737	1.174734	0.606653
O	-0.36888	1.397164	1.812422
O	-1.828288	1.355069	0.055452
C	-0.538234	-1.201239	0.734799
H	-1.639025	-1.121049	0.694955
H	-0.207927	-2.138266	0.282009
H	-0.21267	-1.13819	1.7734
N	0.464041	0.923355	-2.304719
O	1.098027	0.5548	-3.298615
O	0.339642	2.087332	-1.943236
C	-1.642584	-0.232969	-2.154793
H	-2.270242	-0.927414	-1.598073
H	-1.523907	-0.576393	-3.188383
H	-2.137717	0.731611	-2.113719
H	-3.023168	0.0	0.0
