19

C	0.0	0.0	0.0
C	-0.264083	-0.157772	-1.541822
Cl	1.768437	0.0	0.0
H	0.315814	-1.039865	-1.821228
N	-0.649489	1.185293	0.586587
O	-1.838808	1.339425	0.060937
O	-0.321663	1.469068	1.769664
C	-0.540511	-1.193417	0.747198
H	-1.645402	-1.099212	0.733844
H	-0.175068	-1.144033	1.78406
H	-0.240693	-2.134727	0.271187
N	0.419737	0.939354	-2.305159
O	1.256259	0.601224	-3.148487
O	0.078667	2.097867	-2.081824
C	-1.656677	-0.28137	-2.136131
H	-2.21045	-1.080417	-1.638471
H	-2.218446	0.640341	-1.993866
H	-1.543193	-0.517919	-3.207711
H	-3.043383	0.0	0.0
