15

C	-0.457074	-0.022343	-1.46755
C	0.0	0.0	0.0
Br	0.204877	1.568272	-2.394464
H	1.094855	0.0	0.0
H	0.059681	-0.858483	-1.944891
C	-1.961468	-0.103866	-1.667415
H	-2.365844	-1.015597	-1.216019
H	-2.45342	0.760069	-1.215329
H	-2.206991	-0.124294	-2.730614
N	-0.356811	-1.214115	0.733832
H	0.376419	-1.897427	0.593324
H	-1.247745	-1.596969	0.447404
C	-0.552073	1.168532	0.694542
N	-1.062135	2.077713	1.235524
Br	3.472995	0.0	0.0
