15

C	-0.489329	0.039644	-1.454687
C	0.0	0.0	0.0
Br	-0.064922	-1.649396	-2.341539
H	1.095275	0.0	0.0
H	-1.582466	0.094081	-1.480211
C	0.157501	1.182853	-2.219132
H	-0.145586	1.173082	-3.267406
H	1.244103	1.091789	-2.153671
H	-0.140209	2.139788	-1.779611
N	-0.465983	-1.165543	0.74361
H	-1.272645	-0.943337	1.312199
H	0.284687	-1.475829	1.348351
C	-0.438383	1.2522	0.642029
N	-0.850878	2.208506	1.188207
Br	3.489939	0.0	0.0
