15

C	-0.45722	0.039674	-1.472967
C	0.0	0.0	0.0
Br	-0.035611	-1.67503	-2.327995
H	1.096502	0.0	0.0
H	-1.548976	0.106227	-1.527241
C	0.216527	1.160098	-2.244968
H	-0.089181	2.123067	-1.825733
H	1.300885	1.066434	-2.150805
H	-0.065606	1.134508	-3.299265
N	-0.455314	-1.116617	0.812214
H	0.13383	-1.914417	0.603479
H	-1.41456	-1.356231	0.5811
C	-0.474975	1.249964	0.612224
N	-0.907173	2.250247	1.051431
Br	3.530219	0.0	0.0
