18

C	0.0	0.0	0.0
C	-0.464859	0.007721	-1.459262
F	1.360799	0.0	0.0
H	-1.543042	0.203069	-1.453696
N	-0.273032	1.281264	0.656042
O	0.473043	1.532905	1.669133
O	-1.47004	1.683781	0.377729
C	-0.475525	-1.12604	0.875591
H	-0.258202	-2.098874	0.432558
H	0.061059	-1.020271	1.822433
H	-1.567611	-1.053171	1.010467
N	-0.267956	-1.410091	-1.963949
O	-1.246069	-2.167786	-1.968342
O	0.873927	-1.733353	-2.284845
N	0.265086	0.911768	-2.295792
H	-0.080105	1.850431	-2.124995
H	1.239097	0.86955	-2.036032
H	-2.77178	0.0	0.0
