18

C	0.0	0.0	0.0
C	-0.484379	0.114043	-1.455859
F	1.359263	0.0	0.0
H	0.30439	-0.370289	-2.052245
N	-0.390045	1.222932	0.829533
O	0.207294	1.342319	1.897504
O	-1.278999	1.952287	0.411739
C	-0.552969	-1.201783	0.713471
H	-1.640436	-1.092634	0.795979
H	-0.330818	-2.100093	0.136079
H	-0.085623	-1.258471	1.698853
N	-0.281957	1.598986	-1.955659
O	0.750216	2.177377	-1.621322
O	-1.111917	2.033852	-2.744676
N	-1.743296	-0.425187	-1.660382
H	-2.534311	-0.155513	-0.942304
H	-2.065703	-0.271618	-2.606639
H	-3.569765	0.0	0.0
