12
Coordinates from ORCA-job run
  C   -0.37675122962390      0.03163071800828     -0.34844170007174
  C   0.98662267298274     -0.20598879330204      0.30045882956124
  Cl  -0.19967984326276      0.38485569277372     -2.07163721968527
  H   1.49249149017934     -1.00910061378641     -0.23758782794046
  H   0.83346589009125     -0.53060247131442      1.33454874510188
  C   -1.12060462880113      1.09281976090854      0.31524782038026
  N   -1.67023303669109      1.96430528928255      0.88134534132534
  N   -1.20112857178794     -1.27156448667381     -0.24625622957652
  O   -0.55891190680947     -2.31176485948576     -0.26793993680552
  O   -2.41442815518234     -1.14345193664077     -0.19882532920055
  C   1.78856637077924      1.01207617762606      0.27749817642393
  N   2.43859094812606      1.98878552260405      0.26158933048740
