12
Coordinates from ORCA-job run
  C   -0.42111228174341      0.07293431852955     -0.52630705558683
  C   1.08845654544229      0.17826272174647     -0.32701650771364
  Cl  -0.77798451714182     -0.09884544721559     -2.25192420739133
  H   1.44333130125959      1.06622026858279     -0.85672328092015
  H   1.56001106567138     -0.70360466013863     -0.76382389635608
  C   -1.13389907313730      1.21548090487903      0.02608920504024
  N   -1.65545475857444      2.17451421732320      0.46213673322100
  N   -0.94182572033495     -1.20919263297574      0.16111887231135
  O   -2.09041355365876     -1.17408952828353      0.57444585293427
  O   -0.16574198884064     -2.15259574405728      0.17682644289451
  C   1.41976696024521      0.27454075242555      1.09178844758366
  N   1.67486602081285      0.35637482918420      2.23438939398302
