15

C	0.0	0.0	0.0
C	-0.463394	0.166119	-1.460489
Br	1.972026	0.0	0.0
H	-0.08106	-0.643992	-2.087701
H	-1.561348	0.110066	-1.427441
N	-0.467804	1.030706	0.88454
H	-1.485417	0.918744	0.930382
H	-0.272473	1.943973	0.487257
C	-0.450788	-1.353057	0.523918
H	-1.544025	-1.374907	0.509431
H	-0.096916	-1.475836	1.548281
H	-0.055806	-2.162519	-0.093873
C	-0.067784	1.447357	-2.034977
N	0.227763	2.488797	-2.489936
Cl	-3.669838	0.0	0.0
