15

C	0.0	0.0	0.0
C	-0.492081	0.10044	-1.443957
Br	2.030043	0.0	0.0
H	-0.191502	1.057928	-1.87987
H	-1.592536	0.083526	-1.358759
N	-0.477333	1.117696	0.699049
H	-0.135235	2.000644	0.349865
H	-0.362726	1.047018	1.698761
C	-0.460622	-1.281145	0.66026
H	-0.08356	-2.154223	0.126883
H	-1.556179	-1.260813	0.64483
H	-0.104511	-1.324299	1.692864
C	-0.027561	-0.981665	-2.302768
N	0.329862	-1.854335	-3.00229
Cl	-3.820458	0.0	0.0
