15

C	0.0	0.0	0.0
C	-0.474055	0.113083	-1.461155
Br	1.971336	0.0	0.0
H	-0.166185	1.079239	-1.871959
H	-1.572468	0.088282	-1.413347
N	-0.4752	1.088696	0.812797
H	-1.491613	0.973358	0.87138
H	-0.289403	1.970144	0.345242
C	-0.442592	-1.314788	0.616943
H	-0.049359	-2.164816	0.056352
H	-0.08392	-1.365072	1.646505
H	-1.535543	-1.341181	0.608372
C	0.003359	-0.947995	-2.342332
N	0.375492	-1.803586	-3.05514
Cl	-3.672747	0.0	0.0
