15

C	-0.586809	-0.024188	-1.39671
C	0.0	0.0	0.0
Br	0.272007	1.421911	-2.486782
H	1.088495	0.0	0.0
H	-0.319936	0.952691	0.451154
N	-0.209243	-1.307861	-2.130007
O	0.88904	-1.780823	-1.902236
O	-1.039351	-1.7425	-2.929418
N	-1.997293	0.05892	-1.38305
H	-2.368746	-0.131935	-2.305495
H	-2.276153	0.982584	-1.078387
N	-0.479548	-1.191398	0.684673
H	-1.378618	-1.035584	1.120624
H	0.201957	-1.470551	1.379308
Br	3.690044	0.0	0.0
