15

C	-0.625609	-0.04563	-1.379762
C	0.0	0.0	0.0
Br	0.229711	1.386288	-2.508739
H	1.096542	0.0	0.0
H	-0.350537	-0.895487	0.52095
N	-0.31639	-1.33553	-2.120278
O	0.450502	-2.127842	-1.588459
O	-0.908404	-1.500951	-3.183098
N	-2.020702	0.052906	-1.302347
H	-2.446579	0.211793	-2.204527
H	-2.232745	0.786047	-0.632606
N	-0.545981	1.18952	0.684151
H	0.069742	1.96627	0.462554
H	-0.44913	1.035765	1.68067
Br	3.628721	0.0	0.0
