15

C	-0.524508	-0.009342	-1.42293
C	0.0	0.0	0.0
Br	0.05034	-1.590008	-2.389006
H	1.096791	0.0	0.0
H	-0.347051	0.941144	0.440312
N	-2.09196	-0.080694	-1.287504
O	-2.570707	0.957643	-0.83016
O	-2.730473	-1.067016	-1.613216
N	-0.128676	1.135446	-2.137986
H	-0.505364	1.164585	-3.075219
H	-0.348691	1.97798	-1.622961
N	-0.589832	-1.107201	0.757807
H	-0.012012	-1.925121	0.598991
H	-0.497307	-0.890105	1.743095
Br	3.65947	0.0	0.0
