15

C	-0.604861	-0.005821	-1.391326
C	0.0	0.0	0.0
Br	0.285368	1.438229	-2.472852
H	1.091459	0.0	0.0
H	-0.358863	-0.905694	0.494937
N	-0.304113	-1.285074	-2.155273
O	0.397257	-2.124285	-1.606695
O	-0.843091	-1.39736	-3.252373
N	-2.000914	0.10823	-1.337606
H	-2.404765	0.289098	-2.246487
H	-2.214738	0.83685	-0.663159
N	-0.543794	1.178947	0.702963
H	0.097436	1.947156	0.531282
H	-0.492686	0.992258	1.696996
Br	3.632784	0.0	0.0
