15

C	-0.247902	0.03685	-1.511953
C	0.0	0.0	0.0
Br	-0.156327	-1.88874	-2.219699
H	1.095247	0.0	0.0
H	-0.406062	-0.904956	0.444199
N	-1.678495	0.401867	-1.890548
O	-1.854771	0.970209	-2.964503
O	-2.564055	0.091421	-1.097071
N	0.625547	0.91874	-2.125901
H	0.542808	0.95659	-3.13111
H	1.585077	0.764192	-1.808372
N	-0.452746	1.179252	0.710805
H	0.075348	1.984063	0.400639
H	-1.439659	1.341819	0.557023
Br	3.563534	0.0	0.0
