14
Coordinates from ORCA-job run
  C   0.97750119187734      0.25813141882295     -0.04248991287797
  C   -0.52538122032732      0.21731871376438      0.21559190789904
  Cl  1.35829251909232      0.24625892428501     -1.77474353953855
  H   -0.71898099339389      0.39515090031780      1.27511498909649
  H   1.33118594433000      1.22709882064874      0.32187308311593
  N   1.55194161148563     -0.91037104655317      0.57953637735129
  H   1.49363221273636     -0.83779236606260      1.58975112104181
  H   2.52523189400130     -1.00126233657407      0.31791528515538
  N   -1.10594119746029     -1.12193060536393     -0.09221038200800
  O   -1.10395807737666     -1.48570582058312     -1.25896902935846
  O   -1.51041400707054     -1.75034397790167      0.88345058108746
  N   -1.25042621178251      1.31032554100428     -0.51793447628449
  O   -2.28486273664695      1.03505938830570     -1.10639622681057
  O   -0.73882092946480      2.41706244588970     -0.39148977786935
