14
Coordinates from ORCA-job run
  C   0.99005244972668      0.26683981187212     -0.03114911494138
  C   -0.49506056375676      0.25708826259938      0.29522952879835
  Cl  1.24599625860768      0.19563045719680     -1.82661483840260
  H   -0.63607685767377      0.55546470599456      1.33358445278851
  H   1.34648548762982      1.25633403807591      0.25613041815820
  N   1.65156113101569     -0.72461429109101      0.73456249790979
  H   2.64824092212975     -0.55909541428476      0.76144977448133
  H   1.47276535012522     -1.64988001362753      0.36584989549828
  N   -1.17695366261913     -1.06478696599395      0.14629111268676
  O   -0.61534131493813     -1.94726382790823     -0.49523299091661
  O   -2.27040408627690     -1.13958088408991      0.69567480855235
  N   -1.22781401431577      1.26523368964306     -0.54582295296337
  O   -0.90269574504365      2.42384230209356     -0.31554155256192
  O   -2.03175535461073      0.86578812952002     -1.37441103908768
