14
Coordinates from ORCA-job run
  C   1.04374229680554      0.22634267874342     -0.21421384066779
  C   -0.41502504339473      0.26975440342517      0.26019902187435
  Cl  1.09952821616246      0.05988134716799     -1.98827599846187
  H   -0.45210307849817      0.59565286014805      1.30060068862948
  H   1.44238608818671      1.21819631211492      0.00784434853153
  N   1.86309672788943     -0.75584167511318      0.41464673566611
  H   2.07956101155386     -0.52216182708596      1.37331992952242
  H   1.48452561808271     -1.68783446920008      0.32858618627638
  N   -1.15526437743315     -1.02946497902400      0.21658651784730
  O   -0.67975354024319     -1.95817779806501     -0.42894115000489
  O   -2.20162890256814     -1.04045080689184      0.85672156117811
  N   -1.20069141836198      1.28644494611316     -0.51957061151945
  O   -0.83462623280698      2.44028419691526     -0.32582099669992
  O   -2.07274736537437      0.89737481075209     -1.28168239217178
