14
Coordinates from ORCA-job run
  C   1.09735387489779      0.06278338407694     -0.30675194688721
  C   -0.40489415097724      0.20355143673496     -0.58376764643115
  Cl  1.69495362878040     -1.09222742558976     -1.55590820231515
  H   -0.59917960869257      0.62220668026216     -1.57010954918623
  H   1.53911730513728      1.02619474630241     -0.55815422949934
  N   1.49354795599062     -0.30194711556776      0.99663630048475
  H   0.92994892421050     -1.02710199621138      1.41181146070417
  H   1.64312144780919      0.48645371741818      1.60610776257041
  N   -0.98495701099007      1.15695062999964      0.42718260210730
  O   -0.45013288647762      2.26034237272837      0.43188067163346
  O   -1.89881739837238      0.77537096575982      1.14496192845351
  N   -1.16068567953604     -1.07941149042666     -0.50254903823855
  O   -2.02980014038602     -1.24741254373414     -1.35175577325647
  O   -0.86757626139383     -1.84775336175278      0.40841565986051
