14
Coordinates from ORCA-job run
  C   1.07644471490431      0.03610852227030     -0.18833610157646
  C   -0.37157822565690      0.30742043674545     -0.58987102275342
  Cl  1.92097159073008     -0.70583767086608     -1.57074523931097
  H   -0.46271498996113      0.65602145733985     -1.61638597046023
  H   1.55334528007470      1.01318046172189     -0.04883641821548
  N   1.13128438408225     -0.85994707255894      0.93256109526851
  H   2.09010207661915     -1.12507081657426      1.11826293949059
  H   0.75216556104830     -0.39495488902509      1.74980756041982
  N   -1.00552333117173      1.34673544010626      0.28525454867899
  O   -0.48668646843927      1.57818506665117      1.37454564062840
  O   -2.01732648007703      1.86816578098610     -0.16935677119842
  N   -1.20525118508581     -0.93656833101419     -0.45621110767186
  O   -1.82640173616696     -1.08381240771813      0.58740982920052
  O   -1.14983119089997     -1.70062597806432     -1.40909898249998
