14
Coordinates from ORCA-job run
  C   1.01346830659083     -0.13153742192980     -0.31005594841576
  C   -0.45127383852745     -0.37884685573928      0.02856500011606
  Cl  1.60670795733641     -1.67727069551344     -0.99856885843915
  H   -0.60638034540599     -1.23585477584208      0.67989356547064
  H   1.06124882603549      0.61358883960172     -1.10260922948594
  N   1.80980302423802      0.27831068469988      0.79191746885209
  H   1.78052933252828      1.27495616199413      0.94770730569963
  H   1.64412495009040     -0.23995352227318      1.64305659214322
  N   -1.30714998569300     -0.58299250790325     -1.18708143254760
  O   -2.25920000488066     -1.34535021148388     -1.04217568801669
  O   -1.00588659173866      0.04228403536175     -2.19741954887262
  N   -0.98256636398471      0.82981808114976      0.73788765312937
  O   -1.35430775390386      0.66497151152446      1.89598969589519
  O   -0.94811751268512      1.88687667635321      0.11489342447155
