14
Coordinates from ORCA-job run
  C   0.95190764044970     -0.15571738961185     -0.20133555640259
  C   -0.52203169944598     -0.31212500426192      0.11583377250042
  Cl  1.53792415548422     -1.75669818251977     -0.72784888871141
  H   -0.70342229281967     -1.03043779492693      0.91097348144630
  H   1.06175650749437      0.52001473495771     -1.04920619667953
  N   1.60790571342900      0.29684204337379      1.00190681028727
  H   1.95063902706438      1.23996791621431      0.88197614641206
  H   2.37388105518027     -0.30922985709983      1.25788636789887
  N   -1.31671091216834     -0.72407788376447     -1.08352535941472
  O   -1.19006788758015     -0.01274663080700     -2.07711836128797
  O   -2.01117823180807     -1.72847984137174     -0.97307512500250
  N   -1.09577262758323      1.00587588329742      0.54967259949138
  O   -0.52809241405416      2.02431974864404      0.16753013301790
  O   -2.11673803364234      0.94149225787624      1.22633017644451
