14
Coordinates from ORCA-job run
  C   1.00232741543855     -0.18065339652261     -0.33139369027585
  C   -0.46354794919653     -0.31744584216968      0.05855275330775
  Cl  1.43326791910415     -1.73741059000427     -1.10234756234234
  H   -0.65855194607276     -1.15253568363207      0.72820571052202
  H   1.08731940708063      0.59551588370419     -1.08961257851344
  N   1.88436025409003      0.10268178975568      0.74861738295776
  H   1.86095519854340      1.07851679760046      1.00752615441766
  H   1.75120574872891     -0.49955453518183      1.54945681381059
  N   -1.34996485477508     -0.49053669987356     -1.14015513579143
  O   -1.19119305141663      0.32001598098985     -2.04771062542125
  O   -2.14979090387605     -1.41922244000965     -1.10198222741288
  N   -0.94488909861005      0.92991910976561      0.74238827824170
  O   -1.79856765649421      0.77319768152824      1.61129006173801
  O   -0.46393048254436      1.99551194404964      0.36616466476172
