14
Coordinates from ORCA-job run
  C   1.01954185807076      0.10683353336937     -0.38099954813821
  C   -0.49502961814719      0.22738281526153     -0.53228344607989
  Cl  1.67698106586488     -0.67442272363543     -1.84128256936966
  H   -0.79545735578399      0.48162700447110     -1.54648118737886
  H   1.42024221647559      1.12700520940547     -0.39403641599018
  N   1.35179098581494     -0.68830617537108      0.76794705056154
  H   1.07483340053464     -0.19201355948240      1.60756928575961
  H   2.34969538091482     -0.85433849007085      0.79711988068274
  N   -1.06218790165351      1.28072586956141      0.37128103573235
  O   -2.18100353042054      1.68148391814064      0.07134391148257
  O   -0.38645537912172      1.64090319009662      1.33203902267499
  N   -1.17276541990236     -1.06457915061461     -0.16802746422102
  O   -1.21461764253312     -1.89672836134784     -1.06282607805970
  O   -1.58456806011320     -1.17557307978394      0.97863652234373
