14
Coordinates from ORCA-job run
  C   1.01784504874707      0.10783959978456     -0.38577346719331
  C   -0.49743697621833      0.22827880377591     -0.52924086842292
  Cl  1.66794799402809     -0.67048033980798     -1.85103257633623
  H   -0.80285431072804      0.48384737702896     -1.54160611476233
  H   1.41845609827352      1.12805125741751     -0.39887845748435
  N   1.35633649590001     -0.68958826488365      0.75975116521638
  H   2.35469848789411     -0.85362646410978      0.78443925252915
  H   1.08189576802247     -0.19588113880504      1.60171453211939
  N   -1.06054089527975      1.27982122639987      0.37865069651665
  O   -2.18034911140613      1.68179459448826      0.08406196617725
  O   -0.38066773812973      1.63794182497396      1.33727028126590
  N   -1.17320179175252     -1.06444615817025     -0.16415216921093
  O   -1.22096481382522     -1.89426137078542     -1.06086300603845
  O   -1.57816425552556     -1.17829094730690      0.98465876562380
