14
Coordinates from ORCA-job run
  C   1.01835224003326      0.10738448799814     -0.38432452045911
  C   -0.49670001559144      0.22794398126627     -0.52995580554368
  Cl  1.67032312680431     -0.67178287170847     -1.84836302838711
  H   -0.80065411558896      0.48293209202303     -1.54290682166792
  H   1.41915025490708      1.12752500474045     -0.39750785025457
  N   1.35525762583366     -0.68949611584843      0.76201863960844
  H   2.35365596658894     -0.85305853628756      0.78845327794105
  H   1.07917781173854     -0.19562592011476      1.60335088058935
  N   -1.06096318479752      1.28010740173187      0.37649286798554
  O   -2.18007763123957      1.68235542606681      0.07974864302472
  O   -0.38266229905222      1.63841810152457      1.33613151493158
  N   -1.17320663060850     -1.06443794965505     -0.16506076509561
  O   -1.22003327134662     -1.89470868844215     -1.06136721852351
  O   -1.57961987768096     -1.17755641329473      0.98329018585084
