14
Coordinates from ORCA-job run
  C   1.05147642061824      0.13724344022746     -0.20998057360229
  C   -0.41915287890516      0.21923219471364     -0.58163215398446
  Cl  1.80199630882930     -1.01148118891306     -1.43101832456761
  H   -0.55711130779135      0.59296251752991     -1.59396668561368
  H   1.48701205782689      1.10537858527120     -0.45384674159002
  N   1.25891703975169     -0.15018989781721      1.14771234427032
  H   0.93799456238113     -1.07216443773661      1.40674251457510
  H   2.21753068682937     -0.00307567478140      1.42829091771822
  N   -1.08588822931727      1.19930769339076      0.35197147950646
  O   -0.69756345079451      2.35192684697019      0.21473254091806
  O   -1.91036766633332      0.77828941725495      1.14897979080209
  N   -1.16523650284410     -1.07225720680171     -0.49737146000901
  O   -2.11452948917315     -1.17839769079783     -1.26701542438600
  O   -0.80507755107777     -1.89477459851030      0.33840177596284
