14
Coordinates from ORCA-job run
  C   1.00695896012852      0.18554078419266     -0.34617873775938
  C   -0.50349453854086      0.25799488780450     -0.49201638147332
  Cl  1.58879457705291     -0.82775303158656     -1.76283967259476
  H   -0.79338192591379      0.71681027288229     -1.43489368546477
  H   1.38658819275471      1.18375062920988     -0.56048940637943
  N   1.41531713370901     -0.21515949744618      0.93534761093764
  H   1.14831213543097     -1.16516072966155      1.15116056188661
  H   2.40323233670349     -0.06983284912229      1.08492868314622
  N   -1.04108871910049      1.13177651881789      0.61418360165174
  O   -1.73046288167007      0.61725359027530      1.48153230334970
  O   -0.69675159311044      2.30312039410252      0.52788055781157
  N   -1.20915120640953     -1.05658122541639     -0.42063062609195
  O   -2.25888461020409     -1.12101193240778     -1.05200228905953
  O   -0.71698786083035     -1.93974781164431      0.27401748003966
