14
Coordinates from ORCA-job run
  C   1.00667549407591     -0.13412746521573     -0.33451466890973
  C   -0.44686775180455     -0.35265052858261      0.06347001382329
  Cl  1.53972528516880     -1.68750811728554     -1.04739643668592
  H   -0.58856158349883     -1.18419911198517      0.75021132530920
  H   1.03930754745467      0.61589763018525     -1.12249745853838
  N   1.86286329715819      0.25098455945990      0.73358413270970
  H   1.75506343291051     -0.30836821560755      1.56832192410142
  H   1.80351965026840      1.23866856293202      0.93432334091464
  N   -1.32947687479385     -0.60141287986926     -1.12503109536606
  O   -2.13501242658103     -1.52113256272342     -1.02054866750340
  O   -1.17116675619221      0.14335384826040     -2.08677865720070
  N   -0.98150381994890      0.87986923438726      0.73153154241266
  O   -0.67181674138814      1.95786919262630      0.23123118349383
  O   -1.68274875282896      0.70175585341815      1.72409352143945
