14
Coordinates from ORCA-job run
  C   1.03540343444565      0.11541522842381     -0.46787865008665
  C   -0.49318470077079      0.24919516718900     -0.49019608407193
  Cl  1.43537413018355     -0.90642520146215     -1.89685267744346
  H   -0.84337597302087      0.75601992483042     -1.38818621140116
  H   1.42567304984792      1.10725825297396     -0.69254759399518
  N   1.63767243554551     -0.36124693597393      0.71652064712251
  H   1.15220063321225     -1.13855041722581      1.13681927027019
  H   1.85480195382105      0.37153671095714      1.37390947700584
  N   -0.91200173078883      1.09004321093378      0.68684662787727
  O   -0.38697202450767      2.19780328933431      0.71640936461819
  O   -1.70227104657552      0.62459956346585      1.49602511737065
  N   -1.21742746878576     -1.05155196234080     -0.41656580955511
  O   -0.78228802335193     -1.89436809097781      0.36227625774775
  O   -2.20560466925456     -1.15972874012777     -1.13557973545892
