14
Coordinates from ORCA-job run
  C   0.94210455932587     -0.28961165311257     -0.02582509299689
  C   -0.57256372928257     -0.23524186692207     -0.00597545059076
  Cl  1.39132326137398     -1.94028349220897     -0.53074762876337
  H   -1.00519918683986     -0.94632764158410      0.69282253757227
  H   1.31102320111160      0.39144666476605     -0.79253622871062
  N   1.40306497304246      0.01505445449412      1.30791808798336
  H   2.02568135330026     -0.69916091636469      1.65700291595092
  H   1.87592572208470      0.90823860850706      1.31976833482101
  N   -1.16414436440640     -0.48091462470992     -1.35833708389367
  O   -0.74414093785101      0.23723723502575     -2.26234580153828
  O   -2.00170160496448     -1.37198163081042     -1.44624994274373
  N   -1.03184425298583      1.13728356888995      0.39420327930626
  O   -0.26086562098670      2.07193136115970      0.19994843546310
  O   -2.16766337292202      1.20232993287012      0.85235363814041
