14
Coordinates from ORCA-job run
  C   1.04836990254151      0.28970085779899      0.07087628315377
  C   -0.47517503630131      0.18972157121051      0.22517581965651
  Cl  1.46807295497146      0.56844100689328     -1.63853631373270
  H   -0.74150950885162      0.24660638348905      1.28152937635682
  H   1.32702834299423      1.20178316662548      0.60246888924680
  N   1.79215195905015     -0.80448109216677      0.60312530636099
  H   1.50666021158105     -1.68947812091634      0.20913959369994
  H   1.78015243847280     -0.82171863613675      1.61343092812352
  N   -1.10354978338040     -1.06878945555874     -0.28404007285130
  O   -0.44709402167753     -1.80205823893634     -1.01654721741163
  O   -2.25442069985402     -1.25353117094216      0.09817307965475
  N   -1.15598157788632      1.35625714400794     -0.43459990612818
  O   -1.83042767379364      1.15548013679794     -1.43330247766839
  O   -0.91427750786636      2.43106644783391      0.10310671153909
