14
Coordinates from ORCA-job run
  C   1.06164477322381      0.16394216471526     -0.06357728114179
  C   -0.45982107837887      0.21002049054568      0.15654013745491
  Cl  1.38902715110722     -0.38454798601637     -1.72960931656347
  H   -0.68310187973672      0.27436592775767      1.22192452102795
  H   1.41668249422961      1.19358099277000     -0.00413465865604
  N   1.78026904998881     -0.64258946390428      0.86807831686285
  H   1.88494715488261     -0.18049397208749      1.76110889551831
  H   1.35886970229862     -1.55460522109150      0.98331635130596
  N   -1.11962711126026     -1.04545623700347     -0.33282243012269
  O   -0.85255993020514     -2.03890962676366      0.33832229921883
  O   -1.80113796926357     -0.99873368351039     -1.34445030964114
  N   -1.14945541888069      1.38151415675740     -0.47749176562544
  O   -0.50379267733809      2.10128240288483     -1.23111260400035
  O   -2.32194426066735      1.52163005494630     -0.14609215563790
