14
Coordinates from ORCA-job run
  C   1.06674164830816      0.02458282436319     -0.24027181696572
  C   -0.39553743042515      0.31553459538521     -0.56906447779014
  Cl  1.83367840103530     -0.71775509561960     -1.66711684182150
  H   -0.53235888130607      0.67216436215766     -1.58770839101541
  H   1.56187470797816      0.99484025108153     -0.11813998520086
  N   1.16566432190445     -0.87990892044239      0.87092052204478
  H   0.82783721081826     -0.41737356219505      1.70754458189987
  H   2.13045283757379     -1.15145588235876      1.01133462555356
  N   -0.97439110016092      1.35622429691076      0.34195955421373
  O   -0.39863074912154      1.57767200770959      1.40445280303932
  O   -2.00301748431654      1.88918055146014     -0.05829828669155
  N   -1.23712501915737     -0.91917598838088     -0.40278933562153
  O   -1.24196414923219     -1.67520428384756     -1.36378535584919
  O   -1.80422431389831     -1.06832515622384      0.67096240420465
