14
Coordinates from ORCA-job run
  C   1.08879925176749      0.06915168431973     -0.33196176972836
  C   -0.41975425269857      0.21187082034161     -0.57072301704260
  Cl  1.65764021131776     -1.06489400538134     -1.61430697272744
  H   -0.63788435371104      0.64597874649327     -1.54526833876356
  H   1.52334358719851      1.03690155001640     -0.57923180121943
  N   1.51505579052139     -0.31522213067660      0.95563753089662
  H   0.96068352319269     -1.04482182472855      1.37509929563387
  H   1.68846455972807      0.46264254385995      1.57195575028150
  N   -0.97528327733814      1.14905987218550      0.46856077817964
  O   -0.44513693864678      2.25476791692023      0.47314500159707
  O   -1.86645653170713      0.75352965184252      1.20710587179999
  N   -1.17202603400248     -1.07283138730941     -0.49093579155260
  O   -2.06148498736567     -1.22885372079260     -1.32131300143518
  O   -0.85596054825611     -1.85527971709069      0.40023646408047
