14
Coordinates from ORCA-job run
  C   0.98258286477184     -0.25025826113625     -0.03394062262460
  C   -0.44308882564896      0.16876371352458     -0.36751492772907
  Cl  0.94680622860868     -1.49394471768845      1.29575437360146
  H   -0.43164256312869      1.10867754923664     -0.91879298166882
  H   1.37670177541253     -0.78743155464299     -0.89541631035929
  N   1.77080536418873      0.89643240549897      0.23163119088011
  H   1.44005263904444      1.39272503338757      1.04975874914307
  H   2.74278359594455      0.64647774970706      0.35652329875908
  N   -1.24504064659373      0.41476561666764      0.88153206391521
  O   -2.16320201607795     -0.34091918341371      1.15407811687681
  O   -0.84781899531069      1.37153800709002      1.53913384052857
  N   -1.18742726545931     -0.81407986182381     -1.21858470728985
  O   -0.69962711947601     -1.92417721195852     -1.39723270523871
  O   -2.24188503627541     -0.38756928444873     -1.67692937879394
