14
Coordinates from ORCA-job run
  C   0.97534248112315      0.26043955835007     -0.06347110234778
  C   -0.51968029759922      0.21105090838134      0.23743883952172
  Cl  1.30511888130218      0.29485561709839     -1.80538186548310
  H   -0.68138408795703      0.36096726915778      1.30655348957527
  H   1.33915036686787      1.21936067267032      0.31706195469729
  N   1.56776358505613     -0.92354183085443      0.51192694167816
  H   1.56094114360470     -0.86433593655650      1.52465996642159
  H   2.52606489110845     -1.01925795980394      0.20134245432528
  N   -1.10929963374523     -1.12007577300156     -0.08770606765020
  O   -1.13380002943152     -1.45671724718862     -1.26236526185943
  O   -1.49494856458320     -1.76955994665337      0.88166681319783
  N   -1.26638295284643      1.32147638348549     -0.44576076913883
  O   -2.31563531425024      1.05974371967574     -1.01391643114933
  O   -0.75325046864963      2.42559456523929     -0.30304896178846
