14
Coordinates from ORCA-job run
  C   1.05283237216965      0.17150287334263     -0.14921414194108
  C   -0.44866669859727      0.21261073980707      0.18030048739686
  Cl  1.26610245297915     -0.45242127208905     -1.80632086769187
  H   -0.59463603178769      0.32357548223650      1.25520424968668
  H   1.39802908360901      1.20617079510149     -0.16187632594901
  N   1.84866918326176     -0.58410365266226      0.76403335565013
  H   1.44733781805790     -1.49389892816854      0.94930989565780
  H   2.00198494961307     -0.08095333836708      1.62773645322120
  N   -1.12645162335125     -1.07048114034528     -0.20264654033661
  O   -1.88383002859223     -1.07398640983402     -1.16006918570561
  O   -0.79702153190754     -2.03056245054365      0.48868634536249
  N   -1.19863926355336      1.34627136880244     -0.45357337316178
  O   -2.34220161327305      1.49591866388109     -0.03607710529112
  O   -0.62350906862816      2.02935726883866     -1.29349324689808
