14
Coordinates from ORCA-job run
  C   1.07060474885387      0.02065229864503     -0.22342809409074
  C   -0.38380952026334      0.33391543344572     -0.56619663589883
  Cl  1.85282533849538     -0.69058919672587     -1.65763849509131
  H   -0.50182653259511      0.71843501190603     -1.57700273427513
  H   1.57255745290412      0.98261920319595     -0.06791547214927
  N   1.14452784501122     -0.91392925029439      0.86463387078552
  H   2.10501747449684     -1.19614139339057      1.01343155373970
  H   0.79650143673964     -0.47129193868612      1.70780026271924
  N   -0.96714270638068      1.35560693024421      0.36298223259881
  O   -0.40700196463374      1.54243766343903      1.44038121139343
  O   -1.98347084737736      1.91010488989467     -0.03944513262806
  N   -1.23893881228469     -0.89684657014353     -0.44563361242324
  O   -1.23514518845602     -1.62697190495231     -1.42647702592043
  O   -1.82469872451014     -1.06900117657785      0.61450807124033
