14
Coordinates from ORCA-job run
  C   1.12533979514566     -0.02743661186550     -0.18824382074118
  C   -0.31729093633965      0.29692296005728     -0.59736925844697
  Cl  1.74044793917664     -1.12510695424305     -1.47926340962087
  H   -0.36128747619408      0.82111362841627     -1.55091476083911
  H   1.68339879634974      0.90151145472124     -0.29827011159733
  N   1.34046547746157     -0.54648422249839      1.10579059378041
  H   0.66714746228246     -1.24213729240970      1.38648781013376
  H   1.49162187973406      0.16601133588122      1.80232911414023
  N   -0.90933646665774      1.21236090806562      0.44120009367784
  O   -1.93009617402054      0.86844992518324      1.02074933903645
  O   -0.27346393261024      2.24697742648867      0.61101070735792
  N   -1.19712154438753     -0.90031216201169     -0.72096800641767
  O   -1.97699753402409     -0.90072617743405     -1.66792900491978
  O   -1.08382728591626     -1.77214421835116      0.13539071445631
