14
Coordinates from ORCA-job run
  C   1.09306180335285      0.07320787193581     -0.31408805385266
  C   -0.41184310663803      0.19834158269695     -0.58202595612587
  Cl  1.69597068637848     -1.07378404528493     -1.56978946834047
  H   -0.61745923366269      0.61439014703674     -1.56702730020714
  H   1.52303923683353      1.04138085866124     -0.56789297937396
  N   1.49803977168973     -0.28709299507645      0.98659992784924
  H   1.66333908271647      0.49993097407772      1.59307030761297
  H   0.94329680189788     -1.01424121471387      1.40936218287066
  N   -0.99155488466699      1.14756008058098      0.43244275053088
  O   -0.48503481228496      2.26405053466184      0.41222363142460
  O   -1.87379742828146      0.74939009586870      1.18033408315421
  N   -1.15598322541898     -1.09083569557774     -0.49345000501620
  O   -2.04154819564031     -1.25875943142009     -1.32569285660081
  O   -0.83952649627551     -1.86353876344690      0.40593373607456
