14
Coordinates from ORCA-job run
  C   -0.84040643157868      0.09159204889101     -0.21026362932781
  C   0.59861590288380      0.46415170199823     -0.51015915580033
  F   -1.25011538611330     -0.93514774294044     -0.99468005822034
  H   0.84805289881545      1.34685279263507      0.08232653614660
  H   0.62430230632802      0.75088319553768     -1.56561783021377
  C   -1.76979669288052      1.21771035952040     -0.34688276428825
  N   -2.49277455716893      2.13062519863813     -0.49914872314885
  N   -0.90948735311493     -0.38461280097963      1.24699580116053
  O   -0.68866218008792      0.48876595135056      2.07576614644404
  O   -1.11736947253337     -1.57065176955915      1.44104112174256
  C   1.56065209557216     -0.68575365063565     -0.23070915907696
  H   1.24410155297736     -1.59801150723045     -0.73738863324689
  H   1.63777035639178     -0.89182870487526      0.83846854929513
  H   2.55711696050909     -0.42457507235050     -0.58974820146564
