14
Coordinates from ORCA-job run
  C   -0.95201155367420      0.04720376475746     -0.21335888454593
  C   0.34373208139647     -0.45231026536938     -0.81942486089861
  F   -2.01152824757055     -0.43837804169678     -0.91232148013082
  H   0.36207989334221     -0.07784272556194     -1.84707102412180
  H   0.25167897474371     -1.54162670391116     -0.86566508355404
  C   -1.04109552361152      1.50881555190252     -0.14204667868604
  N   -1.09060304460638      2.68200639269369     -0.16574951976995
  N   -1.06013887733877     -0.51318271620799      1.20833060841125
  O   -0.68099739559255      0.21600161876813      2.11707933885384
  O   -1.44865243535308     -1.66853012169568      1.28964971199524
  C   1.58841181321330     -0.02062279934250     -0.05288515283392
  H   1.62318949066224     -0.45911524566288      0.94516020875763
  H   2.47860097673639     -0.34737561339096     -0.59188314730742
  H   1.63733384765274      1.06495690471746      0.05118596383056
