15

C	-0.519672	0.001916	-1.440429
C	0.0	0.0	0.0
F	-0.157039	-1.171836	-2.086325
H	1.10059	0.0	0.0
C	-1.99756	0.072644	-1.441977
N	-3.169891	0.130328	-1.455877
C	0.007418	1.145909	-2.200821
N	0.408887	2.064882	-2.810691
N	-0.551048	-1.194747	0.649084
H	-0.097607	-1.249622	1.557008
H	-0.217546	-2.006044	0.135277
N	-0.474979	1.217685	0.611444
H	0.24173	1.611314	1.205747
H	-1.316684	1.031759	1.143495
Cl	3.356527	0.0	0.0
