15

C	-0.525468	0.063218	-1.436433
C	0.0	0.0	0.0
F	-0.160526	-1.076745	-2.137969
H	1.100578	0.0	0.0
C	-2.004519	0.124826	-1.429458
N	-3.177617	0.169663	-1.437235
C	-0.00844	1.243992	-2.146162
N	0.384073	2.182769	-2.731847
N	-0.546107	-1.220963	0.602391
H	-0.051784	-1.339174	1.482208
H	-0.254812	-2.006501	0.027152
N	-0.473488	1.190862	0.664256
H	-1.304123	0.975128	1.202825
H	0.249887	1.566507	1.263153
Cl	3.355875	0.0	0.0
