15

C	-0.508168	-0.00088	-1.452874
C	0.0	0.0	0.0
F	0.079423	-1.018229	-2.162118
H	1.099995	0.0	0.0
C	-1.97128	-0.211836	-1.460343
N	-3.131402	-0.389841	-1.454114
C	-0.220589	1.276708	-2.134419
N	0.005766	2.290405	-2.682105
N	-0.459508	-1.215766	0.618848
H	-1.324168	-1.061536	1.124147
H	0.256287	-1.582042	1.231066
N	-0.560189	1.198045	0.642075
H	-0.026216	2.00654	0.33156
H	-0.356056	1.10874	1.632589
Cl	3.357822	0.0	0.0
