15

C	-0.481352	-0.01703	-1.462994
C	0.0	0.0	0.0
F	0.128168	0.985077	-2.176669
H	1.099974	0.0	0.0
C	-0.185153	-1.307403	-2.115269
N	0.048805	-2.331089	-2.640193
C	-1.941952	0.205017	-1.506494
N	-3.098806	0.4032	-1.517034
N	-0.564916	-1.193555	0.645451
H	-0.411852	-1.078716	1.642045
H	-0.002564	-1.996988	0.376936
N	-0.466023	1.223262	0.594949
H	-1.355049	1.08455	1.063924
H	0.228878	1.581181	1.237525
Cl	3.358792	0.0	0.0
