15

C	-0.527376	0.031858	-1.438574
C	0.0	0.0	0.0
F	-1.911929	-0.109552	-1.432572
H	1.100481	0.0	0.0
C	-0.228423	1.308528	-2.111095
N	-0.023066	2.342135	-2.628497
C	0.022374	-1.086778	-2.223768
N	0.415209	-1.992594	-2.858662
N	-0.458187	-1.233867	0.585322
H	-1.355409	-1.092352	1.031418
H	0.225629	-1.56765	1.249573
N	-0.536417	1.177501	0.704674
H	-0.087902	2.008239	0.324831
H	-0.179613	1.101264	1.652865
Cl	3.344285	0.0	0.0
