12
Coordinates from ORCA-job run
  C   0.76463730169790     -0.28753371812481      0.01905574693702
  C   -0.54982016419626      0.35332032659081      0.51767541113294
  H   0.83988000421185     -1.28194295117323      0.47178132330826
  H   -0.61427531223846      1.37115746451521      0.11072814942869
  H   -0.48181268535039      0.43097194323312      1.60515560413984
  C   1.92798298271140      0.51397440051901      0.41140237285363
  N   2.82980627209685      1.17444296181302      0.76943224704077
  C   0.71201149863306     -0.45101569684399     -1.43786391035985
  N   0.60302384302146     -0.56181136600091     -2.60127855725856
  N   -1.64792384554226     -0.52948008545396      0.16530008572355
  H   -1.93727121567503     -0.37499737837420     -0.79261340611346
  H   -2.44623867937013     -0.35708590070008      0.76122493316718
