12
Coordinates from ORCA-job run
  C   0.56235478619372     -0.26941638086447     -0.52983177166953
  C   -0.67174000067617      0.46569819382313      0.04784991512287
  H   0.19454086863346     -1.13023660342774     -1.09779224540310
  H   -1.24951546720361      0.85051206867855     -0.79559189531431
  H   -0.31611149911065      1.32601198976348      0.62685207725736
  C   1.39435080272960     -0.76884391767128      0.56972683409468
  N   2.02496488801912     -1.14130076475924      1.48680376015381
  C   1.33636183459531      0.60258499201965     -1.41885718413174
  N   1.89303078249819      1.32274409736222     -2.15996350451010
  N   -1.45743801123203     -0.48720625671639      0.81031923720034
  H   -1.26630184247334     -0.41947517780785      1.79993236946743
  H   -2.44649714197361     -0.35107224040005      0.66255240773231
