16

C	0.0	0.0	0.0
C	-0.551777	-0.189145	-1.399363
F	1.361492	0.0	0.0
H	-1.641503	-0.055996	-1.355999
H	-0.278835	-1.161041	-1.79443
C	-0.510049	1.197449	0.744517
H	-0.234356	2.097628	0.195362
H	-0.060544	1.211483	1.736332
H	-1.598228	1.129029	0.81472
N	-0.337559	-1.276243	0.799381
O	-0.600264	-2.30091	0.180528
O	-0.204184	-1.194124	2.015005
N	0.047169	0.815001	-2.318307
O	-0.284924	1.992643	-2.18995
O	0.84193	0.396443	-3.163428
Cl	-3.687495	0.0	0.0
