16

C	0.0	0.0	0.0
C	-0.585529	-0.020901	-1.388618
F	1.359835	0.0	0.0
H	-1.646539	-0.301661	-1.318046
H	-0.519483	0.97072	-1.83475
C	-0.52884	1.157833	0.801743
H	-0.122134	1.097541	1.81112
H	-1.621479	1.109166	0.820194
H	-0.202597	2.089598	0.333987
N	-0.352839	-1.296271	0.749184
O	-1.077472	-2.120965	0.211719
O	0.159345	-1.396786	1.862187
N	0.11118	-0.931717	-2.339134
O	0.742211	-1.889041	-1.90027
O	-0.01613	-0.656059	-3.53165
Cl	-3.751642	0.0	0.0
