12

C	-0.543279	0.08333	-1.406884
C	0.0	0.0	0.0
Br	0.48101	1.309461	-2.517588
H	1.091195	0.0	0.0
H	-1.578781	0.402988	-1.503296
H	-0.314533	-0.949472	0.448288
N	-0.509928	-1.268132	-2.067878
O	-1.491879	-1.557125	-2.756508
O	0.469472	-1.979297	-1.883174
C	-0.527659	1.099228	0.782617
N	-0.946865	2.003541	1.407315
F	2.508114	0.0	0.0
