12

C	-0.381057	-0.049659	-1.450512
C	0.0	0.0	0.0
Br	0.231999	-1.686401	-2.283876
H	1.092843	0.0	0.0
H	0.045367	0.775649	-2.016124
H	-0.373754	-0.880104	0.526363
N	-1.873303	0.02329	-1.685904
O	-2.592369	-0.717351	-1.024561
O	-2.261821	0.840859	-2.520288
C	-0.522453	1.210131	0.605104
N	-0.934224	2.201914	1.085011
F	2.521211	0.0	0.0
