12

C	-0.354191	-0.000888	-1.458843
C	0.0	0.0	0.0
Br	0.22511	-1.63561	-2.32
H	1.092445	0.0	0.0
H	0.115454	0.822812	-1.991393
H	-0.38416	-0.893392	0.494772
N	-1.835994	0.128007	-1.727208
O	-2.595453	-0.601215	-1.098602
O	-2.176002	0.974786	-2.553496
C	-0.520363	1.195889	0.633951
N	-0.931433	2.175314	1.138955
F	2.521968	0.0	0.0
