12

C	-0.235225	-0.032533	-1.472467
C	0.0	0.0	0.0
Br	-2.119866	-0.002025	-2.068796
H	1.095555	0.0	0.0
H	0.216598	-0.899887	-1.947296
H	-0.372195	0.925824	0.439646
N	0.414962	1.163046	-2.117988
O	0.266532	2.251772	-1.574812
O	1.018871	0.95469	-3.166405
C	-0.544481	-1.163112	0.656715
N	-0.966211	-2.115033	1.203547
F	2.496312	0.0	0.0
