14
Coordinates from ORCA-job run
  C   0.34595205701197     -0.93711678573951     -0.02746956785067
  C   -0.62351079968392     -0.00010539160772     -0.03199581923083
  H   0.02469496065714     -1.97949871268798     -0.05756160091098
  C   1.83021115088687     -0.72074924881919     -0.02584008384643
  H   2.29469848155001     -1.16755119481865      0.85920743349854
  H   2.10269159410795      0.33443691723965     -0.04307331953878
  H   2.29448727902850     -1.19103710766611     -0.89868806642480
  C   -0.41002306486211      1.48534412950279      0.00764016935903
  H   -0.96229405706049      1.92413008168930      0.84641848160256
  H   -0.79716121819058      1.94144602695238     -0.90749867989632
  H   0.63635591534074      1.75885174034742      0.12231192627129
  N   -1.98474692920371     -0.33560430735517     -0.19114440487353
  H   -2.16095952519738     -1.32226560170897     -0.05947804577386
  H   -2.59139584438502      0.20971945467175      0.40617157761480
