14
Coordinates from ORCA-job run
  C   0.34188399814335     -0.92497762644365      0.16217464351320
  C   -0.62365087840208     -0.00434629088281     -0.03186580353280
  H   0.01701913386120     -1.94967466011367      0.34888664399380
  C   1.82698345088107     -0.71621631011386      0.12519764816103
  H   2.28252089647340     -0.91733614327199      1.10046262517380
  H   2.29745468053567     -1.39775619347390     -0.59034554073469
  H   2.10278891214493      0.29753118758871     -0.16478961204134
  C   -0.40411651290582      1.45662569706106     -0.29761737903412
  H   -0.78854114946076      1.71602867504354     -1.28769544029154
  H   0.64339936044389      1.74343516249846     -0.23952879587459
  H   -0.95454675738278      2.06081713050245      0.43221295153260
  N   -1.98647480357030     -0.36023521451863     -0.12087423960888
  H   -2.16545698155608     -1.29866601034167      0.20949996760901
  H   -2.59026334920569      0.29677059646597      0.35428233113452
