14
Coordinates from ORCA-job run
  C   0.49889620506431     -0.62631623651698     -0.59822313434759
  C   -0.58427344709728      0.07451855667621     -0.20705923125171
  H   0.40739695511538     -1.20398353291600     -1.51926578695275
  C   1.82212357016864     -0.73262754955481      0.10053639601004
  H   2.08176597626061     -1.77997463652870      0.28358397413423
  H   2.62887254345583     -0.30784668910855     -0.50595666334493
  H   1.83153022615579     -0.22411649077571      1.06447717230696
  C   -0.67768272019351      0.93676620664313      1.01812171698377
  H   -1.43332549256880      0.53478652701916      1.69839439737046
  H   -0.99374113079276      1.94969593694350      0.74468996198177
  H   0.26763944753659      1.01878367133187      1.54967997001203
  N   -1.82194492027316     -0.02961716055340     -0.87729756916043
  H   -2.28947890085359      0.86207248120680     -0.96842750387993
  H   -1.73777831197805     -0.47214108386653     -1.78225369986193
