14
Coordinates from ORCA-job run
  C   0.39992313927657     -0.82025057494462     -0.40716744639855
  C   -0.61299330584477      0.02066495859920     -0.11627149076143
  H   0.14603630221132     -1.72610503903704     -0.96008177290865
  C   1.85621364083804     -0.64490774237178     -0.09366659188734
  H   2.06661715424097      0.29119427588914      0.42351010393503
  H   2.45719999116982     -0.65382965704373     -1.00876236132393
  H   2.22617824360213     -1.46039330482375      0.53626481206133
  C   -0.49192778401830      1.31600863656229      0.63291790851803
  H   -1.17147318625734      1.32129776042654      1.49268881824288
  H   -0.78280201404119      2.14791144100758     -0.01419569633427
  H   0.51382764829884      1.49533446354004      1.00610601637862
  N   -1.92002889253733     -0.18883856496304     -0.60481391585512
  H   -2.63059844135642      0.02419084909653      0.08211753317763
  H   -2.05517249558233     -1.12227750193736     -0.96864591684422
