14
Coordinates from ORCA-job run
  C   0.36367617963776     -0.89774860957451     -0.24547425705477
  C   -0.58629164645618      0.05819661283748     -0.20688944248592
  H   0.11877859116465     -1.81553831876549     -0.78253539872955
  C   1.71844900645302     -0.87081558927235      0.39770241320070
  H   1.90312509724047      0.04820398209121      0.95388466596100
  H   1.83595959291501     -1.70449679796826      1.09758410919950
  H   2.51282705450319     -0.96984377604453     -0.34919504792189
  C   -0.46345854723957      1.39203012074160      0.47108679676256
  H   0.52710144709369      1.56519292891926      0.88555509638331
  H   -1.20151678028787      1.46989151225030      1.27398023480987
  H   -0.67208782038944      2.19919279226110     -0.24023457615693
  N   -1.88104540082062     -0.15553749476455     -0.72541375644930
  H   -1.93316028154552     -0.97204940319712     -1.31916943261214
  H   -2.24335649226859      0.65332204048586     -1.21188140490643
