14
Coordinates from ORCA-job run
  C   0.92643311504142     -0.01254542936332     -0.22672963432083
  C   -0.35242841681184      0.34104326652527      0.00991487574411
  H   1.62706987662279      0.76614903061849     -0.50885480101588
  C   1.41450553189358     -1.43258386911315     -0.15418073980287
  H   0.90570386300832     -2.07728213016306     -0.87990840215671
  H   2.48406160252815     -1.49209655717561     -0.35932799318616
  H   1.25508312540811     -1.87297139243705      0.83819524580702
  C   -0.84644324194046      1.75242548360237     -0.10065209304864
  H   -1.26958096578417      2.09667084466789      0.84997026708131
  H   -0.03806095921006      2.42971367753277     -0.37624112283659
  H   -1.63573080565177      1.82174499961325     -0.85502651980442
  N   -1.36230747816720     -0.59789271785014      0.27301349675316
  H   -1.01710497356531     -1.48254561074542      0.61631767984255
  H   -2.09220027337155     -0.24082959571230      0.87250974094395
