13
Coordinates from ORCA-job run
  C   0.73163175443957      0.40539975786027     -0.10517164137969
  C   -0.63416792744032     -0.05553389159506      0.43774290462717
  Cl  1.50668165774559      1.49103755692684      1.13533637298389
  H   -0.44348786109449     -0.59587527349465      1.37392660802264
  H   0.58451659283297      1.02864697266232     -0.98866206853445
  N   1.51327207976822     -0.73404446269623     -0.44371347904909
  H   1.81185210023790     -1.22597832197580      0.39084015740641
  H   2.33584383017616     -0.47480766608261     -0.97229475357835
  N   -1.35611329530158     -0.93291940320533     -0.46950689885269
  H   -1.69900677488262     -0.40361325639045     -1.26300334202381
  H   -0.70452166915056     -1.62764816931965     -0.81675954311184
  C   -1.47744884828626      1.10074602442768      0.75832958863341
  N   -2.17105163904458      2.02459013288267      0.96293609485642
