13
Coordinates from ORCA-job run
  C   0.74875304660473      0.49351330286784     -0.08933295735472
  C   -0.58118650500346     -0.09815036058677      0.38839759368792
  Cl  1.59019585892257      1.25051981724488      1.33315792675123
  H   -0.34440637350219     -0.86403151669549      1.14634681779949
  H   0.54103457439646      1.30395269613667     -0.78718564254096
  N   1.50818441128031     -0.52391326867732     -0.73402929139430
  H   1.88789726500870     -1.17348935588421     -0.05491966454212
  H   2.27418468385929     -0.13137080258555     -1.26508737887946
  N   -1.28309227996444     -0.58805072458242     -0.78901456280745
  H   -2.15302850519269     -1.03300448775380     -0.52446010157729
  H   -0.68688647989163     -1.25820323477183     -1.25853471772871
  C   -1.40744588939104      0.91975945813811      1.04763842455480
  N   -2.09520380712662      1.70246847714988      1.58702355403156
