13
Coordinates from ORCA-job run
  C   0.90209462838092      0.30953970341112      0.30706308538218
  C   -0.58255601021691      0.08961118570676      0.63117403455355
  Cl  1.90583991432200     -0.61044182483213      1.44767462693643
  H   -0.75762426155815      0.39617200696706      1.66709217857002
  H   1.14575998211000      1.36382892666600      0.48168848102485
  N   1.15856157481814     -0.15348860363522     -1.04367757959858
  H   0.84917296675684      0.55205447642672     -1.70427205061084
  H   2.15021140279184     -0.30057794718910     -1.18168784419880
  N   -0.92716119730821     -1.30514838066233      0.47878475979260
  H   -1.92090761022803     -1.44853593383501      0.59988682503279
  H   -0.64888778473837     -1.61051628583545     -0.44603982173509
  C   -1.34210905367272      1.00783908693211     -0.25082546595363
  N   -1.93239455145734      1.70766358987946     -0.98786122919546
