13
Coordinates from ORCA-job run
  C   0.92139935997071      0.27429401637997      0.28473752049466
  C   -0.56594047183854      0.13135769417262      0.63921319358748
  Cl  1.90249149172319     -0.66585268392720      1.42860074815396
  H   -0.70788816054304      0.47207964694036      1.66955332201709
  H   1.21720245745669      1.31955146633383      0.43137771575776
  N   1.13180496387810     -0.23094698252383     -1.05856822009222
  H   0.82970273852523      0.46761472061482     -1.73026451638880
  H   2.11504447993796     -0.41239866145691     -1.21464126694379
  N   -0.97686566151251     -1.24986961497279      0.52929520582441
  H   -0.72219296071515     -1.59273522660966     -0.38927874033994
  H   -1.97540392235779     -1.34172113204451      0.66081936150343
  C   -1.29825513055799      1.06133162631607     -0.25309938422417
  N   -1.87009918396688      1.76829513077722     -0.99774493934987
