13
Coordinates from ORCA-job run
  C   0.90849504695305     -0.10910785547445      0.01640272556766
  C   -0.60123697753726      0.06309384872944      0.21152742496363
  Cl  1.27279576615764     -1.68838197122199     -0.70419830343422
  H   -0.74551257181544      1.11482140445661      0.51580407481870
  H   1.37236061734055     -0.12853678192506      1.01270149428623
  N   1.38712079864143      0.92871998710770     -0.86736254685115
  H   1.35701074109669      1.82490081983666     -0.39380143363632
  H   2.34508078043615      0.74545545087932     -1.13816850401194
  N   -1.10694499367779     -0.89733799302163      1.18165382352027
  H   -0.82228611058957     -0.62317414200480      2.11441007367053
  H   -2.11834820469572     -0.92289354557283      1.15861076201441
  C   -1.30611573423955     -0.09641324970055     -1.06357623431674
  N   -1.94141915807019     -0.21114597208846     -2.04300335659106
