13
Coordinates from ORCA-job run
  C   0.83290225152189     -0.12399307648199      0.07455785572011
  C   -0.66602248619468      0.18275815816547      0.22814449455685
  Cl  1.04688577379004     -1.76077701940984     -0.60545010464608
  H   -0.72845063513629      1.20200205197414      0.63391124515474
  H   1.26285406725481     -0.18045734523370      1.08457681308337
  N   1.44240772160388      0.82915329130734     -0.81322616250656
  H   1.36221143001002      1.76336507865838     -0.42735043716747
  H   2.42319840481574      0.61933235944108     -0.95054050329308
  N   -1.41132337437500     -0.68314684737655      1.12146281271296
  H   -1.34467369030209     -1.64395902075532      0.80792762064138
  H   -1.03585455411727     -0.62388840477899      2.06016627927290
  C   -1.31418432199567      0.20444555331691     -1.09019790799722
  N   -1.87195058687539      0.21516522117313     -2.12198200553191
