13
Coordinates from ORCA-job run
  C   0.88954562249419      0.51282615164139      0.04342379655818
  C   -0.48191370075485     -0.12434465181245      0.35209857278831
  Cl  1.54912091450165      1.18647738661755      1.55225817293812
  H   -0.30654725013890     -0.92473383581391      1.07807495111638
  H   0.73861552792496      1.35388032469173     -0.63975941380288
  N   1.84177998690979     -0.39681858728353     -0.53211623462014
  H   1.38137939265921     -0.87427512110743     -1.30051471296635
  H   2.10868624292307     -1.09185461296940      0.15674421322266
  N   -0.99035326905061     -0.71955127604485     -0.88075794966534
  H   -1.71917737916761     -1.39078928853192     -0.67196023222867
  H   -1.40056100612434     -0.00152377553062     -1.46777226122442
  C   -1.41243965480078      0.84835014423481      0.95036403203883
  N   -2.19713542737577      1.62135714190863      1.35891706584531
