13
Coordinates from ORCA-job run
  C   0.92466620896434     -0.01776982177275      0.17926169289375
  C   -0.57944930771589      0.14746943380096      0.38345304568778
  Cl  1.21283347159648     -1.65760725362544     -0.60261694822409
  H   -0.69116568427765      1.10200335843043      0.90758837723168
  H   1.38548498607106     -0.10273167818372      1.16260675052816
  N   1.46354055797141      1.07199071537610     -0.53980114058365
  H   1.11233250535462      1.10901701290467     -1.48962826674009
  H   2.47376954741085      1.04024933162901     -0.56438670248667
  N   -1.10907818340566     -0.90048914525712      1.23359550617855
  H   -2.06818711535962     -0.69340572649063      1.48288095310478
  H   -1.09379616923733     -1.78752203629589      0.74478010384022
  C   -1.24527088688951      0.28932905877664     -0.92949854055220
  N   -1.78467993048307      0.39946675070774     -1.96723483087824
