13
Coordinates from ORCA-job run
  C   0.77417381732138      0.46950222741256     -0.22227671917424
  C   -0.49336282716815     -0.02685081288007      0.49410634871792
  Cl  1.65470367878010      1.53249725898341      0.99983859848898
  H   -0.21002816746480     -0.32053274357412      1.50963826498697
  H   0.52127006140886      1.17075026329911     -1.01850091261867
  N   1.52456776514087     -0.59890232676864     -0.74610096481493
  H   2.40313812260912     -0.29077608352766     -1.13934030220188
  H   1.67425367297470     -1.34068643453836     -0.07598275565099
  N   -1.04271903592975     -1.19872171411530     -0.17220531810669
  H   -1.93915583989460     -1.43605731370347      0.23621040221079
  H   -1.18024186358350     -1.01471721214559     -1.15863327960392
  C   -1.44117963861189      1.10010456810812      0.61178786680742
  N   -2.24541974558233      1.95339032345002      0.68045877095925
