13
Coordinates from ORCA-job run
  C   0.83187451345678      0.49962655667812     -0.15835661753540
  C   -0.48168204553741      0.00776990711666      0.45865144703507
  Cl  1.47131631590682      1.83800791281260      0.84320384502974
  H   -0.23265272600582     -0.33901901239625      1.46582770812579
  H   0.62615446147955      0.95615099721286     -1.13611895619173
  N   1.75460518482009     -0.59535376140911     -0.16039319631050
  H   2.57394208570151     -0.37889631802554     -0.71258875285563
  H   1.27892291516811     -1.40449324158458     -0.54369582277191
  N   -0.97010006104267     -1.12966873749918     -0.31788111372412
  H   -1.45444130364057     -0.80357458495346     -1.14671197213107
  H   -1.63034413309305     -1.66769817469242      0.22940040288304
  C   -1.46563680149361      1.09841520265389      0.56599040103444
  N   -2.30395840571973      1.91973325408643      0.61067262741228
