13
Coordinates from ORCA-job run
  C   0.96917816900730      0.34727251158200      0.24318953531238
  C   -0.52689275726977      0.11421134522470      0.53316498275929
  Cl  1.86713552569862     -0.62559435846140      1.50528642814556
  H   -0.72197619673899      0.34207475950946      1.59004289565039
  H   1.23042565771781      1.38243351429515      0.46287606302892
  N   1.35739395675344     -0.00735422634241     -1.06463292607687
  H   0.75589260218579     -0.72179777418396     -1.45183372598549
  H   1.46454883023609      0.78414540008124     -1.67833431545006
  N   -0.87657875436591     -1.24559308290313      0.13718323210034
  H   -0.46254932944278     -1.89596576689411      0.79502971141698
  H   -1.88057378522683     -1.37304410826942      0.15257010684621
  C   -1.28997090966973      1.06432825172582     -0.28491421594025
  N   -1.88603300888505      1.83488353463602     -0.93962777180740
