13
Coordinates from ORCA-job run
  C   0.94364013536108      0.38745854171728      0.27249455744473
  C   -0.54469556698936      0.07534302466906      0.52324711439212
  Cl  1.86061373454062     -0.56864904430374      1.53677965991917
  H   -0.77279045164255      0.26654200731395      1.58072065762101
  H   1.14967010126922      1.42837084604650      0.52143242589555
  N   1.37470413525651      0.08083612218398     -1.03265610009274
  H   0.81071925812284     -0.64338076585634     -1.45578999569608
  H   1.48264012633960      0.88927576728254     -1.62313303671606
  N   -0.81892195296892     -1.28927205916224      0.08653337046577
  H   -1.81531187272196     -1.46723202698436      0.08193776349506
  H   -0.38276463962261     -1.93495716451864      0.73469936061573
  C   -1.33565638124430      1.00823433906538     -0.28859076237445
  N   -1.95084662570014      1.76843041254666     -0.93767501496976
