13
Coordinates from ORCA-job run
  C   0.80391021273277      0.44040730981865      0.24549670889528
  C   -0.68045772670888      0.14707498565591      0.53790009420172
  Cl  1.76724707769051     -0.43173538750238      1.55351258545505
  H   -0.85985291385439      0.37239258834260      1.59363165670450
  H   1.01645816796460      1.49641452851040      0.41314186432610
  N   1.15402509325785      0.07629499264508     -1.07107859456297
  H   2.06652303675597      0.42146521153086     -1.33429350166123
  H   1.13035026013468     -0.92596865692934     -1.20258047010065
  N   -1.12995780508278     -1.20770993005674      0.28919562047122
  H   -1.08073318309549     -1.43824874247013     -0.69449226445872
  H   -0.58822885412159     -1.86836719073019      0.83149553612823
  C   -1.48652050907211      1.08164653698559     -0.25998220017476
  N   -2.11276285660113      1.83833375419968     -0.90194703522377
