13
Coordinates from ORCA-job run
  C   0.88975621367080      0.49419811093814     -0.14236822903951
  C   -0.46031212302735     -0.02251857976348      0.39871862106209
  Cl  1.63894603016898      1.52104020258371      1.10245398129546
  H   -0.24103348822333     -0.61266301982014      1.29427371032347
  H   0.69733986960364      1.13471056249609     -1.00816994570205
  N   1.80606925174717     -0.54637044191877     -0.52090075424149
  H   2.11513333991279     -1.04594966445869      0.30597461747234
  H   1.29984473570886     -1.19726404426714     -1.11290873122970
  N   -1.04133676437106     -0.90583806048749     -0.60863240095158
  H   -1.75272634205153     -1.49397478937300     -0.19239843438236
  H   -1.48963786217482     -0.35665857450373     -1.33368260776129
  C   -1.35355530442044      1.08436115619410      0.78116466938480
  N   -2.10948755654371      1.94692714238040      1.03547550376983
