13
Coordinates from ORCA-job run
  C   0.85347574156165      0.54982803806602     -0.15702442385858
  C   -0.42352700523561     -0.08778307465970      0.42997773288029
  Cl  1.65828884048671      1.48208583265039      1.12682554909341
  H   -0.10590522124735     -0.75533278895214      1.23740591224487
  H   0.56294551639933      1.26385887015472     -0.93332579429011
  N   1.77948123057095     -0.39807971134434     -0.71329868233543
  H   2.17024069526586     -0.96871865832024      0.02868661616444
  H   1.25712570213004     -1.00527789281418     -1.33673869942450
  N   -1.04892334741438     -0.89109865416664     -0.61708492419747
  H   -1.57346387310611     -0.29187599691723     -1.24500228101715
  H   -1.70363136253615     -1.54818931435549     -0.21088996080521
  C   -1.32791759879172      0.92727604346602      0.99750351345723
  N   -2.09818931808323      1.72130730719282      1.39296544208821
