13
Coordinates from ORCA-job run
  C   0.82827929872829      0.40701322039595      0.21702970579920
  C   -0.66167684884619      0.19258931197143      0.54575009432557
  Cl  1.77637383018175     -0.47492650703431      1.52914490541371
  H   -0.80933138402403      0.45554798458128      1.59770398841841
  H   1.09357345000441      1.45579072451111      0.35166465827067
  N   1.13359790098120     -0.00795137031926     -1.09588216626474
  H   1.06101067630626     -1.01124037725922     -1.19888276716064
  H   2.05588795050425      0.28630587165825     -1.38564328033295
  N   -1.17916823066178     -1.14576176703149      0.34378108139295
  H   -0.65656252037831     -1.81661289006460      0.89237626554006
  H   -1.16150933847724     -1.40415132293216     -0.63407509027159
  C   -1.43955632690644      1.14297261653097     -0.26169346961244
  N   -2.04191845741217      1.92142450499206     -0.90027392551821
