13
Coordinates from ORCA-job run
  C   0.82671134157656      0.49787756610077     -0.18865951343718
  C   -0.46836873429931      0.01554690773301      0.47364931973499
  Cl  1.49163090079168      1.85419347491329      0.77074577200055
  H   -0.18920774446481     -0.31434813429804      1.47850943026600
  H   0.59290315920446      0.93625922344903     -1.16840715950776
  N   1.75085959271617     -0.59614058812467     -0.19618919763103
  H   1.26773604386414     -1.41027895546062     -0.55916572814122
  H   2.55729248825122     -0.38585080965660     -0.76949573186240
  N   -0.97716397588340     -1.13506033407025     -0.26971239268838
  H   -1.61507421688198     -1.66891394880913      0.30725257715760
  H   -1.49119426844554     -0.82316112961109     -1.08597725619920
  C   -1.45082116709041      1.10666635767894      0.58732886563606
  N   -2.29530341933879      1.92221037015537      0.62012101467200
