13
Coordinates from ORCA-job run
  C   0.83562581194828      0.43428957604883     -0.08580914676994
  C   -0.56701178725587      0.07035990717993      0.46305602967785
  Cl  1.64358107156375      1.46206214407469      1.13774462699141
  H   -0.41675685506037     -0.40311357936332      1.44063432087003
  H   0.71933611376407      1.04328793570464     -0.98622186064363
  N   1.67904554204054     -0.68029267866493     -0.39417947715783
  H   1.39780818548850     -1.14393601494145     -1.24627829199188
  H   1.74300605252878     -1.33813093287605      0.37226293259224
  N   -1.32935969109764     -0.84292010566164     -0.37164488000960
  H   -1.51272870105344     -0.43995579146850     -1.28268561097736
  H   -0.83460225346236     -1.71747612967306     -0.48540249114072
  C   -1.36266127270863      1.28690308808474      0.66674948214297
  N   -1.99828221669559      2.26792258155615      0.77077436641646
