13
Coordinates from ORCA-job run
  C   0.91345222292112      0.12337126324894      0.19550440828824
  C   -0.60573753290171      0.12636609240317      0.34912828721946
  Cl  1.42539732415196     -1.55864660400259     -0.34327055701816
  H   -0.84892723402138      1.12170859254464      0.73430411386791
  H   1.34733387301574      0.23290882268640      1.18862930063407
  N   1.34005628253433      1.16317243490838     -0.66043229032803
  H   2.34679791235843      1.25620072182295     -0.66138080743638
  H   1.02161543943815      1.02344161271386     -1.61224981937572
  N   -1.03383586878654     -0.85447255714823      1.32695756708958
  H   -2.01785783263643     -0.73353459622471      1.53173002473799
  H   -0.89854557110660     -1.79070925106699      0.96488606107146
  C   -1.23883719662801      0.00306740777638     -0.98165862909143
  N   -1.75191181833908     -0.11187393966218     -2.03214765965900
