13
Coordinates from ORCA-job run
  C   0.88723569678559      0.49749262166190     -0.14403233074390
  C   -0.44848322745272     -0.04127882333087      0.41108019310344
  Cl  1.67834991926395      1.45818954834311      1.12737074998018
  H   -0.20538298935695     -0.67593588518117      1.26927969384989
  H   0.67217939938313      1.18151161613432     -0.97032524727958
  N   1.78682430779027     -0.52591953578966     -0.60124292183754
  H   1.26025609188654     -1.14563343005121     -1.20873949499355
  H   2.11830424133666     -1.06670910890357      0.19028379116880
  N   -1.06350062062689     -0.87181768802566     -0.62067463723567
  H   -1.52717326851547     -0.28545860111218     -1.30592663257111
  H   -1.76810917697403     -1.47399743922898     -0.21298644843463
  C   -1.32434126876592      1.04857578940076      0.87468108625069
  N   -2.06715910475416      1.90198093608324      1.19123219874299
