13
Coordinates from ORCA-job run
  C   0.94482887409507      0.04632648156588      0.28093696491534
  C   -0.59208524001341     -0.00743148485995      0.14761608102134
  Cl  1.62579390769970     -1.56807934934411     -0.01906954570510
  H   -0.92418811748444      1.03129253653229      0.32161311140236
  H   1.17675660938128      0.29981218282510      1.32015636743981
  N   1.59675799369369      0.99732059380492     -0.57512957534623
  H   1.40100490681284      0.80224412736384     -1.55013739649643
  H   1.30864269141778      1.94205329243708     -0.35199637813180
  N   -1.18413615305077     -0.97476818757777      1.05541161764095
  H   -2.19139605283136     -0.98354817443399      0.95243687709866
  H   -0.96762599013567     -0.72102277024409      2.01241426143370
  C   -0.95400822414364     -0.32861547625928     -1.23745551393628
  N   -1.24034520544108     -0.53458377180991     -2.35679687133634
