13
Coordinates from ORCA-job run
  C   0.83893652809070     -0.05040042587266      0.16819409683126
  C   -0.67873766739096      0.15150598014436      0.33018473287259
  Cl  1.11227264508202     -1.65190159057187     -0.69280599130797
  H   -0.78066413591318      1.07421768967307      0.91260262272250
  H   1.27587895711265     -0.20245101794206      1.15658158043215
  N   1.43494732862098      1.06520345722845     -0.45822648487598
  H   1.10791562007360      1.18366684596772     -1.41000132694793
  H   2.44423490896587      1.00686259897904     -0.45867730732633
  N   -1.42280739733353     -0.89207044195662      1.00204630383973
  H   -1.27292776899963     -1.78184291973351      0.54265164467815
  H   -1.11754004937703     -0.97020824188336      1.96421387240492
  C   -1.26395163900302      0.41494577535090     -0.99282962877453
  N   -1.67855732992848      0.65147229061656     -2.06493411454854
