13
Coordinates from ORCA-job run
  C   0.90839264848963      0.33114371403902      0.32446605531593
  C   -0.62082594749870      0.17870028315212      0.55520718769132
  Cl  1.71938935195943     -0.66485373568534      1.57978419374344
  H   -0.83640505582062      0.49338699484597      1.58189231833711
  H   1.19151365947411      1.36654468996188      0.52631907991914
  N   1.40187823419496     -0.03356734655379     -0.96533770156090
  H   1.10037223461407     -0.95819697063034     -1.24219793717557
  H   1.14091838204241      0.64932641895085     -1.66500920981669
  N   -1.18777169962214     -1.14106923595270      0.36605796711454
  H   -0.74526581408653     -1.80304025233205      0.99095693351305
  H   -1.07867237046915     -1.45725822865944     -0.58905261683632
  C   -1.27535952456385      1.12707324938076     -0.35633721685788
  N   -1.71816409871361      1.91281041948305     -1.10774905338714
