13
Coordinates from ORCA-job run
  C   0.83765596624786      0.43162386928282     -0.07924006233756
  C   -0.55855798604326      0.05339982488630      0.47550710233882
  Cl  1.67157485834092      1.40159541811561      1.17487946826644
  H   -0.39609549045759     -0.46513787718926      1.42803906711396
  H   0.71204244685136      1.07995885450140     -0.95039128201831
  N   1.66658074021959     -0.67446950260514     -0.44855461110229
  H   1.38067339178611     -1.08878723027424     -1.32394264310453
  H   1.72866781545774     -1.37233947709386      0.28154863351118
  N   -1.34095205767129     -0.81570930992574     -0.38735099869607
  H   -1.53528529157320     -0.37005486988912     -1.27599235102843
  H   -0.85317084045082     -1.68660105014781     -0.54931162549133
  C   -1.34228307432493      1.26413057811923      0.74864052967635
  N   -1.97085047838249      2.24239077221981      0.90716877287177
