13
Coordinates from ORCA-job run
  C   0.83030773315693     -0.13670942256069      0.06197945766973
  C   -0.66549813055644      0.17105648527293      0.24448998587476
  Cl  1.02758565396481     -1.71421089075163     -0.74917792090611
  H   -0.71633621660898      1.15455051953127      0.73180843467003
  H   1.26088218688570     -0.27831159611154      1.06341575081056
  N   1.44803347974460      0.87994772084444     -0.74656165511061
  H   1.38488603546103      1.77859409115770     -0.28117418729565
  H   2.42469600727690      0.66818669834392     -0.90829240612345
  N   -1.41636426886482     -0.75723413074296      1.06795059124859
  H   -1.03454386567003     -0.78074217663270      2.00568671890331
  H   -1.36316594830732     -1.68940769966617      0.67534866828679
  C   -1.31591131734672      0.30425500821868     -1.06583027017103
  N   -1.86557134913566      0.39902539309675     -2.09764316785693
