13
Coordinates from ORCA-job run
  C   0.89331588315164      0.00488544504259      0.21765978086739
  C   -0.65378545498892      0.09744310920377      0.21437548917299
  Cl  1.35680533770146     -1.67662441532255     -0.19225708562160
  H   -0.88500601702377      1.12627383308743      0.52064772336758
  H   1.23212919012987      0.17509781673841      1.24354448866858
  N   1.58111918897583      0.90834192140981     -0.65373415355466
  H   1.24002664279413      0.83725701077381     -1.60523270668605
  H   1.49725997516149      1.86261636922793     -0.32714154425222
  N   -1.38283491985527     -0.79473132120107      1.09293428087285
  H   -1.13821282787699     -1.75636527606296      0.88997611159477
  H   -1.14344270462610     -0.60132785327399      2.05793021411266
  C   -1.13348426085435     -0.04780415705905     -1.16734526184259
  N   -1.46289003268902     -0.13606248256415     -2.29035733669969
