13
Coordinates from ORCA-job run
  C   0.83687376151861     -0.09841474490511      0.15788580348184
  C   -0.66903620441782      0.16282698011924      0.34587500199228
  Cl  1.03012469029525     -1.65151159455240     -0.80679328008581
  H   -0.72400632660427      1.04884334196747      0.98849080477396
  H   1.27130093479840     -0.33457125507281      1.13077796880643
  N   1.48101714482968      1.02676373542603     -0.39978690192443
  H   1.15471785097988      1.22203392391904     -1.33908671062600
  H   2.48644356383738      0.92174767316215     -0.41273400816456
  N   -1.45777678934335     -0.88674972920720      0.95420870684253
  H   -1.35286020178187     -1.75015731901549      0.43577476105433
  H   -1.15029327534948     -1.04266373798937      1.90618103390450
  C   -1.24783583562496      0.53848030875427     -0.95249850415728
  N   -1.65966931313743      0.84337241739416     -2.00829467589781
