13
Coordinates from ORCA-job run
  C   0.92409698758444     -0.02733661832172      0.18067346279760
  C   -0.58076994601002      0.12495709816257      0.38949602408010
  Cl  1.21632099515797     -1.61834585387566     -0.69413613431573
  H   -0.69444121013933      1.04669456069010      0.96896635351724
  H   1.38184181118510     -0.16845634626883      1.15899541586186
  N   1.46434446102887      1.10294021419097     -0.47222016446694
  H   2.47470469581090      1.07366186051783     -0.49393911792254
  H   1.11712289471136      1.19363303536792     -1.41989216285051
  N   -1.11242204548765     -0.97158251481692      1.17462514843695
  H   -1.09752066040538     -1.82778716272728      0.63364466892731
  H   -2.07150339894852     -0.77863119329977      1.43505536754484
  C   -1.24266407952570      0.34312801337862     -0.91483214620792
  N   -1.78011050496203      0.50712490700218     -1.94643671540223
