17

C	0.0	0.0	0.0
C	-0.366503	0.128583	-1.499611
Br	2.022101	0.0	0.0
H	0.340596	0.829856	-1.953833
C	-0.445046	1.218278	0.787925
H	-0.088524	2.132648	0.314568
H	-1.536547	1.229212	0.818142
H	-0.04177	1.165144	1.802882
N	-0.547972	-1.164863	0.539837
H	-0.544931	-1.201992	1.547428
H	-0.230155	-2.027478	0.121954
N	-1.696676	0.66685	-1.63715
H	-2.000645	0.63831	-2.601988
H	-2.412741	0.198066	-1.068848
C	-0.132691	-1.179167	-2.163808
N	0.011591	-2.201951	-2.725506
Cl	-4.38876	0.0	0.0
