17

C	0.0	0.0	0.0
C	-0.514034	0.180185	-1.44035
Br	1.954807	0.0	0.0
H	-1.605024	0.274828	-1.30637
C	-0.430498	1.171637	0.874851
H	-0.061744	1.020087	1.892697
H	-0.035968	2.11916	0.502473
H	-1.523486	1.195546	0.883639
N	-0.483611	-1.288579	0.448316
H	-1.507761	-1.209653	0.445097
H	-0.188904	-1.436596	1.407529
N	-0.141144	-0.956007	-2.286848
H	-0.891067	-1.100371	-2.953783
H	-0.135762	-1.761703	-1.66665
C	-0.025579	1.430346	-2.035259
N	0.322372	2.435806	-2.532782
Cl	-3.668752	0.0	0.0
