17

C	0.0	0.0	0.0
C	-0.483682	-0.086873	-1.44827
Br	2.059131	0.0	0.0
H	-1.581897	-0.044569	-1.330009
C	-0.424037	1.288317	0.668798
H	-1.519142	1.304552	0.640496
H	-0.006135	2.156953	0.159152
H	-0.086105	1.299848	1.707793
N	-0.475632	-1.114897	0.665075
H	-0.286276	-1.151115	1.652724
H	-0.328089	-1.980034	0.167906
N	-0.123851	-1.372027	-2.035319
H	-0.756687	-1.583778	-2.795705
H	0.823766	-1.334244	-2.392454
C	-0.043724	1.065592	-2.250395
N	0.274966	1.958044	-2.945521
Cl	-3.786698	0.0	0.0
