17

C	0.0	0.0	0.0
C	-0.489524	-0.127847	-1.444418
Br	2.059158	0.0	0.0
H	-1.586996	-0.076645	-1.323745
C	-0.425456	1.306351	0.631815
H	-0.009227	2.160711	0.097017
H	-0.086148	1.348047	1.66972
H	-1.520704	1.318777	0.603761
N	-0.476483	-1.094563	0.696107
H	-0.28625	-1.105816	1.684046
H	-0.340375	-1.973058	0.219763
N	-0.141698	-1.433319	-1.993431
H	0.801347	-1.411522	-2.363441
H	-0.784195	-1.665748	-2.740199
C	-0.04817	0.997463	-2.282178
N	0.2722	1.881507	-2.987225
Cl	-3.780715	0.0	0.0
