17

C	0.0	0.0	0.0
C	-0.302405	0.233433	-1.536337
Br	1.964266	0.0	0.0
H	0.371909	1.02898	-1.872242
C	-0.510416	1.172229	0.810761
H	-0.187227	1.06493	1.846941
H	-0.138252	2.119147	0.413154
H	-1.60435	1.157268	0.776491
N	-0.501447	-1.216443	0.559963
H	-0.304086	-2.006225	-0.045773
H	-1.513567	-1.128431	0.668338
N	-1.642279	0.607533	-1.915621
H	-1.837012	1.544662	-1.58479
H	-2.35983	0.025797	-1.480098
C	0.078102	-0.986384	-2.272455
N	0.348416	-1.973785	-2.848298
Cl	-4.064136	0.0	0.0
