17

C	0.0	0.0	0.0
C	-0.510424	-0.143318	-1.433702
Br	2.059246	0.0	0.0
H	-1.606815	-0.094795	-1.292386
C	-0.418367	1.31119	0.627269
H	-0.01023	2.162071	0.080412
H	-1.513805	1.324504	0.614582
H	-0.065506	1.360949	1.660228
N	-0.46253	-1.093273	0.717535
H	-0.199211	-1.107349	1.689585
H	-0.322756	-1.968788	0.234728
N	-0.168171	-1.451241	-1.977947
H	0.762702	-1.429645	-2.377309
H	-0.83316	-1.700476	-2.698495
C	-0.086726	0.976375	-2.287157
N	0.232399	1.845955	-3.010605
Cl	-3.791133	0.0	0.0
