17

C	0.0	0.0	0.0
C	-0.335659	0.292798	-1.496504
Br	2.032397	0.0	0.0
H	0.28685	1.140803	-1.801297
C	-0.488808	1.108203	0.905372
H	-0.124386	0.954352	1.924099
H	-0.130078	2.079157	0.558194
H	-1.583471	1.081244	0.904012
N	-0.535991	-1.229681	0.380703
H	-0.185553	-2.027526	-0.129632
H	-0.571039	-1.392189	1.375076
N	-1.710498	0.595777	-1.793215
H	-2.373077	-0.007878	-1.300794
H	-1.935486	1.534179	-1.488702
C	0.091163	-0.865379	-2.307033
N	0.384339	-1.809699	-2.940907
Cl	-4.307484	0.0	0.0
