17

C	0.0	0.0	0.0
C	-0.49312	-0.150773	-1.45323
Br	2.033669	0.0	0.0
H	-1.584156	-0.017997	-1.341179
C	-0.462452	1.306858	0.604655
H	-0.093246	1.402393	1.629222
H	-0.098608	2.155723	0.025187
H	-1.558313	1.281285	0.602956
N	-0.469926	-1.094518	0.743155
H	-0.465067	-0.933414	1.738841
H	-0.019576	-1.966668	0.511664
N	-0.266557	-1.43897	-2.081249
H	0.689853	-1.742237	-1.931324
H	-0.911626	-2.105534	-1.676125
C	0.028867	0.920968	-2.310284
N	0.437036	1.777806	-3.001812
Cl	-3.772752	0.0	0.0
