17

C	0.0	0.0	0.0
C	-0.476741	-0.105779	-1.450029
Br	2.059162	0.0	0.0
H	-1.574947	-0.053913	-1.342836
C	-0.421974	1.299158	0.648178
H	0.001507	2.158282	0.126585
H	-0.085055	1.32517	1.687122
H	-1.516973	1.318864	0.617657
N	-0.48061	-1.10306	0.678154
H	-0.350626	-1.976011	0.190599
H	-0.300075	-1.128706	1.667509
N	-0.122175	-1.403342	-2.01344
H	0.831812	-1.380106	-2.354903
H	-0.742889	-1.616719	-2.784254
C	-0.019776	1.029284	-2.266998
N	0.307857	1.91178	-2.97069
Cl	-3.792752	0.0	0.0
