12

C	0.0	0.0	0.0
C	-0.548677	-0.006989	-1.395064
Cl	1.782239	0.0	0.0
H	-1.708358	-0.049053	-1.066715
H	-0.345993	-0.901488	0.504644
H	-0.26492	0.859595	-1.989218
C	-0.463066	1.179729	0.756375
N	-0.655366	2.111163	1.457265
N	-0.137493	-1.197879	-2.104145
O	0.094668	-1.115639	-3.320283
O	-0.113809	-2.265035	-1.474072
H	-2.644609	0.0	0.0
