13
Coordinates from ORCA-job run
  C   0.27368612286549     -0.82168724571329     -0.13284764671736
  C   -0.99135085275233     -0.09299004545713      0.29860632284471
  Cl  0.45932472612289     -2.28654756617551      0.89265087528070
  H   -1.83750245814022     -0.77562254309399      0.19179143914379
  H   0.14044867818208     -1.18030547641597     -1.15467609568980
  H   -0.90804458648803      0.15382205701730      1.36639010111727
  C   1.51788683787819      0.03489247075493     -0.03036208726977
  H   1.42204906134223      0.89094390639925     -0.70180482728463
  H   1.65547105846550      0.39050316310682      0.99424196363401
  H   2.40627101545037     -0.52896412793351     -0.31767827201534
  N   -1.19759762525421      1.06510244212656     -0.57001232097927
  H   -0.75566138499463      1.88541842539429     -0.17696791012894
  H   -2.18398059267733      1.26743453999026     -0.65833154193536
