13
Coordinates from ORCA-job run
  C   0.27390675328164     -0.69028731761672     -0.33159903118016
  C   -1.11201778521630     -0.15379018378519      0.03363898078442
  Cl  0.29447182881841     -2.45800563471427     -0.00459696699372
  H   -1.86589434650186     -0.73354306226091     -0.50508280400281
  H   0.42900357253817     -0.59108115488036     -1.40988881061753
  H   -1.28311345513789     -0.32750876393917      1.10029857418725
  C   1.40693062865333     -0.02837783658671      0.42691290232301
  H   2.36706567855438     -0.47154824743957      0.15996180381566
  H   1.26255608407015     -0.14563767054755      1.50360156428654
  H   1.45054579935934      1.03713898883625      0.18894997698382
  N   -1.33064989531998      1.25617439422629     -0.24725439262082
  H   -0.72529915923522      1.84291441731601      0.31015845345429
  H   -1.16650570386418      1.46355207139189     -1.22410025041997
