17
Coordinates from ORCA-job run
  C   0.85044619070964      0.04816440621207      0.33899531424185
  C   -0.63900457162550      0.35204395665722      0.05093621915696
  Cl  1.22922284667898      0.47966804335429      2.04645791948876
  H   -0.74152831577735      1.43646133232544      0.17427707948201
  C   1.78560312629749      0.84077346313456     -0.56540449532275
  H   1.61096979542915      1.90746134117691     -0.40840125024051
  H   2.82529933118600      0.61600943934066     -0.32420586738401
  H   1.57661816212043      0.59072519477665     -1.60396569953255
  C   1.07574856043506     -1.38935479830556      0.17540034075458
  N   1.21022764752929     -2.54267754694410     -0.00534841569566
  C   -1.60234378403881     -0.36266496088466      0.99392964174668
  H   -2.62740872562934     -0.11441012362219      0.70819115466066
  H   -1.48208955314394     -1.44711678723626      0.91120731944480
  H   -1.46004576982527     -0.07877556016167      2.03663925913372
  N   -0.86532136844336      0.04066522415219     -1.35961526252201
  H   -1.65625728199968      0.56886880690491     -1.70610556123016
  H   -1.08913628990278     -0.94384143088046     -1.46198769618238
