17
Coordinates from ORCA-job run
  C   0.83161827715007      0.31937259589813      0.09343729381305
  C   -0.62852032314263     -0.08258228660934      0.38141218036442
  Cl  0.86149250689485      1.88508701598221     -0.80728802834971
  H   -0.54587601666946     -0.98562236731310      1.00031442149579
  C   1.59606098628881     -0.71262686542876     -0.72718143443749
  H   1.17252347451772     -0.79167141187080     -1.72796180784684
  H   1.54336579857231     -1.68621905585458     -0.23202279538460
  H   2.64278534983604     -0.42059072099391     -0.81634231693304
  C   1.51806954992812      0.53721669020104      1.36899686533155
  N   2.11836506075424      0.63319165772367      2.37393495340158
  C   -1.41777872247656     -0.42790244305725     -0.88013753851340
  H   -1.44827905308492      0.42289420759957     -1.56467772889073
  H   -1.01003098201675     -1.29039434917454     -1.41157883579220
  H   -2.44472227228139     -0.67012892981702     -0.59642777767987
  N   -1.22890061982352      0.94339086872740      1.22030625055650
  H   -2.06324123275813      0.58283808564327      1.66583032218227
  H   -1.49593178168880      1.74274730834403      0.65738597668271
