17
Coordinates from ORCA-job run
  C   0.83196359404192      0.32819358567344      0.39352944374704
  C   -0.71023257786564      0.36695065585234      0.28686739869896
  Cl  1.40486699083024      2.01278699692280      0.71742015273286
  H   -1.06627361814270      0.77612846170044      1.24487121322526
  C   1.52027840387829     -0.18175345433975     -0.86423637705927
  H   1.17352223954459      0.40179039101600     -1.71538738494430
  H   1.27561807525890     -1.23425772049376     -1.02152475652457
  H   2.60204263598898     -0.08894532352561     -0.76292695623127
  C   1.21411263306232     -0.47591616198951      1.55481493946234
  N   1.49769576361984     -1.15669065232858      2.46976318767539
  C   -1.29078316348651     -1.02935241669794      0.10442672720519
  H   -2.38029335824891     -0.98053464335153      0.18392925860334
  H   -1.04289266938646     -1.42060883027323     -0.88408401762166
  H   -0.93604924503052     -1.72318335289348      0.86843037120452
  N   -1.08063383430634      1.18795920286852     -0.85794286966458
  H   -0.94954174881130      2.16945473723803     -0.64615274322644
  H   -2.06040012094669      1.04597852462183     -1.07079758728279
