17
Coordinates from ORCA-job run
  C   0.83462396126601      0.30282119970843     -0.03387126298745
  C   -0.66230010378423      0.03816763675375      0.25801693525422
  Cl  1.02781365939883      1.38306595530902     -1.45294511747202
  H   -0.64531642958641     -0.70879710666965      1.07120134088256
  C   1.62563340369027     -0.97696432430015     -0.28817674274037
  H   1.28038677263962     -1.45698103225851     -1.20345195319153
  H   1.50259178616176     -1.66480335243158      0.55241231053689
  H   2.68501639130421     -0.74524376588731     -0.40108855960189
  C   1.39880261124387      0.99407371558521      1.12912109726607
  N   1.82932862797416      1.49277708258585      2.10211364380251
  C   -1.40534903640530     -0.55884655763611     -0.92665169147990
  H   -1.47553475831345      0.17243671082855     -1.73238864834132
  H   -2.41844460222736     -0.82765697381382     -0.61514296009815
  H   -0.92926616612592     -1.46429206143481     -1.30332097576409
  N   -1.30125183741671      1.28505010302754      0.64388477477962
  H   -2.30767586580271      1.18297307028021      0.61690671396838
  H   -1.04005841401666      1.55321970035341      1.58538109518646
