17
Coordinates from ORCA-job run
  C   0.85915961699188      0.24563501264117      0.06126595633246
  C   -0.65002261358171      0.09859598146083      0.34009104020511
  Cl  1.11666282199584      1.46647772113821     -1.24516673928778
  H   -0.70339791623004     -0.58661509363274      1.19624984994331
  C   1.52770112930378     -1.05475458635515     -0.36872314105264
  H   1.14022239999667     -1.38012785110277     -1.33369057193553
  H   2.60478751576386     -0.91094837100430     -0.45862887969589
  H   1.33747336365573     -1.82912413125159      0.37961880336816
  C   1.51139745705334      0.75587667198918      1.26954916855738
  N   2.07518155866544      1.08007029701124      2.24756839519836
  C   -1.41994863682458     -0.51905467668771     -0.82584693411968
  H   -1.31587188193961      0.08960700638446     -1.72699341474096
  H   -1.09835106788421     -1.53784575174770     -1.05217733738458
  H   -2.48025183244294     -0.55776422888752     -0.56498461738800
  N   -1.15737042057932      1.38175682363213      0.80129623313373
  H   -1.30019392122067      2.00413440267458      0.01426543682323
  H   -2.04817757272346      1.25608077373768      1.26530675204333
