17
Coordinates from ORCA-job run
  C   0.85767543140922      0.30824400703747      0.35121995233075
  C   -0.68604052093081      0.39152655403927      0.31135035882157
  Cl  1.49307230701036      1.97895376072429      0.62605029576282
  H   -0.98704305736652      0.82485357557920      1.27750431394417
  C   1.47552472573578     -0.23762676154950     -0.92759937013101
  H   2.56294870228427     -0.17788345022022     -0.87342357230496
  H   1.11105501514159      0.34675271524855     -1.77065995642794
  H   1.19169158784137     -1.28344355061173     -1.06163379497379
  C   1.26572472171840     -0.49180702454478      1.50667279755284
  N   1.56526422281936     -1.16791650142146      2.41965284234674
  C   -1.31492325688040     -0.98911058305123      0.17682374431554
  H   -2.39869305940229     -0.90534506611666      0.29606191407642
  H   -0.95262496629348     -1.67964091028265      0.94019009226525
  H   -1.11715409257894     -1.40563994361664     -0.81249065476052
  N   -1.08221931342725      1.20687036528655     -0.82912351622302
  H   -0.91014086721421      2.18671038695549     -0.63936861951994
  H   -2.07511757986645      1.09450242654402     -0.99322682707492
