17
Coordinates from ORCA-job run
  C   0.85765070148654      0.21731663603099     -0.08726161601211
  C   -0.65193834307389      0.14241421045297      0.24594675870601
  Cl  1.12329963907947      1.00170958321100     -1.67872427682969
  H   -0.68755351975557     -0.44044535715787      1.18323483664181
  C   1.53111295528505     -1.15164397481119     -0.10385864932326
  H   2.60512398322069     -1.03814652884247     -0.25330599389053
  H   1.13404718387515     -1.75638557657127     -0.91869290103717
  H   1.35925728892332     -1.66364720379498      0.84650035572802
  C   1.49588517843006      1.05657954293902      0.93127234582219
  N   1.97102599805865      1.69150196478263      1.79834239043624
  C   -1.46004593805759     -0.59599107364394     -0.80935506927135
  H   -1.47506805724000     -0.02481804376432     -1.73802852097442
  H   -2.48909852614007     -0.70986742883112     -0.45762951347797
  H   -1.07124227626314     -1.59493469099349     -1.00762511135267
  N   -1.17614207429861      1.48969055891805      0.39369580125771
  H   -0.87846113938006      1.90341209800018      1.26931324010817
  H   -2.18785305415001      1.47225528407580      0.38517592346902
