11

C	-0.563817	0.010292	-1.423464
C	0.0	0.0	0.0
Cl	0.070783	-1.35279	-2.386855
H	1.092693	0.0	0.0
H	-1.648844	-0.117268	-1.405393
H	-0.319804	0.917964	0.504928
C	-0.271371	1.276002	-2.094129
N	-0.047253	2.302235	-2.621613
C	-0.529027	-1.140453	0.737964
N	-0.991115	-2.047359	1.321229
Cl	3.297168	0.0	0.0
