11

C	-0.457911	-0.033988	-1.458723
C	0.0	0.0	0.0
Cl	-0.085564	1.494982	-2.299239
H	1.092864	0.0	0.0
H	0.117344	-0.811747	-1.965763
H	-0.311396	-0.937607	0.474022
C	-1.885411	-0.324211	-1.598402
N	-3.025266	-0.591255	-1.693784
C	-0.571277	1.114007	0.742251
N	-1.055534	1.996074	1.346359
Cl	3.292747	0.0	0.0
