16

C	-0.555553	0.001715	-1.42438
C	0.0	0.0	0.0
Cl	0.126749	-1.332712	-2.365621
H	1.093828	0.0	0.0
N	-1.964201	-0.048287	-1.427124
H	-2.285701	0.677399	-0.793282
H	-2.313347	0.118841	-2.362919
N	-0.055706	1.293425	-2.139757
O	-0.655691	1.580051	-3.173994
O	0.860327	1.929179	-1.638552
C	-0.460507	-1.215628	0.671111
N	-0.812441	-2.158887	1.275681
N	-0.538521	1.19229	0.684751
H	-0.783996	0.953888	1.637532
H	0.220927	1.863932	0.724744
Br	3.466766	0.0	0.0
