16

C	-0.552285	-0.156218	-1.423632
C	0.0	0.0	0.0
Cl	0.350284	-1.530662	-2.200062
H	1.094531	0.0	0.0
N	-1.949875	-0.273881	-1.481269
H	-2.292278	-0.945677	-0.807763
H	-2.25659	-0.5064	-2.415533
N	-0.195122	1.054206	-2.28198
O	-0.75635	1.108485	-3.371003
O	0.607031	1.863905	-1.840433
C	-0.461442	-1.169553	0.750227
N	-0.900901	-2.076827	1.353335
N	-0.537724	1.217157	0.62942
H	0.130891	1.952273	0.419506
H	-0.510821	1.084174	1.634741
Br	3.453522	0.0	0.0
