16

C	-0.492481	-0.001643	-1.443286
C	0.0	0.0	0.0
Cl	-2.365187	-0.18258	-1.405038
H	1.092991	0.0	0.0
N	-0.050649	1.116524	-2.112278
H	-0.117388	1.932141	-1.51735
H	-0.427828	1.222018	-3.041737
N	-0.066165	-1.233259	-2.225254
O	-0.194466	-1.161793	-3.441249
O	0.350572	-2.192165	-1.592196
C	-0.498958	-1.129212	0.788229
N	-0.916682	-1.943034	1.527018
N	-0.369168	1.292914	0.584299
H	0.349633	1.543183	1.254239
H	-1.261883	1.233192	1.058519
Br	3.395046	0.0	0.0
