16

C	-0.585575	-0.180169	-1.399053
C	0.0	0.0	0.0
Cl	0.081978	-1.620751	-2.183482
H	1.108888	0.0	0.0
N	-1.993731	-0.233799	-1.360011
H	-2.301667	0.557262	-0.801482
H	-2.369148	-0.173818	-2.2982
N	-0.112583	1.010407	-2.285257
O	-0.749876	1.171003	-3.323962
O	0.82546	1.695912	-1.903298
C	-0.448901	-1.116363	0.83203
N	-0.803159	-1.964659	1.562846
N	-0.527505	1.270431	0.538789
H	0.223602	1.948035	0.448666
H	-0.713755	1.161708	1.528938
Br	3.459128	0.0	0.0
