17

C	0.0	0.0	0.0
C	-0.299715	0.156366	-1.528468
Br	1.933851	0.0	0.0
H	0.51734	-0.375587	-2.025589
H	-0.277809	0.829644	0.634274
N	-0.514673	-1.220727	0.620173
O	-0.558273	-1.247768	1.866718
O	-0.488574	-2.253097	-0.088074
C	-0.183867	1.639905	-1.877139
H	-0.988054	2.189552	-1.376349
H	0.776497	2.060649	-1.571918
H	-0.292374	1.784019	-2.957282
C	-1.575514	-0.409049	-2.163748
H	-2.42574	0.261604	-2.048112
H	-1.370259	-0.53473	-3.240714
H	-1.826789	-1.379289	-1.741756
H	-1.996503	0.0	0.0
