16
Coordinates from ORCA-job run
  C   -0.34207151696543      0.31043260363820     -0.39248413028462
  C   0.79425536693417     -0.08695759447698      0.56105256858532
  F   0.17819614430248      0.63941979579675     -1.59530661581490
  H   0.39248016424141     -0.22443111036378      1.56489935769505
  C   -1.43727292828054     -0.71137914045001     -0.55131311413403
  H   -2.23425726168263     -0.26984536916900     -1.15257573345643
  H   -1.04941639186864     -1.58403891047039     -1.07709900733398
  H   -1.83221001989934     -1.01526015342097      0.41685235918948
  N   -0.94994788313121      1.57905893640381      0.21150922719817
  O   -1.34124092328556      1.46072973975574      1.36853861492077
  O   -1.02028110093021      2.56617595796021     -0.50230267226225
  C   1.86337910849551      0.90103413577128      0.54823787704663
  N   2.70158380446300      1.72299752946748      0.56543710854295
  N   1.31736198662743     -1.43566637119377      0.12273091593741
  O   0.79702516371641     -2.40061565840681      0.67435042761670
  O   2.16241628726316     -1.45165439084175     -0.76252718344627
