16
Coordinates from ORCA-job run
  C   -0.37826224951761      0.32333034756187     -0.34567630105053
  C   0.82362488017725     -0.08858270860834      0.51700558993083
  F   0.06416534230956      0.79815587296304     -1.53074050587509
  H   0.47858909499638     -0.34721039070857      1.51807597407188
  C   -1.41609375706978     -0.74723611507737     -0.55875324605147
  H   -1.74589999843616     -1.16655603175813      0.39045822234938
  H   -1.00194738605112     -1.53896411796783     -1.18324192198509
  H   -2.26585017867434     -0.30273943147381     -1.08028679480096
  N   -1.03278199789302      1.48664179124293      0.40382565746389
  O   -1.36226870359510      1.23345381471893      1.55841906425004
  O   -1.19518217465997      2.53098516465545     -0.20597457803466
  C   1.82893156956526      0.96358045494161      0.55786936462783
  N   2.61581823994434      1.83259146654574      0.62253090522921
  N   1.40674990425786     -1.35213440476669     -0.07330156962324
  O   2.20903259495425     -1.22794526602554     -0.98928154156933
  O   0.97237481969221     -2.39737044624328      0.40107168106733
