16
Coordinates from ORCA-job run
  C   -0.45866371226666      0.01873593771664     -0.49655140660658
  C   0.76315644717853     -0.61916466917391      0.17494757809321
  F   -0.32457006068399     -0.21099428729593     -1.82881175781601
  H   0.75199834272939     -1.68133243413092     -0.08204007617680
  C   -1.76781226179701     -0.52695791104044      0.00888834978875
  H   -1.89101046204735     -0.31921565698582      1.07057140316616
  H   -2.58007959431374     -0.05563308932980     -0.54767766993146
  H   -1.80278287062010     -1.60364990376123     -0.16683917433473
  N   -0.44633787729596      1.53180500346112     -0.29177199852180
  O   -0.60452456961543      1.88896536586292      0.86895070403387
  O   -0.31283004682118      2.23451717148049     -1.28048345098178
  C   0.81979001953033     -0.44839303256243      1.61806802422507
  N   0.88056145278270     -0.39018573873655      2.78951147402649
  N   2.02698546408451     -0.07108066229848     -0.45918864259364
  O   2.26944458562547      1.10915343894801     -0.24084536340866
  O   2.67467514353049     -0.85656953215366     -1.13872799296209
