16
Coordinates from ORCA-job run
  C   -0.46366533646554      0.03191698287775     -0.49043427198144
  C   0.75073063989781     -0.63708907591891      0.16375486046724
  F   -0.35091898639553     -0.19694052816019     -1.82491808657077
  H   0.70974883861698     -1.69783718532130     -0.09604420824385
  C   -1.77918543002489     -0.48452799746873      0.02908796813903
  H   -1.84139604037654     -1.55955085621936     -0.14930372249709
  H   -1.88495014486374     -0.27717053550907      1.09273286838361
  H   -2.58669877296297      0.00725332489789     -0.51657260070899
  N   -0.41466328411953      1.54349459201680     -0.28147606105800
  O   -0.28368334770338      2.24652759615474     -1.27027578063597
  O   -0.54417310262126      1.90013248172606      0.88294581650994
  C   0.83064197656269     -0.47298399101214      1.60658742399122
  N   0.90653861574386     -0.42167429522592      2.77739287231393
  N   2.01961453065089     -0.11838182683235     -0.48492135978814
  O   2.64666160543085     -0.92123562478192     -1.16347240782708
  O   2.28739823863029      1.05806693877666     -0.27608331049365
