19

C	0.0	0.0	0.0
C	-0.295881	0.00606	-1.538266
F	1.358266	0.0	0.0
H	0.615512	0.499755	-1.904526
N	-0.314601	1.281514	0.735409
O	-0.423998	2.290682	0.047546
O	-0.212241	1.277032	1.956783
N	-0.335694	-1.241177	0.850968
O	0.237173	-2.256596	0.445584
O	-1.000738	-1.178243	1.865267
C	-1.466501	0.754918	-2.178666
H	-1.647343	1.720913	-1.720569
H	-2.377261	0.176011	-2.089244
H	-1.1973	0.904217	-3.236802
C	-0.276666	-1.413586	-2.112778
H	-1.129573	-1.973125	-1.725769
H	0.639473	-1.955488	-1.880285
H	-0.374178	-1.335512	-3.200343
F	-2.254986	0.0	0.0
