19

C	0.0	0.0	0.0
C	-0.662346	0.042588	-1.345896
F	1.34084	0.0	0.0
H	-1.768148	0.056841	-1.02439
N	-0.326235	1.254264	0.856208
O	0.317683	2.237469	0.486158
O	-1.089963	1.227753	1.801704
N	-0.324012	-1.305012	0.780448
O	-1.105003	-1.340445	1.711157
O	0.338789	-2.257997	0.367756
C	-0.350117	-1.210564	-2.163479
H	0.723883	-1.413541	-2.249428
H	-0.75229	-1.065782	-3.170595
H	-0.832394	-2.092156	-1.7423
C	-0.275021	1.299769	-2.124247
H	-0.680447	1.209034	-3.136389
H	-0.701323	2.198167	-1.679661
H	0.809535	1.439319	-2.202995
F	-2.848154	0.0	0.0
