19

C	0.0	0.0	0.0
C	-0.232026	0.003637	-1.546526
F	1.364599	0.0	0.0
H	0.604879	-0.634928	-1.853314
N	-0.341903	1.202787	0.852037
O	0.086687	1.140735	2.004007
O	-0.85912	2.188018	0.35053
N	-0.392992	-1.305115	0.664805
O	-0.150137	-2.284903	-0.040261
O	-0.775919	-1.345498	1.819385
C	0.057063	1.387592	-2.139584
H	0.923704	1.869431	-1.681519
H	0.267314	1.266221	-3.207684
H	-0.804542	2.041196	-2.02221
C	-1.459974	-0.594767	-2.216492
H	-1.676921	-1.587837	-1.831084
H	-1.229491	-0.672343	-3.291399
H	-2.3309	0.023082	-2.035489
F	-2.260265	0.0	0.0
