15

C	0.0	0.0	0.0
C	-0.621576	-0.063121	-1.384494
Cl	1.790236	0.0	0.0
H	-1.723871	-0.111223	-1.107749
H	-0.311349	0.95325	0.432696
C	-0.481756	-1.142877	0.872927
H	-0.09234	-1.0457	1.889489
H	-1.57859	-1.082806	0.879461
H	-0.153003	-2.100509	0.46073
C	-0.235279	-1.28122	-2.094167
N	0.077556	-2.263985	-2.660407
N	-0.419744	1.105693	-2.232522
H	0.528529	1.449601	-2.126553
H	-1.056248	1.820538	-1.896143
H	-3.126122	0.0	0.0
