15

C	0.0	0.0	0.0
C	-0.402192	0.291235	-1.48002
Cl	1.789629	0.0	0.0
H	0.286398	-0.309242	-2.08952
H	-0.318694	0.818427	0.646502
C	-0.565675	-1.312571	0.485257
H	-0.291533	-2.126736	-0.192653
H	-1.65722	-1.200539	0.515112
H	-0.191424	-1.550014	1.483794
C	-0.071479	1.698575	-1.791871
N	0.209528	2.804071	-2.069169
N	-1.754032	2.9e-05	-1.8962
H	-1.82621	-1.00052	-2.050081
H	-2.467138	0.185965	-1.139067
H	-3.539608	0.0	0.0
