15

C	0.0	0.0	0.0
C	-0.39708	0.23119	-1.490275
Cl	1.793752	0.0	0.0
H	0.25939	-0.426595	-2.074963
H	-0.315926	0.849774	0.606244
C	-0.567049	-1.286516	0.546068
H	-0.199119	-1.470593	1.55827
H	-0.284926	-2.134153	-0.086391
H	-1.659114	-1.178584	0.565637
C	-0.001189	1.603419	-1.880587
N	0.298815	2.682927	-2.235884
N	-1.765774	-0.00817	-1.879076
H	-2.467903	0.177113	-1.107432
H	-1.87852	-0.998339	-2.066919
H	-3.565095	0.0	0.0
