15
Coordinates from ORCA-job run
  C   -0.59146696342172     -0.02027263373799     -0.39739797633602
  C   0.68345134700531     -0.62005257898877      0.18256819761728
  H   -0.42089737426699      0.20504401378899     -1.45648630626168
  H   0.51575560951070     -0.81677618206307      1.25164946172765
  H   0.83644691309792     -1.59227258672833     -0.29271710460814
  N   -0.85942935364559      1.25968969165946      0.25739198052558
  H   -1.06542009882036      1.09765672777439      1.23829622935872
  H   -1.67381483307683      1.69987399951470     -0.15563102789841
  N   -1.64460739845491     -1.03451008136226     -0.35578156501324
  H   -2.50660223320164     -0.65571089814964     -0.73228653362292
  H   -1.82398506398334     -1.29409489663633      0.60892224521394
  C   1.90514625080281      0.27240670022982      0.00322737035771
  H   1.75325866924823      1.23897956409279      0.48260673122368
  H   2.09367740800432      0.45377156884517     -1.05852941467980
  H   2.79848712120208     -0.19473240823894      0.42516771239562
