15
Coordinates from ORCA-job run
  C   -0.62367462188715      0.36688026652875      0.13013415164289
  C   0.74400583279320     -0.10398315022344      0.60431938655996
  H   -0.53033951348004      1.41329260251076     -0.20501194857549
  H   1.05078223858495      0.56545293594491      1.41227663727922
  H   0.62185524230165     -1.10341511243708      1.03707820436658
  N   -1.53572851070815      0.37923727107007      1.25885906602034
  H   -1.75555326927978     -0.58380141451943      1.49231046285401
  H   -2.40509253332302      0.83377862556427      1.00328771262713
  N   -1.10568973641084     -0.52139196972801     -0.93525096432507
  H   -2.01934530745045     -0.20302239394682     -1.24046545547873
  H   -0.49422080040238     -0.46832865074713     -1.74281618161170
  C   1.80321425892871     -0.13721366082187     -0.49330343165280
  H   2.79122627999397     -0.34380661247694     -0.07604264771030
  H   1.86140665948965      0.82300422073352     -1.01534739358543
  H   1.59615378084968     -0.91768295745156     -1.22902759841061
