21

C	0.0	0.0	0.0
C	-0.293531	0.016033	-1.55185
Cl	1.819381	0.0	0.0
H	0.548178	-0.519765	-2.004539
C	-0.584485	1.175561	0.749206
H	-0.219717	2.135627	0.381556
H	-0.34393	1.096978	1.8143
H	-1.675112	1.070973	0.607214
C	-0.507189	-1.282088	0.63163
H	-0.150729	-2.166167	0.09638
H	-0.179315	-1.349059	1.673924
H	-1.603006	-1.204537	0.58365
C	-0.268805	1.438772	-2.108443
H	-1.158358	1.986039	-1.785833
H	-0.276304	1.40361	-3.203026
H	0.62424	1.989502	-1.797278
C	-1.564661	-0.699964	-2.011066
H	-1.682229	-0.529297	-3.089459
H	-2.442897	-0.358106	-1.436544
H	-1.471122	-1.780959	-1.86309
F	-3.273512	0.0	0.0
