12

C	-0.546095	-0.078627	-1.419646
C	0.0	0.0	0.0
Cl	0.334606	-1.223091	-2.453702
H	1.090801	0.0	0.0
H	-0.434818	0.90556	-1.872084
H	-1.595591	-0.37089	-1.415823
N	-0.405851	-1.181327	0.840142
O	-0.834361	-2.176219	0.263041
O	-0.23363	-1.073504	2.049929
C	-0.503778	1.203171	0.648726
N	-0.930706	2.196825	1.104872
Cl	3.174822	0.0	0.0
