12

C	-0.388543	0.054638	-1.457325
C	0.0	0.0	0.0
Cl	-2.159581	0.053775	-1.713416
H	1.092409	0.0	0.0
H	0.024507	-0.810778	-1.965235
H	0.013465	0.970833	-1.885359
N	-0.415561	-1.302074	0.624111
O	-0.333083	-2.297265	-0.088855
O	-0.75475	-1.291131	1.801916
C	-0.518474	1.114163	0.778753
N	-0.93223	2.051693	1.351104
Cl	3.14719	0.0	0.0
