12

C	-0.375217	0.022808	-1.461931
C	0.0	0.0	0.0
Cl	-2.144371	0.016115	-1.728172
H	1.095136	0.0	0.0
H	0.044519	-0.854411	-1.946869
H	0.031203	0.9289	-1.907974
N	-0.421059	-1.287941	0.645456
O	-0.315661	-2.298735	-0.041134
O	-0.786016	-1.252175	1.816497
C	-0.521958	1.133096	0.746813
N	-0.914455	2.087107	1.307628
Cl	3.152558	0.0	0.0
