16
Coordinates from ORCA-job run
  C   0.91988071220567     -0.49306853298038      0.48559503121787
  C   -0.34702801390047     -0.23437806326435     -0.31306966911930
  Cl  1.36312770112307     -2.20306403649550      0.53720740890386
  H   -0.19955545236490     -0.69892150306356     -1.29390408963854
  H   0.84954310614617     -0.12823173056580      1.50981229538662
  N   2.05455808879495      0.28203942630352     -0.13285191012079
  O   2.49946070083034      1.21233071636909      0.53564914157380
  O   2.39215773607949     -0.02685037692988     -1.26860838410835
  C   -0.55322432904995      1.27000373389903     -0.49364499274983
  H   0.23674984298779      1.72612846574426     -1.09282883533704
  H   -1.50067585266125      1.44933348342301     -1.00603787570691
  H   -0.59040489857494      1.78278578574771      0.47200809872052
  C   -1.54693998874426     -0.87016573731061      0.38395191839336
  H   -1.69205136716630     -0.43334025549080      1.37677232622297
  H   -2.45326045167763     -0.68591646952865     -0.19678395217283
  H   -1.43233753402779     -1.94868490585708      0.49573348853460
