16
Coordinates from ORCA-job run
  C   1.02994538686208     -0.72446044334100     -0.12020290867716
  C   -0.42486858147472     -0.35896930432837     -0.40662822070545
  Cl  2.00440897937170     -0.84961233313367     -1.58480742460305
  H   -0.76301870432798     -1.13782359477650     -1.10095369190408
  H   1.10123193763550     -1.67318729035741      0.40867976531466
  N   1.63857508951971      0.28467711369712      0.82339119551883
  O   1.58001731540465     -0.02147421744553      2.01343028906552
  O   2.07292169330515      1.33311179557539      0.36432728873001
  C   -0.59254866607689      0.99805664542005     -1.08330052737562
  H   0.02074349994780      1.08732795461237     -1.98031648320803
  H   -1.63827162159107      1.12683586077779     -1.37188509029785
  H   -0.32714013022705      1.81384757997227     -0.40831363174587
  C   -1.25935036720710     -0.45418719317766      0.87051762410476
  H   -0.99331148484644      0.33046331556954      1.58186286865302
  H   -2.31711174513682     -0.33817447464595      0.62403603941031
  H   -1.13122260115852     -1.41743141441844      1.37016290772000
