16
Coordinates from ORCA-job run
  C   0.95511190680017     -0.65333743786770      0.18772370765060
  C   -0.39156448370858      0.05656424146722      0.29817966412358
  Cl  1.19066608803010     -1.49808458811032     -1.33691366502220
  H   -0.39105723523143      0.48294214458145      1.30831140833211
  H   1.08644242865453     -1.37250165203211      0.99574959740536
  N   2.04687762176703      0.37579834901403      0.40821595860285
  O   2.66878328118845      0.82106730207379     -0.54486406756222
  O   2.15763118021743      0.72365557984267      1.58135803796110
  C   -1.53320754987229     -0.95118697116067      0.20012875624357
  H   -1.39662779981512     -1.78346103143797      0.89598357500361
  H   -1.61378320218314     -1.35909238648930     -0.80897781787937
  H   -2.47847001902467     -0.46093856545297      0.44339703609637
  C   -0.53846452251164      1.18711047888497     -0.71471957306722
  H   0.21973684557210      1.96119525768554     -0.58131779086588
  H   -1.51697779860463      1.65767910800702     -0.59590895722181
  H   -0.46509674127830      0.81159017099434     -1.73734586980044
