16
Coordinates from ORCA-job run
  C   0.95428333651592     -0.50953962543442      0.39487157649302
  C   -0.35586556129816     -0.21443991205803     -0.31738623715024
  Cl  1.44108009195477     -2.20326125390154      0.26528240031450
  H   -0.24387878418386     -0.58193313613978     -1.34307480575576
  H   0.92432061735742     -0.24324146129352      1.45094756851080
  N   2.03787775582278      0.35195676398974     -0.19910759094479
  O   2.49104557198272      1.22910825803061      0.53257603269176
  O   2.32823974000779      0.15901371791362     -1.37284149115807
  C   -0.60672103332980      1.29370678637194     -0.34672919474593
  H   -0.60781098833000      1.71371070848395      0.66343742666691
  H   -1.58258476003445      1.49293403912781     -0.79438071905277
  H   0.14126869690838      1.82535044758191     -0.93746459140192
  C   -1.50521336846972     -0.94541345703148      0.37117446880274
  H   -1.61758284579460     -0.59982145149076      1.40341543875217
  H   -1.35601024684889     -2.02542936230943      0.38373563255551
  H   -2.44144822226028     -0.74070106184061     -0.15245591457793
