16
Coordinates from ORCA-job run
  C   1.01815204863923     -0.74272807282383     -0.10820391516162
  C   -0.42886378745128     -0.35549249610478     -0.40527413971366
  Cl  1.99587999541537     -0.90120715710590     -1.56746250228104
  H   -0.77685905514322     -1.13395408467833     -1.09505344143248
  H   1.07009657585264     -1.68691414354648      0.43098241488907
  N   1.64007237968942      0.26646573545759      0.82657884676507
  O   2.09673191247565      1.30061964298853      0.35690893246724
  O   1.56902936992072     -0.02384227888321      2.01985773736292
  C   -0.56990899533864      0.99932033759288     -1.09242893662897
  H   -0.30173377487421      1.81539780719590     -0.41882349584631
  H   -1.61015707127611      1.14049394965378     -1.39464734350696
  H   0.05557114678284      1.07529364220932     -1.98222487996676
  C   -1.27210714438607     -0.42718936170905      0.86777418433249
  H   -1.16482483876554     -1.38969743963930      1.37373652003929
  H   -2.32603077584695     -0.29310621263293      0.61401468145939
  H   -0.99604798569385      0.35654013202579      1.57626533722233
