15

C	0.0	0.0	0.0
C	-0.490019	-0.135327	-1.442596
Br	2.047582	0.0	0.0
H	0.007626	-1.006587	-1.92464
H	-1.56407	-0.302148	-1.226842
N	-0.384746	1.268365	0.575404
H	-1.027088	1.129881	1.365083
H	0.425436	1.841681	0.774743
C	-0.387779	-1.164209	0.805163
N	-0.576943	-2.11402	1.482188
C	-0.316586	1.13722	-2.252172
H	-0.941898	1.898492	-1.769621
H	0.70427	1.489998	-2.290856
H	-0.662908	0.980999	-3.272066
F	-2.70777	0.0	0.0
