15

C	0.0	0.0	0.0
C	-0.383715	-0.054409	-1.485323
F	1.377435	0.0	0.0
H	-0.473578	0.987822	-1.809765
H	-1.388023	-0.465485	-1.508782
C	-0.493674	1.174985	0.716312
N	-0.586429	2.212738	1.264042
N	-0.387002	-1.250447	0.757901
O	-0.489061	-2.289471	0.115501
O	-0.41286	-1.16431	1.981312
C	0.621764	-0.794707	-2.364815
H	1.596712	-0.303225	-2.405922
H	0.764779	-1.817698	-2.014617
H	0.224693	-0.843278	-3.38413
F	-2.357081	0.0	0.0
