15

C	0.0	0.0	0.0
C	-0.374738	0.123773	-1.479832
F	1.364715	0.0	0.0
H	-1.453071	0.262592	-1.490804
H	0.130134	1.052716	-1.774849
C	-0.487111	1.147768	0.773196
N	-0.571282	2.17032	1.349029
N	-0.407848	-1.268236	0.716127
O	-0.47672	-2.29926	0.059358
O	-0.483457	-1.200799	1.938311
C	0.093489	-1.007475	-2.391747
H	0.103863	-0.646587	-3.424811
H	-0.581529	-1.857849	-2.331698
H	1.0998	-1.353877	-2.147624
F	-2.402498	0.0	0.0
