15

C	0.0	0.0	0.0
C	-0.382593	-0.250467	-1.466159
F	1.371629	0.0	0.0
H	-1.397389	-0.63513	-1.439816
H	-0.440155	0.740366	-1.929992
C	-0.498142	1.259562	0.550589
N	-0.579589	2.364567	0.947645
N	-0.390439	-1.13748	0.918897
O	-0.398545	-0.888836	2.120061
O	-0.517407	-2.249735	0.42253
C	0.60572	-1.128776	-2.229676
H	1.596134	-0.677171	-2.320372
H	0.217429	-1.294919	-3.239356
H	0.711662	-2.10189	-1.749819
F	-2.362511	0.0	0.0
