15

C	0.0	0.0	0.0
C	-0.189017	0.019323	-1.5419
F	1.365315	0.0	0.0
H	0.424496	0.882114	-1.832119
H	0.379899	-0.861286	-1.859822
C	-0.520716	1.145752	0.734561
N	-0.594537	2.17408	1.30363
N	-0.398856	-1.289048	0.668439
O	-0.447091	-2.293541	-0.032178
O	-0.475608	-1.270348	1.892097
C	-1.496892	0.067747	-2.305977
H	-2.075174	0.950827	-2.051515
H	-2.116458	-0.78997	-2.072746
H	-1.244503	0.076324	-3.378124
F	-2.283639	0.0	0.0
