12
Coordinates from ORCA-job run
  C   0.37393360559399     -0.62497060470551      0.45797329548423
  C   -0.57780636254691      0.06567028934480     -0.52378673740823
  F   0.56786242423964     -1.89922164200748      0.05174987303814
  H   -0.11273050295363     -0.01175334935221     -1.51418287963014
  H   0.03694004515335     -0.59747098768799      1.49387899828423
  N   1.69744560290912      0.09491159747912      0.39763662841442
  O   2.24392082097668      0.10964521908895     -0.70008068533243
  O   2.09810930965251      0.59834434292554      1.44196311779586
  C   -0.73334242741790      1.47901796845913     -0.17103690576904
  N   -0.83341063967217      2.60972615577108      0.12836844217088
  C   -1.86788511009177     -0.62789642542734     -0.53327415193750
  N   -2.89503676584290     -1.19600256388810     -0.53020899511043
