12
Coordinates from ORCA-job run
  C   0.49568505103000     -0.71121235351350      0.06233407339421
  C   -0.76388799054982      0.16343669028821      0.08162587479077
  F   0.82192490766327     -1.05176033207550     -1.19374186957504
  H   -0.95601543766656      0.44277983401935      1.12350217976827
  H   0.37600672594273     -1.60139932639401      0.68291720579404
  N   1.61993197234175      0.09568659137063      0.68066226756897
  O   1.40842535335339      0.42730047000504      1.84235811750112
  O   2.59941525667050      0.33645154146205     -0.00500066375893
  C   -1.90129451164456     -0.60489626136336     -0.43150231808650
  N   -2.80389905730011     -1.24510740680279     -0.82237328973817
  C   -0.54709911930057      1.38250642242526     -0.70441883576300
  N   -0.35019315054002      2.36521413057861     -1.31536274189574
