12
Coordinates from ORCA-job run
  C   0.43990651494286     -0.72775788481340      0.17290590934102
  C   -0.74992445289010      0.22883516955656      0.02984929092230
  F   0.77603218665839     -1.25320270103440     -1.01484305588410
  H   -0.94525239609970      0.66412656634335      1.01616942268933
  H   0.23544243599285     -1.51749558004999      0.89848201871489
  N   1.60360111705715      0.07099558778341      0.72579104214319
  O   1.38400452406784      0.56508178144127      1.82685381688134
  O   2.61828014912288      0.14915096639491      0.05361150086318
  C   -1.92948552654695     -0.52004389290134     -0.41177554391985
  N   -2.86740036396522     -1.14359321985611     -0.74194073831968
  C   -0.42339520992250      1.30762314637186     -0.90891167778066
  N   -0.14180897841752      2.17728006076388     -1.64519198565097
