12
Coordinates from ORCA-job run
  C   0.32201214781191     -0.58228992853855      0.54451332451085
  C   -0.57018889049289      0.03637864780185     -0.53647450064947
  F   0.41317899708120     -1.91227266760039      0.32442985496396
  H   -0.11334647219968     -0.21855107588565     -1.50057621142003
  H   -0.01334619315569     -0.38173005210503      1.56162317788476
  N   1.69920064297830      0.01430837245594      0.40064593747519
  O   2.13869840392147      0.62359825441677      1.37025307838255
  O   2.24507756967090     -0.16621904747882     -0.68264646999824
  C   -0.60887878986738      1.49360477933779     -0.38927280205744
  N   -0.61716823820529      2.65947462486125     -0.25201864380432
  C   -1.91259555422109     -0.54463869645554     -0.45966242338271
  N   -2.98164362332174     -1.02266321080962     -0.38181432190511
