12
Coordinates from ORCA-job run
  C   0.36765262407931     -0.62814770458444      0.45623875156329
  C   -0.57619248672612      0.06965740005636     -0.52802537432628
  F   0.55485023882233     -1.90327409368839      0.04968797650658
  H   -0.11058618546510     -0.01259314546118     -1.51766188171324
  H   0.02696349786516     -0.59927939237470      1.49095685771821
  N   1.69668304108151      0.08261007545406      0.40234031978426
  O   2.09979675931250      0.57538217761813      1.45077975890824
  O   2.24513912331560      0.10009821416894     -0.69450189913819
  C   -0.71900200973548      1.48459562860855     -0.17548884817084
  N   -0.80766088354536      2.61498340430953      0.12853918557660
  C   -1.87248596832542     -0.61211773359434     -0.53591676894886
  N   -2.90415775067892     -1.17191483051252     -0.52694807775976
