12
Coordinates from ORCA-job run
  C   0.32678376147882     -0.30316358266297      0.74568654700969
  C   -0.49489874712577      0.57052203789772     -0.20960675137530
  F   -0.29569127564649     -1.46750559535218      0.98408295119279
  H   0.08447672307297      1.47952921047550     -0.40598183012606
  H   0.54072163492740      0.21657279572690      1.68161112814687
  N   1.66576538545194     -0.56585893063129      0.08546002578726
  O   1.97321626421390     -1.72203063150589     -0.15173174780283
  O   2.31147821876762      0.45172259434647     -0.14282462578001
  C   -1.76411057178588      0.93392343762583      0.42606293784278
  N   -2.76416785624712      1.23652428177216      0.96078838643790
  C   -0.71668267051074     -0.13302282768473     -1.47733106312521
  N   -0.86589086659664     -0.69621279000752     -2.49621595820787
