12
Coordinates from ORCA-job run
  C   0.45724174231174     -0.72394706897978      0.12899915341450
  C   -0.75464905750626      0.21454701565764      0.07364651091308
  F   0.74686032241297     -1.20239049587627     -1.09057041690264
  H   -0.91463158381716      0.60899831650165      1.08310079373562
  H   0.29976180872290     -1.54173528237729      0.83503926014156
  N   1.63192029263034      0.07652848692655      0.65502188081258
  O   1.45397330934705      0.53413917454116      1.77902951997116
  O   2.61548389791465      0.19017106551293     -0.05722139547478
  C   -1.93725747086811     -0.54185346882716     -0.34630125662222
  N   -2.87248866983073     -1.17362396595556     -0.66856550474075
  C   -0.48609110489580      1.33182039400153     -0.83775400625599
  N   -0.24012348642157      2.22734582887460     -1.55542453899212
