12
Coordinates from ORCA-job run
  C   0.39002921839122     -0.62800449887494      0.43907160644434
  C   -0.60726136279265      0.07290326717212     -0.48903761288144
  F   0.53801199267418     -1.90803400233433      0.03160215401156
  H   -0.20141137621443     -0.01578556589022     -1.50403176243897
  H   0.11637101668378     -0.58828924826913      1.49310026477143
  N   1.71959770882541      0.06858676345009      0.29426998985033
  O   2.19281015192432      0.56738946292387      1.30996310921301
  O   2.19756296781215      0.07047364358037     -0.83514789558025
  C   -0.71834775154080      1.49031139949799     -0.13518352923052
  N   -0.78279282313964      2.62352274409823      0.16456063342944
  C   -1.90611371036171     -0.59969487378272     -0.41854308539439
  N   -2.93945603226183     -1.15237909157133     -0.35262387219453
