12
Coordinates from ORCA-job run
  C   0.31946771568389     -0.49670147703634      0.79425016022102
  C   -0.89267038536571      0.09123810890248      0.05462711865865
  F   0.14479406922940     -1.82617068056099      0.91824964250570
  H   -1.77412785761199     -0.25285167833816      0.61078447653810
  H   0.46426441767348     -0.03230711681377      1.77044919789423
  N   1.57515678379446     -0.22839897603544     -0.00248907607792
  O   1.96491410279019      0.93270360274031      0.05889107494379
  O   2.05800658066823     -1.15605196303146     -0.63320749962239
  C   -0.97657387888316     -0.44292432169858     -1.30929285675290
  N   -1.04687912397712     -0.87469281005586     -2.39858905197233
  C   -0.89364885916244      1.55629974468464      0.05615650752533
  N   -0.94370356483925      2.72885756724317      0.08017030613873
