12
Coordinates from ORCA-job run
  C   0.29997917377919     -0.49007733719198      0.77649635971128
  C   -0.90434669778339      0.06393487389143      0.00889895814645
  F   0.24670660774823     -1.84214230885996      0.78031052587995
  H   -1.78314516241249     -0.15115436257435      0.63090562886811
  H   0.33884208417219     -0.10950696207410      1.79736183605510
  N   1.59426248346479     -0.07811154283638      0.12356059604860
  O   1.66535327332043     -0.22747866757590     -1.09118172580058
  O   2.46632476038103      0.34317475361740      0.87819902001781
  C   -1.11526125232749     -0.58923363876331     -1.28701455654093
  N   -1.36907091491976     -1.12258558879584     -2.30097325395033
  C   -0.77905338305956      1.51817099285581     -0.12467402063501
  N   -0.65959097236317      2.68400978830717     -0.19188936780047
