12
Coordinates from ORCA-job run
  C   0.32967965472107     -0.50150468401576      0.75733022356168
  C   -0.90551854545599      0.03024173628694      0.02362000608518
  F   0.32659673682402     -1.85425506862307      0.71923204385914
  H   -1.76634479109939     -0.23373849305230      0.65184597398894
  H   0.36916573363396     -0.15228675862078      1.78940033863796
  N   1.59803624215237     -0.02124800380110      0.10038073198169
  O   1.65309128929877     -0.12068360683974     -1.12026126797683
  O   2.46854241107764      0.39948466104161      0.85691002664310
  C   -1.11250599170628     -0.59327719529901     -1.28735990512088
  N   -1.36133977173942     -1.10542028231399     -2.31335736559404
  C   -0.83581918705866      1.49128579779784     -0.07040464174799
  N   -0.76458378064809      2.66240189743936     -0.10833616431797
