12
Coordinates from ORCA-job run
  C   0.31975248569742     -0.29243336111891      0.71941762509524
  C   -0.47795551505928      0.51671444731491     -0.31263094824389
  F   -0.23844676640873     -1.51039630563483      0.89297993083099
  H   0.13497737994872      1.36964243380312     -0.63145098083941
  H   0.39489364469849      0.22522196514333      1.67574414709539
  N   1.73284636220263     -0.49227669285947      0.23416592400779
  O   1.86628629736625     -0.88939723043037     -0.91871974989625
  O   2.62129197985190     -0.25304964799133      1.04750795592064
  C   -1.68951556519222      1.03335361803123      0.33626684499893
  N   -2.63867785379660      1.44992287802685      0.88697340460619
  C   -0.84076412925130     -0.27639925762490     -1.49220962088459
  N   -1.18568832005727     -0.88090284665962     -2.43704453269105
