12
Coordinates from ORCA-job run
  C   0.50790123011879     -0.67721519811946      0.18978408333816
  C   -0.76994282472522      0.15141483115288      0.01207523971826
  F   0.91962678701145     -1.17906078120107     -0.98454413138528
  H   -1.02743954432742      0.57475148155577      0.98933161057527
  H   0.37027294290018     -1.47582370830373      0.92120307305984
  N   1.57321489038559      0.24144096248768      0.75394508047179
  O   2.58825653804768      0.41516871311632      0.10051628169693
  O   1.28285152072804      0.72268832722677      1.84427600713050
  C   -1.85854396003523     -0.71869614688295     -0.44072433827115
  N   -2.72221128400775     -1.43803924225248     -0.77861753752408
  C   -0.53640762781740      1.24799254141248     -0.93359029140178
  N   -0.32957866827870      2.13437821980780     -1.67465507740847
