12
Coordinates from ORCA-job run
  C   0.37307120351976     -0.61643731968647      0.46819190473146
  C   -0.60401347713139      0.06964849171979     -0.49143619584223
  F   0.48327869707999     -1.91795238862449      0.12134877258977
  H   -0.19872967649719     -0.07119125552781     -1.50090892413186
  H   0.10299008976936     -0.51904031771776      1.51933040158861
  N   1.72274194981882      0.03249576430509      0.29049219194971
  O   2.21668140388309      0.55623439120972      1.28357612544128
  O   2.19556869032811     -0.02682209256818     -0.83960559986677
  C   -0.68106986266709      1.50236518870344     -0.19495897135732
  N   -0.72169119921633      2.64636527481010      0.06553629436861
  C   -1.91997769570568     -0.56695850661215     -0.39990399115189
  N   -2.96785012318145     -1.08970723001127     -0.32166200831938
