12
Coordinates from ORCA-job run
  C   0.34569390282685     -0.50635329904273      0.74969165163556
  C   -0.90479241784718      0.04466810821034      0.05636162805827
  F   0.31739648925089     -1.85870673994561      0.71628038913953
  H   -1.74852739222575     -0.20336428158779      0.71354183388765
  H   0.42662119981794     -0.15344308584468      1.77798584705857
  N   1.59713224484897     -0.04871737005772      0.04635889537932
  O   2.47768157891891      0.41789882949922      0.76358519759167
  O   1.62708699464158     -0.20525415069800     -1.16896469924543
  C   -1.16501618138356     -0.57744135281039     -1.24582547621399
  N   -1.45329544627020     -1.08527847556061     -2.26363888146565
  C   -0.81045741514825      1.50377633086165     -0.04652753468322
  N   -0.70852355743020      2.67221548697632     -0.09884885114228
