12
Coordinates from ORCA-job run
  C   0.30084361193298     -0.51819096752875      0.78712358302286
  C   -0.89386958763360      0.09216087761801      0.03753005802800
  F   0.12134604952577     -1.84991561197665      0.87195817513868
  H   -1.78783768568902     -0.26351136802359      0.56592483126156
  H   0.42548593606290     -0.07932849119359      1.77780610105988
  N   1.57401124834173     -0.23163477247917      0.02497800745455
  O   1.96652977151006      0.92548199602473      0.12918937378078
  O   2.06628407129384     -1.14206572700077     -0.62337675052241
  C   -0.95075523574473     -0.40645002168572     -1.34112053480944
  N   -0.99882161431139     -0.81053556748117     -2.44220767970337
  C   -0.89066829025812      1.55665175861652      0.07822972740769
  N   -0.93354827503041      2.72833789511013      0.13396510788124
