12
Coordinates from ORCA-job run
  C   0.53598062554130     -0.67310411480608      0.11336532387446
  C   -0.77279863931817      0.12454784443091      0.06380338294026
  F   0.89991872310236     -1.07132084410533     -1.11493676095637
  H   -0.99280395446324      0.46336606389372      1.08221711224856
  H   0.46011047545892     -1.52813274702797      0.78801304349094
  N   1.60237628656986      0.23643719777157      0.69184595653137
  O   1.35669939202640      0.62343724154568      1.82945381448046
  O   2.57398767919907      0.49503645691266      0.00140714906191
  C   -1.85607694292573     -0.74438497166401     -0.40389531783528
  N   -2.70993766171264     -1.46584947307343     -0.76180508020019
  C   -0.61967556094499      1.29669526161810     -0.80433120790518
  N   -0.47678042253312      2.24127208450418     -1.48613741573095
