12
Coordinates from ORCA-job run
  C   0.38057832052747     -0.51287875520217      0.75555474052444
  C   -0.89052115667863      0.06009305130599      0.10886481023834
  F   0.25436888579548     -1.85082776450339      0.84115954283306
  H   -1.72635317873648     -0.33191820427272      0.70261060228228
  H   0.56709872206260     -0.07769322734510      1.73808235627719
  N   1.57837439217010     -0.17650895836186     -0.10174298404266
  O   1.93693846225579      0.99327797522181     -0.01882991149692
  O   2.04974166682222     -1.06487356782561     -0.79471271505018
  C   -1.03890911713901     -0.42947573641357     -1.26616491499792
  N   -1.16040958421607     -0.82596200239101     -2.36435989972826
  C   -0.93580580359570      1.52343409001697      0.16419580997991
  N   -1.01610160926778      2.69233309977066      0.23534256318072
