12
Coordinates from ORCA-job run
  C   0.33111840639153     -0.54077866953184      0.75933711240597
  C   -0.88713064603039      0.11640788256116      0.09136510506953
  F   0.11847642524312     -1.86845887769605      0.83172236400842
  H   -1.75898339845089     -0.22401531112336      0.66467155415188
  H   0.52550893543584     -0.12486964482951      1.74868356844711
  N   1.56542905629239     -0.27552877870471     -0.07153027704873
  O   1.99294673106054     -1.18740638304251     -0.76238393259057
  O   1.99686883745539      0.86796009953493      0.02928789819762
  C   -1.03802024064060     -0.35500795746878     -1.28973367842356
  N   -1.16291236278340     -0.73799968514489     -2.39228278755645
  C   -0.83931586904067      1.57923113657547      0.15618639345140
  N   -0.84598587493288      2.75046618887009      0.23367667988739
