12
Coordinates from ORCA-job run
  C   0.29655194771749     -0.57363760783976      0.56847920818341
  C   -0.55440577461026      0.03334935174130     -0.55140933917287
  F   0.36968004110893     -1.91034771199936      0.38398178025993
  H   -0.07462971530490     -0.25090756083289     -1.49588723564843
  H   -0.06228141200662     -0.34184009156862      1.57098842026833
  N   1.68783841835119     -0.00479343373515      0.44722055540171
  O   2.11303195231232      0.62029624745375      1.41313290935325
  O   2.25875954664179     -0.22091751456428     -0.61661631968141
  C   -0.57402592960340      1.49396784974916     -0.43862544603631
  N   -0.56695889312628      2.66283504405380     -0.32895798045773
  C   -1.90786625461885     -0.52444757807193     -0.50214265841950
  N   -2.98669392686142     -0.98355699438600     -0.44916389405039
