12
Coordinates from ORCA-job run
  C   0.27214048785103     -0.37276735845456      0.73357490970545
  C   -0.45863706807357      0.60869162098391     -0.19094992582516
  F   -0.40926509285767     -1.52346243784488      0.84239214892268
  H   0.16505018662912      1.50480574772263     -0.28226007288302
  H   0.45224793540501      0.06131988186816      1.71896751381975
  N   1.63517707754164     -0.64175190481516      0.12834042751554
  O   1.91004404107493     -1.78824478481564     -0.18405989764644
  O   2.33295659815443      0.36106099496353      0.01856276084551
  C   -1.74707803881289      0.97264638721175      0.40490840969177
  N   -2.76274496551081      1.26682114494118      0.91415292619619
  C   -0.63657151913034      0.01514485204346     -1.52030445260778
  N   -0.75431964227089     -0.46626414380439     -2.58432474773450
