12
Coordinates from ORCA-job run
  C   0.48500520723794     -0.69562443642259      0.17693908623923
  C   -0.76259010672793      0.18217377900574      0.02188208541815
  F   0.86305342914547     -1.20300657508120     -1.00612364877625
  H   -0.98882007434174      0.61041101795667      1.00474516889952
  H   0.32554605757443     -1.49420327858128      0.90408725977556
  N   1.59160216638016      0.17703118183914      0.73534676055027
  O   1.33362829661971      0.65875613205585      1.83345418416530
  O   2.60471582749894      0.31700747706980      0.07101427296880
  C   -1.89075454140085     -0.64439488611911     -0.41552088734231
  N   -2.78677727884113     -1.33100689512126     -0.73707919102562
  C   -0.50219349884948      1.27285921802624     -0.92327596459117
  N   -0.27341548429553      2.15199726537200     -1.66646912628148
