12
Coordinates from ORCA-job run
  C   0.37825261777259     -0.60529943629152      0.48088094152297
  C   -0.59199063022860      0.04564098155832     -0.50994836838198
  F   0.54153063003434     -1.90289781830263      0.14101687857974
  H   -0.15802579098988     -0.09451560978285     -1.50750478620451
  H   0.07264740526239     -0.51491378636983      1.52293358421391
  N   1.70982482218658      0.08887273130806      0.34244113247104
  O   2.14834336258611      0.64266483826305      1.34518726941804
  O   2.22362843963416      0.03430598122551     -0.76972102872207
  C   -0.71450042403783      1.47903552790265     -0.23260744477481
  N   -0.78838517247767      2.62628137947321      0.00514874562458
  C   -1.89242859612506     -0.62479616092007     -0.44208317378563
  N   -2.92789666361713     -1.17337862806391     -0.37574374996130
