12
Coordinates from ORCA-job run
  C   0.37390556562385     -0.54713009547778      0.73439016235803
  C   -0.88717040214803      0.07987165446650      0.11921932105663
  F   0.21313813116689     -1.88354930097243      0.77825538043801
  H   -1.72784623177818     -0.31022097863738      0.70725321382425
  H   0.58128020299831     -0.14947089003192      1.72855397449913
  N   1.57263825900116     -0.21459663242976     -0.12350463484022
  O   1.96291603789706      0.94196844189068     -0.00602235786543
  O   2.01486894214707     -1.09238912799560     -0.84823019705926
  C   -1.06153190704385     -0.35856971123584     -1.26988487055744
  N   -1.20827979589278     -0.71370949859241     -2.37913217299079
  C   -0.89351832893823      1.54106603584106      0.22435341132756
  N   -0.94240047303328      2.70873010317489      0.33374876980953
