12
Coordinates from ORCA-job run
  C   0.34794580560023     -0.54852673618859      0.74656420543001
  C   -0.88665423536565      0.10528064881635      0.10596368422319
  F   0.15022892078066     -1.87946236729927      0.80175637416592
  H   -1.74652049361409     -0.25307203845802      0.68655487740481
  H   0.55246919009942     -0.14599982667461      1.73928768082080
  N   1.56693272352409     -0.25736262646625     -0.09772649112728
  O   1.99365319164747     -1.15368394810649     -0.80922809545540
  O   1.98740475965454      0.88920469106024      0.01397406759818
  C   -1.05231943666832     -0.34711850682154     -1.27977341206502
  N   -1.18830697500339     -0.71383402642520     -2.38656456342991
  C   -0.85405320170290      1.56740862980898      0.19222232568572
  N   -0.87278024895207      2.73716610675439      0.28796934674897
