12
Coordinates from ORCA-job run
  C   0.37754969503210     -0.60748651485809      0.47763154111460
  C   -0.59936882416370      0.05115433377030     -0.50183600829120
  F   0.51833364211217     -1.90897362142371      0.14251997970729
  H   -0.18332825165904     -0.10117611869511     -1.50508968375734
  H   0.08869316834757     -0.50747956099245      1.52366050863275
  N   1.71585433053825      0.06795880207551      0.31487727827767
  O   2.21229033760365     -0.00121386759121     -0.80433925119347
  O   2.17653631014960      0.62240774418217      1.30724901908920
  C   -0.69808083613754      1.48726729925969     -0.22992746710983
  N   -0.75424400208554      2.63602311186072      0.00532127335913
  C   -1.90717581613029     -0.60163503393686     -0.40898232203379
  N   -2.94805975360723     -1.13684657365095     -0.32108486779499
