12
Coordinates from ORCA-job run
  C   0.31930561572406     -0.54839002465306      0.75940324326834
  C   -0.88820338318704      0.11469876889224      0.07769199964225
  F   0.10615508368312     -1.87677221181168      0.81625154533231
  H   -1.76947742712872     -0.23294520485432      0.63190167617259
  H   0.49776890356060     -0.14192669100404      1.75560442670392
  N   1.56641248994920     -0.27485578798601     -0.04943370609046
  O   1.99393126419528      0.86863543155953      0.06671604177929
  O   2.00650564026960     -1.18064584354771     -0.74041507822327
  C   -1.01472726613399     -0.34111358921111     -1.31097599127854
  N   -1.12077350668424     -0.71142690660507     -2.41983629229912
  C   -0.84333394637245      1.57676989585160      0.16024864893798
  N   -0.85356346787545      2.74697216336962      0.25184348605470
