12
Coordinates from ORCA-job run
  C   0.48330107355893     -0.68433245872684      0.22188196394959
  C   -0.76306472618708      0.18161305370369      0.00360464737660
  F   0.87539532460505     -1.25573740308009     -0.92696630069080
  H   -1.00192816686721      0.66402355388301      0.95790925548833
  H   0.31706178229921     -1.44174122690544      0.99035273486043
  N   1.58265440647488      0.21974753207528      0.74380706942355
  O   2.60445390521177      0.32194617371661      0.08586644405711
  O   1.30996620000949      0.76388349169491      1.80874032785217
  C   -1.88551282912303     -0.66896137570362     -0.40158093338525
  N   -2.77900564784191     -1.37040411328119     -0.69677158049507
  C   -0.49121158210697      1.21760347347517     -0.99837238061142
  N   -0.25310974003314      2.05235929914850     -1.78847124782524
