12
Coordinates from ORCA-job run
  C   0.35644214241508     -0.54312969562148      0.74596899490565
  C   -0.88842133404749      0.08739771835700      0.10223693475452
  F   0.18473490818664     -1.87780633494585      0.79848461074129
  H   -1.74269225747535     -0.29008710959897      0.67883577182057
  H   0.54881162218953     -0.13817524716725      1.74026250729641
  N   1.57329681391795     -0.22734839552902     -0.09276518340419
  O   2.02075548375666     -1.11487302906040     -0.80234978475624
  O   1.97124305017328      0.92679077147575      0.02203929704188
  C   -1.04059586344381     -0.36391195496212     -1.28535208159982
  N   -1.17025363545768     -0.72981099900770     -2.39321366505303
  C   -0.88551169211727      1.54962423635789      0.19335306035384
  N   -0.92880923809757      2.71833003970213      0.29349953789912
