12
Coordinates from ORCA-job run
  C   0.28069394380321     -0.56590600321372      0.76174317281318
  C   -0.89413438290410      0.09954631706684      0.02752899603598
  F   0.08853862396286     -1.89879636647281      0.76228129686970
  H   -1.80105978550808     -0.26811938971987      0.52451994131061
  H   0.38890665850291     -0.18944977799230      1.77953913011921
  N   1.57058044114527     -0.24589375348879      0.04296615199444
  O   2.04994404519602     -1.11024032677006     -0.67493670771586
  O   1.98878449881109      0.88833238577064      0.24953759775126
  C   -0.93810600358803     -0.32665354889555     -1.37562167944775
  N   -0.97927518375945     -0.67171463349260     -2.49686205539332
  C   -0.86733077363690      1.55989538960113      0.14235239462762
  N   -0.88854208202481      2.72799970760710      0.25595176103495
