14
Coordinates from ORCA-job run
  C   -0.48761962300629      0.04813686398997     -0.02151648881986
  C   0.60300680635389     -0.66955585053770      0.31295779399436
  H   0.45544628326348     -1.66726226146152      0.71241568601336
  C   -1.88714221209394     -0.46728598764472      0.13417965366113
  H   -1.88840341194032     -1.48372794846316      0.52778325950234
  H   -2.45575808279260      0.17372159841542      0.81430549473892
  H   -2.41324337019224     -0.47384084936181     -0.82728061104859
  N   -0.41633768618804      1.38594783702478     -0.44100919351046
  H   -1.15086922994844      1.64047942705994     -1.08551057598337
  H   0.48740788731891      1.65149281133696     -0.80485683545140
  C   2.00499901369301     -0.13962579753692      0.19400327437641
  H   2.24967900867302      0.15155405366150     -0.83523643288368
  H   2.73662723818953     -0.89115729239610      0.49315368911673
  H   2.16420737867001      0.74112339591337      0.82661128629411
