14
Coordinates from ORCA-job run
  C   -0.41088448510143      0.46274280857569     -0.08093332421665
  C   0.91797255348662      0.37404641737297      0.12918458196967
  H   1.47765797596474      1.31063773719511      0.14920918255772
  C   -1.36862952000090     -0.69161439705994     -0.14691689225588
  H   -1.92723431059843     -0.66667305700005     -1.08950656984420
  H   -0.87188280596220     -1.65705911115590     -0.08329445733917
  H   -2.09864440200026     -0.61445118090307      0.66341523577519
  N   -1.07392629795264      1.70570981020118     -0.15247981764031
  H   -1.78795927107881      1.72616133760298     -0.86784930264923
  H   -0.43743615544546      2.48203597461685     -0.27109885409248
  C   1.72552406458715     -0.86401163317918      0.38414614738909
  H   1.11851903280673     -1.76932288490596      0.39184545970563
  H   2.50201405360516     -0.99375731128780     -0.37670810741355
  H   2.23590956768976     -0.80544451007288      1.35098671805418
