14
Coordinates from ORCA-job run
  C   -0.39125737429707      0.45418744790197     -0.17470902403273
  C   0.93468754243460      0.22906263013593     -0.26946811050937
  H   1.52616731044908      0.97888635534653     -0.79732824656154
  C   -1.38820487077967     -0.44092386953356      0.50250563659153
  H   -0.94714358289345     -1.36757702461949      0.86270891583714
  H   -2.19389771956569     -0.70442286331779     -0.19208070354051
  H   -1.84645132583384      0.08401144993908      1.34505214148057
  N   -0.97758556855528      1.65645082774718     -0.62377225166917
  H   -1.86475512584844      1.50767801567319     -1.08523488442635
  H   -0.36062769884525      2.19277352699268     -1.21845237304457
  C   1.71261982073441     -0.92010691967997      0.29988790257728
  H   1.08684064524085     -1.61969432057592      0.85397009453216
  H   2.48925557655571     -0.56489706655439      0.98497526334885
  H   2.22035237120404     -1.48442818945543     -0.48905436058327
