14
Coordinates from ORCA-job run
  C   -0.39968502863758      0.41648841996575     -0.23843958127389
  C   0.92662046443695      0.18962967952903     -0.32304511433579
  H   1.51039917555724      0.89119766756328     -0.92117265125876
  C   -1.38593688827823     -0.41624721440929      0.52822355817828
  H   -1.94083156772287      0.20976809607085      1.23619574508435
  H   -2.11633092445809     -0.85285550568900     -0.15832004726096
  H   -0.91325546734212     -1.21575046438773      1.09427606509918
  N   -1.03130064258112      1.43547546951766     -0.98248465524667
  H   -1.74260480925218      1.92013426208186     -0.45206448494609
  H   -0.37427855993371      2.09787143523692     -1.37174983216981
  C   1.70297983590300     -0.94343429721515      0.27967062547431
  H   2.21448466121107     -1.52389630002136     -0.49498527710472
  H   1.07365695181823     -1.63436913009076      0.84066405666516
  H   2.47608279927941     -0.57401211815208      0.96123159309540
