14
Coordinates from ORCA-job run
  C   -0.48807889276194      0.02591619115830      0.03993780077278
  C   0.63552286829369     -0.70200218470618     -0.11534281684095
  H   0.53403945876640     -1.77123719809437     -0.26790281428880
  C   -1.86281776448174     -0.57237535206754      0.01055660652104
  H   -1.81865778054449     -1.64676929932350     -0.16805202960863
  H   -2.37612396656397     -0.39462139110308      0.96017160744296
  H   -2.47122704606760     -0.12042710643706     -0.78119879889472
  N   -0.46851866263866      1.39374513429239      0.35406405754057
  H   -1.26072115383490      1.89961383355503     -0.01485579332562
  H   0.39653313603090      1.85562553541712      0.11326443730608
  C   2.01563179497436     -0.10969673727956     -0.04545756587301
  H   2.21868440471076      0.33910270267350      0.93363484940420
  H   2.16695736336638      0.67336539283592     -0.79912709889292
  H   2.77877624075081     -0.86923952092098     -0.21969244126300
