14
Coordinates from ORCA-job run
  C   -0.38755305389520      0.38447644865983     -0.30364736660858
  C   0.94023097061840      0.15005263501725     -0.30235470954986
  H   1.55155240001724      0.77589121227805     -0.95458012026925
  C   -1.40966821267698     -0.35087087811690      0.51377782852700
  H   -1.99767294335355      0.35500695969541      1.11121157262026
  H   -2.10657175312319     -0.87438302492331     -0.14633324076197
  H   -0.96447095946699     -1.07033277728327      1.19728368999154
  N   -0.98144359052481      1.30525026205009     -1.19244443250100
  H   -0.30511415371266      1.91599303572472     -1.63002684155539
  H   -1.71343925545291      1.84992002755962     -0.75701895565037
  C   1.68566917660176     -0.90057918332762      0.46581917802206
  H   2.23567414030982     -1.56277343292902     -0.21066316092513
  H   2.42344268520781     -0.45066181533466      1.13807328499059
  H   1.02936454945125     -1.52698946907021      1.06990327367009
