14
Coordinates from ORCA-job run
  C   -0.39750155165835      0.38159867661185     -0.29334702647053
  C   0.92170837294541      0.11369358107935     -0.36971724832390
  H   1.50264287796286      0.69388720933474     -1.08843824239808
  C   -1.37965191705316     -0.29191758884846      0.62064941209348
  H   -2.12868154025822     -0.82684490193392      0.03048541556629
  H   -0.90732903814963     -0.99085717691324      1.30723234030645
  H   -1.91251327357283      0.45436030667861      1.22072482417006
  N   -1.02863549419616      1.27862956607835     -1.18085894956029
  H   -1.71599841272527      1.86151804449121     -0.72276665523161
  H   -0.36929353038258      1.85082226097480     -1.69055000701570
  C   1.69152089547996     -0.92339861697258      0.39305816948188
  H   1.06108433530349     -1.50725369896518      1.06367544944574
  H   2.48192666224455     -0.46620588793585      0.99715660543094
  H   2.18072161405995     -1.62703177367969     -0.28830408749473
