14

C	-0.47609	-0.000487	-1.447836
C	0.0	0.0	0.0
Br	0.190341	-1.62385	-2.371938
H	1.093371	0.0	0.0
H	-0.357642	-0.9264	0.462019
C	-1.936624	-0.044164	-1.547647
N	-3.11286	-0.066853	-1.563638
C	0.005474	1.164454	-2.195643
N	0.328271	2.117656	-2.803695
C	-0.484771	1.229515	0.757587
H	-0.066249	1.189342	1.766777
H	-0.102568	2.142408	0.292965
H	-1.575075	1.298057	0.833034
H	2.825742	0.0	0.0
