12

C	0.0	0.0	0.0
C	-0.234999	0.216371	-1.546178
F	1.383721	0.0	0.0
H	0.06937	1.261559	-1.69678
H	-0.396853	0.805008	0.609717
H	0.554774	-0.397536	-1.995765
C	-0.464279	-1.297345	0.503738
N	-0.619826	-2.389091	0.909356
N	-1.490793	-0.032918	-2.208087
H	-2.19692	0.137996	-1.447045
H	-1.557645	-1.034565	-2.351972
F	-2.611845	0.0	0.0
