12

C	0.0	0.0	0.0
C	-0.371895	0.295371	-1.494947
F	1.383787	0.0	0.0
H	0.590057	0.243228	-2.02034
H	-0.385092	0.750584	0.682043
H	-0.724655	1.329063	-1.536582
C	-0.44221	-1.33419	0.428742
N	-0.552779	-2.456788	0.756726
N	-1.342467	-0.538785	-2.172549
H	-0.988522	-1.489272	-2.184937
H	-2.127516	-0.502999	-1.492686
F	-2.512254	0.0	0.0
