12

C	0.0	0.0	0.0
C	-0.419939	-0.09988	-1.472477
F	1.388732	0.0	0.0
H	-1.38918	0.377486	-1.538436
H	-0.34376	0.93421	0.438714
H	0.346838	0.431278	-2.047878
C	-0.462296	-1.11974	0.830853
N	-0.565712	-2.071964	1.511376
N	-0.56341	-1.456233	-1.987602
H	0.220906	-2.019641	-1.675217
H	-1.390678	-1.813089	-1.521141
F	-2.474945	0.0	0.0
