16

C	0.0	0.0	0.0
C	-0.373312	-0.238336	-1.475777
Br	2.006801	0.0	0.0
H	0.41246	-0.836873	-1.932151
H	-0.209975	-0.926166	0.545411
N	-0.552698	1.186212	0.543822
H	-1.538078	1.244024	0.291783
H	-0.485559	1.177035	1.553196
N	-0.307256	1.062164	-2.222233
O	0.702921	1.274889	-2.896343
O	-1.261654	1.827988	-2.120324
C	-1.717995	-0.901428	-1.691496
H	-2.560359	-0.385266	-1.229974
H	-1.902122	-0.98439	-2.76696
H	-1.680227	-1.913186	-1.278597
Cl	-4.474295	0.0	0.0
