16

C	0.0	0.0	0.0
C	-0.534166	-0.11868	-1.419886
Br	2.013863	0.0	0.0
H	-1.612711	-0.29752	-1.249311
H	-0.272013	-0.894376	0.554091
N	-0.50808	1.148727	0.618064
H	-0.036218	2.006451	0.384777
H	-0.693887	1.052992	1.60079
N	0.010029	-1.364018	-2.048206
O	0.454995	-1.307524	-3.194873
O	-0.042713	-2.390466	-1.372942
C	-0.327718	1.094334	-2.291938
H	-0.747821	0.920527	-3.281479
H	-0.868454	1.924982	-1.836629
H	0.730359	1.340845	-2.401607
Cl	-3.668447	0.0	0.0
