16

C	0.0	0.0	0.0
C	-0.507843	0.142077	-1.445148
Br	1.957683	0.0	0.0
H	-1.581486	-0.082796	-1.35949
H	-0.279088	-0.993677	0.346506
N	-0.502573	0.964651	0.925696
H	-0.329306	1.903758	0.587768
H	-1.516323	0.814756	0.961989
N	0.06922	-0.962222	-2.275471
O	0.647645	-0.682491	-3.326164
O	-0.07778	-2.105523	-1.845982
C	-0.292856	1.490554	-2.087197
H	-0.658801	1.480115	-3.113365
H	-0.871331	2.23417	-1.537203
H	0.761804	1.7715	-2.099341
Cl	-3.53849	0.0	0.0
