16

C	0.0	0.0	0.0
C	-0.530305	-0.277481	-1.40388
Br	1.950026	0.0	0.0
H	-1.612111	-0.423154	-1.256633
H	-0.249266	-0.85592	0.629993
N	-0.512336	1.264218	0.453669
H	-1.534214	1.174009	0.390349
H	-0.287361	1.368488	1.437154
N	-0.016158	-1.608669	-1.864602
O	-0.109703	-2.547076	-1.075704
O	0.44213	-1.702683	-3.003302
C	-0.261746	0.808679	-2.416072
H	0.806855	0.930327	-2.596217
H	-0.752875	0.57454	-3.360222
H	-0.665624	1.740552	-2.022189
Cl	-3.566422	0.0	0.0
