16

C	0.0	0.0	0.0
C	-0.528888	-0.224027	-1.413581
Br	1.949855	0.0	0.0
H	-1.613364	-0.359257	-1.272656
H	-0.249685	-0.878737	0.597807
N	-0.51169	1.24712	0.498332
H	-1.533476	1.164925	0.427646
H	-0.290863	1.313835	1.485857
N	-0.035822	-1.546236	-1.921175
O	-0.104025	-2.50383	-1.153072
O	0.374445	-1.61544	-3.079606
C	-0.242449	0.891722	-2.388748
H	-0.607095	1.820646	-1.951161
H	-0.757494	0.710994	-3.332114
H	0.826842	0.984111	-2.584119
Cl	-3.56307	0.0	0.0
