17
Coordinates from ORCA-job run
  C   0.71640718033204     -0.35586674908918     -0.31703452084610
  C   -0.54813256948500      0.13712025175475      0.42429772544900
  Br  0.27190752480860     -1.21727460149883     -2.02571953945018
  H   -0.19394957307236      0.53488757568866      1.37960634362237
  C   1.72377172715465      0.75995085291352     -0.58772709240059
  H   1.31378964292920      1.47956872183034     -1.29607159010909
  H   1.95950431915167      1.27803371966382      0.34519758760996
  H   2.63698329170347      0.33719817012156     -1.00680763940772
  C   1.32013440849433     -1.38283073230104      0.52964608090523
  N   1.80925491299522     -2.17528197935792      1.24753685236636
  C   -1.63573463662926     -0.89362452095778      0.63128303828952
  H   -2.44348770370982     -0.45850070004221      1.22325493437182
  H   -1.23380038407190     -1.75070977577673      1.17509382217127
  H   -2.04227068247552     -1.22742304648065     -0.32093358329090
  N   -1.09098748573001      1.34283224758559     -0.28885529723506
  O   -1.88291123569370      1.15410358934201     -1.20785974385580
  O   -0.67947873670161      2.43781697660411      0.09509262180991
