17
Coordinates from ORCA-job run
  C   0.80045211400637      0.20347635148085     -0.49524891513318
  C   -0.66749112836459      0.54013837591991     -0.13913786695761
  Br  1.79863307196113      1.90224235595316     -0.38479384307266
  H   -0.99058902053079      1.36412707042154     -0.77600885609601
  C   1.47741414485440     -0.81359022055759      0.41604728879090
  H   1.51179950428686     -0.44172011660536      1.43993223137389
  H   2.49843637913110     -0.98677328998589      0.07476497930785
  H   0.92381241545479     -1.75323749059307      0.39044375833061
  C   0.87649218875056     -0.22731607201517     -1.88961628468655
  N   0.93021386234943     -0.61274743503183     -2.99932849341270
  C   -0.92197945412306      0.82520032940393      1.32719684085425
  H   -0.28502243710691      1.64133227963802      1.66866337480462
  H   -1.96359184399794      1.12454981609060      1.46086310040778
  H   -0.74003014632456     -0.06084902743935      1.93338338989190
  N   -1.53513273028014     -0.61680543000684     -0.56913769485481
  O   -2.24060213935495     -0.44209502041916     -1.55940362095151
  O   -1.47481478071170     -1.64693247625374      0.10038061140321
