17
Coordinates from ORCA-job run
  C   0.68649093389405      0.20789292204061     -0.64215015559090
  C   -0.75886431271669      0.40753609333839     -0.12605402389912
  Br  1.40215030024340      2.01317151111927     -0.99106392061541
  H   -1.28973456802119      1.03755814624912     -0.84032041976656
  C   1.63014792915947     -0.50790229683377      0.31744209809989
  H   2.61300156678308     -0.60735333161081     -0.14411423021378
  H   1.23627525020999     -1.49908140490292      0.54656747977896
  H   1.73600028699800      0.06148185179582      1.24070991650611
  C   0.65348392263411     -0.47713832706932     -1.93259464884485
  N   0.63124056362698     -1.06433582380697     -2.95123127754472
  C   -0.86610358609096      0.93991483451079      1.28845087448544
  H   -1.91676334381659      1.11440794281064      1.52943464362555
  H   -0.33306006233228      1.88685933266001      1.37620515070221
  H   -0.46486130779912      0.22504091942272      2.00519839445894
  N   -1.47519631760041     -0.91813432665650     -0.20456160614079
  O   -1.16447630302607     -1.77720814223843      0.61907322585600
  O   -2.31773095214577     -1.04070990082866     -1.08999150089697
