17
Coordinates from ORCA-job run
  C   0.71219899572023     -0.01866500537061     -0.57856897842710
  C   -0.59100759918715      0.51250199978642      0.03657014140667
  Br  1.03087003930408      0.92014851343502     -2.27690756790102
  H   -0.45424438472671      1.57492170458278      0.24645230426003
  C   1.89645623071821      0.27534752121017      0.34470345452383
  H   2.82530064442723     -0.02676014998149     -0.13909668884548
  H   1.79653904184076     -0.28427653712036      1.27688625001491
  H   1.94370154854306      1.34450218857948      0.56046003513977
  C   0.66105521243273     -1.45104189629233     -0.85789188663942
  N   0.69325657027907     -2.61643204570223     -1.01090453486430
  C   -1.04138142246700     -0.25950155349245      1.26728152903466
  H   -1.18180417319153     -1.31473453620093      1.02834234296271
  H   -1.99047229141681      0.14934390823491      1.62090568208631
  H   -0.31496333899080     -0.16434788255734      2.07466847007344
  N   -1.71221845449395      0.46669355379802     -0.96029021584673
  O   -1.97354660842403     -0.62850074690990     -1.44877235248958
  O   -2.29974001036741      1.52180096400085     -1.18283798448868
