17
Coordinates from ORCA-job run
  C   0.74399969167395     -0.34094997223625     -0.26482752538578
  C   -0.58697163623920      0.11617983469552      0.37593619316519
  Br  0.46866718714117     -1.10633568928796     -2.05308370801482
  H   -0.32820931688499      0.46026397338374      1.38138236480822
  C   1.77171726909812      0.78375798756102     -0.37504342706215
  H   1.43164411195185      1.54283373537372     -1.07920137363613
  H   1.91528992282944      1.24891124824556      0.60343279222046
  H   2.72179222456749      0.38063024447490     -0.72595543993257
  C   1.26406800951148     -1.41515150667395      0.57872936667246
  N   1.68211947090530     -2.24774174822812      1.29609656170843
  C   -1.68850390681482     -0.91971272923315      0.41973247919048
  H   -1.33991032995407     -1.80729281728364      0.95127698424879
  H   -2.00093079652355     -1.19850982484840     -0.58428753855583
  H   -2.54997461231957     -0.51462264234104      0.95442618182727
  N   -1.05957508665616      1.36107055596916     -0.31988777445965
  O   -1.75798670672567      1.22579060853258     -1.32051652396147
  O   -0.68923549556081      2.43187874189635      0.16179038716710
