17
Coordinates from ORCA-job run
  C   0.70615714018131     -0.34264853117934     -0.35211698770298
  C   -0.52957279708579      0.12666088874349      0.45045942498868
  Br  0.19560514528700     -1.20635593292624     -2.04111239675877
  H   -0.13707564586739      0.52771890092521      1.38927968298911
  C   1.68073245007586      0.79091897985551     -0.66602667201353
  H   1.95237880027828      1.30958693172181      0.25678785686709
  H   2.57973310524536      0.38489688199369     -1.12996220063221
  H   1.22535158094569      1.50601328772081     -1.35082214213847
  C   1.36684014300673     -1.36197758836894      0.46060121458239
  N   1.90385169810363     -2.14792175918525      1.15089163818962
  C   -1.58858551594841     -0.92298313639897      0.70547457462075
  H   -2.03303324311107     -1.26261160673371     -0.22754229516961
  H   -2.37538096112503     -0.50272147074684      1.33513485316303
  H   -1.14707273752646     -1.77355832673994      1.22839400205564
  N   -1.12631779661920      1.32468613962967     -0.23172154077686
  O   -0.71637448410496      2.42566546047281      0.13649201427422
  O   -1.95723688173561      1.12463088121614     -1.11321102653810
