17
Coordinates from ORCA-job run
  C   0.72220032307579     -0.36226526241200     -0.29748608452114
  C   -0.55890375408577      0.13787428559658      0.40979857292989
  Br  0.32165760201241     -1.21229083897758     -2.02266538821518
  H   -0.22994121659695      0.52166515975822      1.37969895496736
  C   1.74534897107714      0.74718600717947     -0.53285634891545
  H   1.36113863284447      1.47325777981083     -1.24913202910985
  H   2.66714368778492      0.31970508953212     -0.92759729958442
  H   1.95789790106156      1.25873423225429      0.40924583964991
  C   1.29245886565451     -1.39854959798446      0.56098965042401
  N   1.75239053549981     -2.19795896907674      1.29042567477872
  C   -1.66453699053655     -0.88167101570625      0.57181285872674
  H   -2.04919752810350     -1.19535063851774     -0.39617085639146
  H   -2.48224866090770     -0.44540052166934      1.14897652631615
  H   -1.28819530859285     -1.75223288115155      1.11240645636985
  N   -1.06491336704169      1.35721183631647     -0.30720436672264
  O   -0.66295483212882      2.44400845948562      0.10857322286788
  O   -1.81934486101675      1.18607687556200     -1.26081538357035
