17
Coordinates from ORCA-job run
  C   0.84137122878632     -0.20294810861253      0.36613942817857
  C   -0.20703928274923      0.70493854062600     -0.27784309180702
  Cl  1.69502998201058      0.68324116725682      1.60580753422177
  H   0.34394986937481      1.50887011261505     -0.76948764811943
  N   1.87374941059416     -0.68854008137777     -0.66232382607267
  O   2.88332735980267     -1.20409427938041     -0.21521401671796
  O   1.57306816501288     -0.52730625029314     -1.83901557738312
  N   0.24765903491237     -1.48008458003270      0.98809192054188
  O   -0.44957784257143     -1.29295062146222      1.97152710704415
  O   0.51350022600772     -2.53767545767030      0.44270969605394
  C   -1.26494647263152      1.26297280849498      0.66452855993784
  H   -1.89253540906617      1.94835174459434      0.09172991430044
  H   -1.88190313788312      0.46366188279133      1.07091063093034
  H   -0.80877572009327      1.81236294862135      1.48559229322419
  N   -0.95061216009218      0.00858029846110     -1.38394623729443
  O   -1.16030154318761      0.66643372288738     -2.39340239180066
  O   -1.35396370822696     -1.12581384751930     -1.14680429523784
