17
Coordinates from ORCA-job run
  C   0.41577055594503     -0.73870921293465      0.13011842350915
  C   -0.29650757970906      0.55017474979765     -0.24375423915678
  Cl  -0.55256664199922     -2.15897955656094      0.03587735885441
  H   0.43345904384460      1.35761844539717     -0.17098182709923
  N   0.92986199954150     -0.52880781374291      1.58487955051012
  O   0.54438848780825     -1.28706702926874      2.45548098024332
  O   1.68425736237348      0.42916535672430      1.70273155869846
  N   1.73276487522065     -0.91131122282535     -0.65802205221549
  O   2.23027619234663     -2.02503433802690     -0.63553572569853
  O   2.18690225224191      0.10214701425963     -1.16730377653195
  C   -1.50947247008494      0.83195177734243      0.62383085399089
  H   -2.26304783068299      0.05182609796168      0.51449393075403
  H   -1.21908276628651      0.89823753827400      1.67364834549289
  H   -1.94077072790309      1.78664111753155      0.32830000555604
  N   -0.69703862774805      0.53616175945533     -1.70116009142895
  O   -0.33440880997045     -0.40197689551519     -2.40239403698961
  O   -1.34478531493772      1.50796221213095     -2.07120925848876
