17
Coordinates from ORCA-job run
  C   0.37470238566158     -0.73201288665395      0.17239955257227
  C   -0.29141489467520      0.56335206290311     -0.26251869609914
  Cl  -0.69252291737004     -2.08136478599948      0.22754165760053
  H   0.48539003354413      1.32716259641152     -0.31814012197449
  N   1.01981544315852     -0.49783031289236      1.56652653869298
  O   1.04149165599974     -1.43666861820991      2.34433643034905
  O   1.50079174207529      0.61734460278007      1.72765805630662
  N   1.63188336663263     -1.03899172025480     -0.68926157201249
  O   2.27744566271133     -0.04916991362380     -1.00175261259321
  O   1.88765646696904     -2.20629385100787     -0.91497998207601
  C   -1.42394974102633      0.99566592933009      0.64843387964739
  H   -1.05942744231960      1.11669281375526      1.66868398356223
  H   -1.81041866283402      1.95403684884966      0.30781664261148
  H   -2.23622375294909      0.26894887447679      0.63904548845856
  N   -0.78963048635718      0.41952603542619     -1.68508279660834
  O   -1.61432897653003      1.24633038436927     -2.05388184312835
  O   -0.29925988269078     -0.46772805965978     -2.37682460530908
