13

C	-0.348069	0.002271	-1.480389
C	0.0	0.0	0.0
Br	-2.309082	-0.153829	-1.722502
H	1.093321	0.0	0.0
H	-0.117773	1.006063	-1.842075
H	-0.400364	0.862086	0.528805
N	0.327294	-0.949347	-2.315582
H	1.317894	-0.710796	-2.276492
H	0.235351	-1.86269	-1.886673
N	-0.477487	-1.193839	0.730134
O	-0.345321	-2.294764	0.193539
O	-0.965774	-1.020175	1.845462
Cl	3.303336	0.0	0.0
