16

C	-0.269392	-0.004166	-1.367642
C	-0.012314	0.128578	0.140379
Cl	0.29145	1.519863	-2.156998
H	1.045636	0.40125	0.223737
C	0.471684	-1.165456	-1.960378
N	0.267476	-2.097528	-2.673793
N	-1.702608	-0.088435	-1.625337
H	-1.80558	-0.111463	-2.635969
H	-1.974871	-1.022009	-1.326171
C	-0.204067	-1.206686	0.865103
H	-1.215562	-1.602069	0.738362
H	0.52989	-1.902657	0.460723
H	-0.026633	-1.076912	1.935883
C	-0.851942	1.172297	0.732676
N	-1.489967	1.985149	1.291484
F	2.026135	-0.879089	-1.120905
