15

C	0.0	0.0	0.0
C	-0.563116	-0.387329	-1.386432
F	1.36503	0.0	0.0
H	-0.770706	0.542357	-1.937398
H	-0.363403	-0.664815	0.782097
N	-0.396401	1.393823	0.389656
O	0.037344	2.295228	-0.326247
O	-1.087638	1.531555	1.394061
N	-1.697212	-1.24416	-1.152551
H	-2.078462	-1.517059	-2.051748
H	-2.468223	-0.773512	-0.662207
N	0.389211	-1.149139	-2.179629
H	1.279859	-0.669596	-2.218763
H	0.52527	-2.038312	-1.707975
Cl	-4.463316	0.0	0.0
