11

C	-0.517743	0.051461	-1.432838
C	0.0	0.0	0.0
Br	-0.196789	-1.605779	-2.42285
H	1.092874	0.0	0.0
H	-0.016977	0.840162	-1.99577
H	-1.600456	0.198765	-1.472473
H	-0.314039	0.950401	0.45441
N	-0.486566	-1.096901	0.82376
H	0.041893	-1.93068	0.594132
H	-1.463738	-1.288074	0.622195
Cl	3.612498	0.0	0.0
