11

C	-0.51378	-0.038403	-1.434834
C	0.0	0.0	0.0
Br	-0.163867	1.619564	-2.410279
H	1.092874	0.0	0.0
H	-0.018462	-0.82966	-2.000967
H	-1.598768	-0.174956	-1.478306
H	-0.315678	-0.952925	0.447488
N	-0.487176	1.09219	0.829565
H	0.028626	1.930264	0.593953
H	-1.466298	1.273543	0.639509
Cl	3.597491	0.0	0.0
