13

C	0.0	0.0	0.0
C	-0.536622	-0.15543	-1.436408
Br	1.932663	0.0	0.0
H	-0.656009	0.863343	-1.828905
H	-0.335809	0.927583	0.459291
H	0.231542	-0.662363	-2.033711
N	-0.407289	-1.051794	0.933789
O	0.002476	-0.995377	2.119293
O	-0.446705	-2.330931	0.332791
N	-1.741408	-0.996311	-1.534775
H	-2.422608	-0.562051	-2.159216
H	-1.176857	-2.197729	-0.337581
Cl	-3.673518	0.0	0.0
