13

C	0.0	0.0	0.0
C	-0.507947	0.458865	-1.384874
Br	1.930987	0.0	0.0
H	0.185834	0.050904	-2.122983
H	-0.360851	0.573457	0.849627
H	-0.385347	1.547627	-1.393052
N	-0.39405	-1.429882	0.274126
O	-0.268544	-2.225633	-0.651924
O	-0.784237	-1.690682	1.40616
N	-1.842841	0.110619	-1.767203
H	-2.585795	0.394989	-1.127838
H	-1.9329	-0.889034	-1.880191
Cl	-4.52194	0.0	0.0
