13

C	-0.191824	-0.330034	-1.461743
C	0.0	0.0	0.0
F	-1.456167	0.068185	-1.946062
H	1.097142	0.0	0.0
H	-0.138736	-1.416983	-1.584345
H	-0.343606	1.033961	0.174847
N	0.828928	0.291878	-2.28031
H	1.701873	0.101765	-1.767684
H	0.702398	1.291349	-2.165677
N	-0.567564	-0.993947	0.914124
H	0.040558	-1.039122	1.724269
H	-1.472503	-0.684857	1.250202
F	2.763695	0.0	0.0
