13

C	-0.215533	-0.142685	-1.494324
C	0.0	0.0	0.0
F	-0.178597	1.162451	-2.076058
H	1.103148	0.0	0.0
H	-1.204814	-0.529996	-1.777945
H	-0.465443	0.916232	0.367703
N	0.833838	-0.974554	-1.968253
H	0.909386	-0.95593	-2.975378
H	1.710939	-0.683012	-1.505035
N	-0.572489	-1.183204	0.690721
H	-0.144332	-1.977489	0.220118
H	-0.152533	-1.191767	1.615501
F	2.793933	0.0	0.0
