13

C	-0.184492	0.020238	-1.497395
C	0.0	0.0	0.0
F	-1.525007	0.245795	-1.868926
H	1.093629	0.0	0.0
H	0.097019	-0.95412	-1.913766
H	-0.428676	-0.900651	0.463431
N	0.645916	1.033072	-2.111129
H	1.577399	0.815048	-1.735501
H	0.384324	1.891837	-1.631894
N	-0.45048	1.266115	0.589982
H	-1.388812	1.183042	0.95827
H	0.174908	1.49125	1.35256
F	2.740502	0.0	0.0
