16
Coordinates from ORCA-job run
  C   -0.81748449351981      0.20881549993802     -0.08184171099252
  C   0.67464569832786     -0.19666524309788     -0.14859053505081
  Br  -1.01282324108404      2.12137881706241     -0.18000124286594
  H   0.66451050699947     -1.29377568462409     -0.14018052140188
  N   -1.47552809999410     -0.45892440395600     -1.30887731565967
  O   -1.90755230173602      0.20997546723463     -2.23077843074637
  O   -1.47872517371704     -1.68512078789985     -1.22246192471092
  N   -1.55230797411782     -0.27644018483043      1.04198478690621
  H   -1.37073241937981      0.26623593474190      1.87376444798738
  H   -1.37226057542566     -1.26118944621967      1.19668617566876
  C   1.49322093711324      0.30841054517426      1.03949051990532
  H   1.04629824966583     -0.02614877877818      1.97704769361800
  H   1.55597862999639      1.39618646505291      1.03866172852289
  H   2.50453737462915     -0.09718541695302      0.98272819425889
  C   1.27280534802826      0.22298054046329     -1.41598567290602
  N   1.77741753421412      0.56046667669170     -2.42164619253332
