16
Coordinates from ORCA-job run
  C   -0.82357756433740      0.04772799098112      0.12069478435843
  C   0.66615465850730     -0.09520785105388      0.47928212806054
  Br  -1.46834745800211      1.85341553926182      0.73264054963874
  H   0.66392162640404     -0.21724168189531      1.57092442135758
  N   -1.07856626676080      0.06729637904544     -1.38716337371486
  O   -2.23191417011429     -0.14964377837363     -1.73331688050493
  O   -0.12863436462519      0.30257472003121     -2.12130991402410
  N   -1.56373334598780     -1.02359128465419      0.62510541580010
  H   -1.48910528578896     -1.10913279369955      1.62956752988018
  H   -2.53128024834867     -0.99411034075339      0.32873694221280
  C   1.62593990803615      1.05230406780015      0.14777344338081
  H   1.67818314631671      1.22456263394243     -0.92353884188466
  H   2.61956613577830      0.78052670131356      0.50945435477856
  H   1.31559755336422      1.96673178839199      0.65027443018458
  C   1.15263799340006     -1.35686105746562     -0.09071902452755
  N   1.59315768215844     -2.34835103287214     -0.53940596499624
