16
Coordinates from ORCA-job run
  C   -0.74373181739562      0.07820887652145     -0.14196776167860
  C   0.75481760013236     -0.24249317123336     -0.14404427513229
  Br  -1.02231763980510      1.99359843307503     -0.64540327462245
  H   0.81374833236099     -1.33662217753769     -0.13320070618502
  N   -1.46737929422185     -0.70952738580610     -1.24088098857502
  O   -2.68921546287267     -0.71995862629300     -1.17166791070818
  O   -0.77847929032753     -1.26805869212552     -2.08402794463253
  N   -1.35859014206075     -0.30272704685212      1.06206091836199
  H   -2.36704836631330     -0.23687709342148      0.97765838291925
  H   -1.04401280152775      0.26517698252746      1.83760462714439
  C   1.46122556188241      0.31161399134437      1.09865724337412
  H   1.09468957507616     -0.18139595435912      1.99981465133468
  H   2.53114280003852      0.11503725610594      1.02285446703977
  H   1.31896193901669      1.39064794790939      1.17812842232692
  C   1.43275999012858      0.22960054346171     -1.35133949094534
  N   2.06242901588886      0.61477611668303     -2.26424636002170
