16
Coordinates from ORCA-job run
  C   -0.83172405313473     -0.05572557204499      0.12790785286742
  C   0.56067161215609      0.39101793255424      0.59239910126312
  Br  -2.13252559049892      0.31034699635050      1.62023267464640
  H   0.46967210817270      1.40630165116423      0.98427546990144
  N   -1.32533804959828      0.87661610199305     -0.97900248865757
  O   -2.06640603081111      0.38293999472815     -1.81900565357195
  O   -0.96893904345165      2.04552555856861     -0.91572917102843
  N   -0.84360776176958     -1.36041227741923     -0.36029314700212
  H   -1.73105940569726     -1.60895329487295     -0.77761851599407
  H   -0.56833522486272     -2.03179288391713      0.34590363089511
  C   1.58983456533747      0.35219473499958     -0.54504861528488
  H   1.31490584342295      1.05976215017160     -1.32700372089568
  H   1.65576135162048     -0.64876177733437     -0.96941816758745
  H   2.56812925427516      0.63868291600445     -0.15538002947711
  C   0.97644505186435     -0.50049854721425      1.67581098948537
  N   1.33151537297504     -1.25824368373153      2.49996979044039
