16
Coordinates from ORCA-job run
  C   -0.93529166602230     -0.00171849160550      0.22277108801174
  C   0.52170127095679      0.38326471344115      0.59697012249783
  Br  -2.10157366808481      0.48034139903846      1.70497776217109
  H   0.51017210124183      1.41268119969663      0.96676253615720
  N   -1.26677816045909      0.90926159979048     -0.96675705710875
  O   -1.24358641129177      2.11346720883072     -0.75356360230142
  O   -1.42630529050848      0.36336642574105     -2.05247898400649
  N   -1.20612815737602     -1.33590681121200     -0.15154167919383
  H   -0.96302726129187     -1.98712633554134      0.58317808706968
  H   -0.78774822758743     -1.58305457585089     -1.03781212536351
  C   1.47324747332000      0.27320242330074     -0.59995723997524
  H   2.49324132652196      0.48171694308703     -0.27415285649444
  H   1.21120804529669      0.99866261288086     -1.37153339199275
  H   1.45588056948242     -0.73051701649590     -1.02840482483690
  C   0.95465930641847     -0.50797791886612      1.67086601996408
  N   1.31132874938359     -1.26866337623534      2.49167614540170
