16
Coordinates from ORCA-job run
  C   -0.90495564766112      0.08817042066182      0.25043412203442
  C   0.62022449636419     -0.03822088171260      0.53629250520531
  Br  -1.59063927079983      1.59632155001133      1.24950624126236
  H   0.71174039036662     -0.00240494957138      1.62788534412123
  N   -1.02766146809391      0.35557956133856     -1.25593047596495
  O   -1.12882190277773      1.50111760167597     -1.66618196266679
  O   -0.92395355458983     -0.66147266662222     -1.93679700097184
  N   -1.72373248660636     -1.04309680422861      0.52680524805925
  H   -1.79019399176826     -1.21056064262637      1.52182469629920
  H   -1.37523507784860     -1.86504249359919      0.04629785072993
  C   1.48120103256349      1.06401576839505     -0.08642820606103
  H   1.49394536614640      0.98112882853730     -1.17416161634514
  H   1.09973753780722      2.04721939589731      0.18867767771645
  H   2.50718581985511      0.97104579098246      0.27311083288770
  C   1.08448305182273     -1.36109983281680      0.11071420993354
  N   1.46667570521990     -2.42370064632259     -0.21304946623963
