16
Coordinates from ORCA-job run
  C   -0.80646859352072      0.19442513267073     -0.17530223021192
  C   0.67875229636945     -0.22606442143438     -0.06254464619753
  Br  -0.95762392724833      2.05296189608696     -0.65428939411113
  H   0.64714688273981     -1.30071724492240      0.15603441387517
  N   -1.39718778965214     -0.69431331539243     -1.29133453181342
  O   -1.75715001397648     -0.21380287905830     -2.35126826498624
  O   -1.42893603178992     -1.88053836218475     -0.97045566898971
  N   -1.62156149362094     -0.05806621238401      0.96943590392327
  H   -1.48004819344473      0.63286710595349      1.69202913865345
  H   -1.47356730505360     -0.99638364034199      1.32130993400567
  C   1.42862977981839      0.49348764813046      1.05839005613243
  H   1.50962043610977      1.56076027768383      0.85419356152619
  H   0.91745676082984      0.34635404462696      2.01119599310787
  H   2.43458121315385      0.08002230269496      1.14644642935039
  C   1.36521084430170     -0.06263999088365     -1.34398069423841
  N   1.94114513498410      0.07164765875454     -2.35886000002605
