16
Coordinates from ORCA-job run
  C   -0.93065654589458     -0.04402395937811      0.23880906215241
  C   0.52725725527393      0.32070444774502      0.62849905492819
  Br  -2.07401747765467      0.24483726475996      1.78895695781250
  H   0.50713447098529      1.30034598778843      1.11466584502155
  N   -1.30140909256886      0.99240799075503     -0.83043622255577
  O   -1.47485555136892      0.57364706518504     -1.96921229149973
  O   -1.28060512696653      2.16445103460234     -0.48142052901784
  N   -1.18811518197437     -1.33055991409586     -0.28213848302942
  H   -0.90439188189382     -2.05872883241057      0.36002451689723
  H   -0.79924589037770     -1.45980974276361     -1.20609878726308
  C   1.45544549577229      0.36514577603075     -0.59082902181712
  H   1.16735599136547      1.17044619920122     -1.26816889330862
  H   2.47913094393733      0.55068907785087     -0.26275905226581
  H   1.44259412487360     -0.58280666770851     -1.13175256412051
  C   0.99549939958524     -0.68062235432431      1.58398661747062
  N   1.37887906690632     -1.52412337323770      2.30587379059536
