16
Coordinates from ORCA-job run
  C   -0.80751273105092      0.00173996895084      0.40421333776929
  C   0.69204142732687      0.31060679546465      0.50179828918938
  Br  -1.71641914698280      0.44279722626467      2.05997256125265
  H   0.78452572836593      1.36141385126201      0.78809169393410
  N   -1.37155093798646      1.02521169172785     -0.64408243100558
  O   -2.05508868144699      0.55297385669247     -1.54544659266269
  O   -1.06639274638279      2.20101455324921     -0.49976284206618
  N   -1.07005658781411     -1.33426560969304      0.06956431500822
  H   -2.06103606694091     -1.53798261099904      0.07705276366860
  H   -0.69221985744675     -1.56708455561141     -0.84068293297443
  C   1.41538631732428      0.08531544636979     -0.83333257095465
  H   0.95975113648041      0.67476007486134     -1.63121601133708
  H   2.45447724569650      0.40267155227538     -0.73514684527010
  H   1.41981812033286     -0.96985583462452     -1.11203844368641
  C   1.29344382029950     -0.50971505759324      1.55198233635401
  N   1.82083296022535     -1.13760134859696      2.39203337278089
