16
Coordinates from ORCA-job run
  C   -0.82300682703335      0.03744396493566      0.13211202204340
  C   0.67232500759722     -0.09466672898808      0.47053267015658
  Br  -1.48020135291765      1.82531122729885      0.78518786881691
  H   0.68448050996731     -0.23049695044403      1.56044990591341
  N   -1.09639436099250      0.08166651050693     -1.37190445924121
  O   -2.24972355981402     -0.14887631339765     -1.70910284417292
  O   -0.15876326815984      0.34547439784551     -2.11206475513574
  N   -1.54530951250929     -1.05016533791321      0.62645045756094
  H   -2.51595932346094     -1.02780254789766      0.33984775222259
  H   -1.45909582892218     -1.15255048164650      1.62834167860528
  C   1.61834269217255      1.06499202256291      0.14179806356067
  H   2.61452120648216      0.80493507256678      0.50511198723570
  H   1.29603238040486      1.97520053082153      0.64442403459489
  H   1.67020514974615      1.23906062254218     -0.92920123129282
  C   1.16399563481673     -1.34412726134693     -0.12161328877220
  N   1.60755145262277     -2.32539872744627     -0.58936986209551
