16
Coordinates from ORCA-job run
  C   -0.84311996807448      0.04812592379104      0.32398372324298
  C   0.68294973389665     -0.04490220212190      0.54232931896865
  Br  -1.56126653420647      1.59775981893019      1.23716865242364
  H   0.79264708325076     -0.10764221163499      1.63051016146244
  N   -1.07243624393827      0.27177420123928     -1.21072215693522
  O   -1.36553436373203     -0.74303361918484     -1.83708876884923
  O   -0.88385601836798      1.38619233835964     -1.67688294879125
  N   -1.48707951255798     -1.10563579709126      0.80994918011660
  H   -2.49455528204147     -1.02127250898649      0.75712637587734
  H   -1.19166584600877     -1.92806216498183      0.29501054154556
  C   1.52618951938662      1.11203504316361      0.00084336733151
  H   1.14586763574270      2.06476822325307      0.36729718852042
  H   2.55357389182839      0.98725238973301      0.34748155493245
  H   1.53000080914962      1.13149941931168     -1.08807244557592
  C   1.14931794025897     -1.31726986243370     -0.01878012385787
  N   1.51996715541380     -2.33258899134657     -0.47915362041210
