16
Coordinates from ORCA-job run
  C   -0.77906748252172      0.10970741996175      0.02934437625002
  C   0.73769430210062     -0.09738928557561     -0.13305803821496
  Br  -1.27631163574720      1.96424108118737     -0.10827348620032
  H   0.88665411177170     -1.18221634150207     -0.05320635182347
  N   -1.42185369405731     -0.67301945361519     -1.17149506741399
  O   -1.33239459874059     -1.89182789110382     -1.03213690243279
  O   -1.90848182904223     -0.08333810709515     -2.12083157432774
  N   -1.21288448196865     -0.41202929325501      1.27291230483769
  H   -1.09092061484470     -1.41925074047252      1.28143966742497
  H   -2.18240028900306     -0.18368881589083      1.45492000706512
  C   1.55717473709196      0.60792305139535      0.94921666840787
  H   1.49347052892559      1.69003012700064      0.83820391143646
  H   1.18365259797547      0.32687394256878      1.93301800495571
  H   2.60365580294553      0.31091101025638      0.86017236069236
  C   1.17503474479811      0.30192111174568     -1.47100255886751
  N   1.56497780031648      0.62915218439421     -2.52922332178940
