16
Coordinates from ORCA-job run
  C   -0.92060648548056      0.01009260895702      0.27825409599134
  C   0.56396343850461      0.35771700573069      0.57293749742054
  Br  -1.98562846934712      0.47454827805740      1.83946833336036
  H   0.59535071559987      1.37707250505637      0.96859218850031
  N   -1.30346432060123      0.95772015955126     -0.86617913994434
  O   -1.24559480476350      2.15537929286167     -0.62466495478868
  O   -1.53428753561652      0.44291795821047     -1.95428057077114
  N   -1.24108289411064     -1.30872356398339     -0.11187396313053
  H   -0.97647359250990     -1.98177033194026      0.59525972803387
  H   -0.87136448942785     -1.54445775426686     -1.02261781862250
  C   1.43986140013016      0.26209812138436     -0.68159807446428
  H   1.14652842924902      1.01226706035545     -1.41743998113048
  H   1.37756320644450     -0.72945709053261     -1.13357248112523
  H   2.48130182338351      0.44356641743888     -0.41234368194243
  C   1.04231022887106     -0.56956047012154      1.59587878779632
  N   1.43162334967471     -1.35741019675893      2.37518003481682
