16
Coordinates from ORCA-job run
  C   -0.81895248564734      0.17707227319441     -0.13352115593356
  C   0.68530440564122     -0.18633490339433     -0.10130331226427
  Br  -1.06067241240304      2.07009970129839     -0.38848841754141
  H   0.70477047483071     -1.27923878981577     -0.00611728914202
  N   -1.39846425309270     -0.60200640109773     -1.33398292679334
  O   -1.37613502605183     -1.81747387878856     -1.15160684594272
  O   -1.79759014305361     -0.01868535176989     -2.32623075766746
  N   -1.59301968826541     -0.24281272130713      0.99015728221517
  H   -1.39849937550790     -1.20877632968031      1.22509070315063
  H   -1.46076183552407      0.36390189910190      1.78634431958936
  C   1.43403443882411      0.43466973529600      1.07786285733923
  H   0.95201589260961      0.16293722216203      2.01839919333277
  H   2.45672256206470      0.05485853454264      1.09935430825333
  H   1.46940733129815      1.52033042189773      0.99219631166035
  C   1.33010511210483      0.15055802792857     -1.37048126416629
  N   1.87073500217254      0.42090056043212     -2.37767300608976
