16
Coordinates from ORCA-job run
  C   -0.85758374383577     -0.13671027059984      0.25708050366725
  C   0.57107249210429      0.24601471439792      0.66409028010913
  Br  -2.04465917748298     -0.11545152975228      1.79133589122520
  H   0.51143395249427      1.21794197721365      1.16053491158084
  N   -1.36032817580975      1.04288233389273     -0.64898016764691
  O   -1.84942972621448      0.72427926995144     -1.72684977060302
  O   -1.18151953689006      2.18102523804915     -0.23744841408859
  N   -0.93136338476535     -1.38713091834824     -0.37229242209160
  H   -0.39326951820540     -1.40097732816921     -1.23000708308598
  H   -1.88616088948796     -1.65187434031605     -0.57676183454995
  C   1.50768762606470      0.35465253006396     -0.54718988226844
  H   2.48265400760074      0.71328718094957     -0.21416705174363
  H   1.66083052537844     -0.61587782362167     -1.02230671463356
  H   1.12132737810973      1.06640010402423     -1.27920348079112
  C   1.08766274111866     -0.73432785265000      1.61774059247862
  N   1.56364542982090     -1.50413328508531      2.36542464244173
