16
Coordinates from ORCA-job run
  C   -0.79132343450089     -0.01022961788414     -0.06666077392297
  C   0.74268137294186     -0.09306093692545     -0.16367323907314
  Br  -1.39221415811351      1.86098420871590     -0.28024763721789
  H   0.95111302194961     -1.17028854402355     -0.18129007477559
  N   -1.33786679016758     -0.82371569912590     -1.26553237993063
  O   -1.34881923959747     -2.03742875664251     -1.09047969402037
  O   -1.63983677408695     -0.23032479859622     -2.28919804621578
  N   -1.24457913574050     -0.63170181086453      1.11536021168383
  H   -1.00047299528892     -0.07837999994387      1.92618292222948
  H   -2.24788608219938     -0.77188686956247      1.10384986014850
  C   1.45985903057141      0.53183673278049      1.03513949361812
  H   1.21073342745253     -0.00731381084101      1.95029369221553
  H   2.53842872084410      0.45668181652950      0.88989058964698
  H   1.19900169086027      1.58539435756235      1.14010849878978
  C   1.22726406168911      0.48245611274311     -1.41820174125401
  N   1.67391728338633      0.93697761607830     -2.40454168192184
