16
Coordinates from ORCA-job run
  C   -0.82703867599931     -0.03860307415323      0.16002000336532
  C   0.59927814364678      0.32103765643453      0.59620503529263
  Br  -2.04931792897340      0.24480292922718      1.73430724431943
  H   0.56270258006072      1.30252712696607      1.07368329778745
  N   -1.33191738488265      0.99867395561488     -0.84336034035304
  O   -2.12619749907877      0.60206428411516     -1.68618568686556
  O   -0.92948203196158      2.14553940272616     -0.70129795919527
  N   -0.90767562344468     -1.29691001043227     -0.43236085012178
  H   -1.82050686832396     -1.48030443144262     -0.82804552409796
  H   -0.62750396720263     -2.03362423238763      0.20324541595265
  C   1.57731745764167      0.34275751331096     -0.58589471493159
  H   1.59015873357874     -0.62167346819400     -1.09188612066323
  H   2.58063209193484      0.56550094854293     -0.21880822002057
  H   1.29478422768500      1.12013646309583     -1.29550670434842
  C   1.02729447954539     -0.67040024368574      1.58383423629014
  N   1.38647226577387     -1.50052481973823      2.33305088758979
