16
Coordinates from ORCA-job run
  C   -0.90921051779811      0.08460289151289      0.23640748145122
  C   0.61217867705491     -0.03270984735865      0.54557205817834
  Br  -1.61684459975784      1.59540197415540      1.21625273099456
  H   0.68681360188215      0.00569784901338      1.63838164553756
  N   -1.01108981475436      0.34302451964347     -1.27325288924798
  O   -1.09911446871624      1.48724901634245     -1.69046538842916
  O   -0.90403832336735     -0.67780913929338     -1.94781987649863
  N   -1.72603133878618     -1.04883553746660      0.50796644954023
  H   -1.37076974228021     -1.87065168936723      0.03236857183741
  H   -1.80190227907310     -1.21400738937527      1.50267926417121
  C   1.47815107658176      1.07179826727807     -0.06613773902641
  H   1.08740731172577      2.05394638126826      0.19942018094897
  H   1.50965698799040      0.98601717112392     -1.15322076353961
  H   2.49829645773750      0.98470205986318      0.31108666676313
  C   1.08861806206175     -1.35433431169665      0.12935446572924
  N   1.47987890949914     -2.41509221564324     -0.18959285841003
