16

C	0.0	0.0	0.0
C	-0.508088	0.224905	-1.457838
Cl	1.77295	0.0	0.0
H	0.034714	1.113661	-1.801777
N	-0.413083	1.180147	0.880015
O	-0.761833	0.938356	2.026473
O	-0.312247	2.284939	0.359586
C	-0.478388	-1.241933	0.584427
N	-0.790743	-2.27799	1.041781
N	-1.901125	0.472184	-1.583807
H	-2.16803	1.395474	-1.273542
H	-2.536992	-0.171529	-1.106667
N	-0.169077	-0.991423	-2.18343
H	0.75924	-0.934594	-2.580368
H	-0.844978	-1.067525	-2.933178
Cl	-4.579691	0.0	0.0
