16

C	0.0	0.0	0.0
C	-0.634016	-0.044179	-1.409289
Cl	1.757498	0.0	0.0
H	-1.551679	0.532212	-1.300117
N	-0.373708	1.330874	0.704081
O	-0.771998	2.249083	0.005719
O	-0.167878	1.363995	1.910491
C	-0.429087	-1.087083	0.877701
N	-0.640479	-1.999083	1.587484
N	-0.903571	-1.443784	-1.73099
H	-1.730815	-1.694761	-1.18826
H	-1.209412	-1.45224	-2.699434
N	0.230868	0.602433	-2.364184
H	-0.330656	0.992153	-3.108093
H	0.878363	-0.075902	-2.748659
Cl	-3.520504	0.0	0.0
