16

C	0.0	0.0	0.0
C	-0.618479	-0.125537	-1.427682
Cl	1.750353	0.0	0.0
H	-1.471467	0.553741	-1.415032
N	-0.366726	1.375444	0.600939
O	-0.501165	1.432926	1.81474
O	-0.402105	2.310291	-0.185662
C	-0.441746	-1.03469	0.930514
N	-0.651021	-1.903594	1.6936
N	-1.026984	-1.51416	-1.602766
H	-1.342501	-1.594861	-2.565146
H	-1.871045	-1.624454	-1.036512
N	0.319273	0.30417	-2.434418
H	0.862783	-0.491977	-2.746879
H	-0.185201	0.696397	-3.216893
Cl	-3.462384	0.0	0.0
