18
Coordinates from ORCA-job run
  C   0.78695352578893      0.09846711024284      0.34854958536546
  C   -0.74893558763823      0.02605939145801      0.41107969516481
  Cl  1.32163591655958      1.09506288197867      1.71952013752853
  H   -0.98770603555123     -0.39420310570216      1.38959358683127
  N   1.23620889825769      0.81620790088953     -0.92974602473916
  O   1.80222174010644      0.13325462565380     -1.77593006472291
  O   0.97580671240757      2.00902406486202     -1.01599938575216
  C   1.43977194252979     -1.26294663421591      0.43277607165800
  H   1.18208836274539     -1.87305288966096     -0.43148960219158
  H   2.52326920066621     -1.15352877615503      0.46467701228808
  H   1.10463845285108     -1.76149262076279      1.34354461197573
  N   -1.19075763263274     -1.02293232504358     -0.56834263091491
  O   -1.62613343837181     -2.07668173836765     -0.10961501023588
  O   -1.06522831108765     -0.74779640082770     -1.75994166118587
  C   -1.53628005686510      1.29736995084276      0.16071167394548
  H   -1.42161686437442      1.63726597525870     -0.86571477982532
  H   -2.59211927943012      1.09442340631889      0.35411074581357
  H   -1.20281754596139      2.08649918323055      0.83321603899687
