18
Coordinates from ORCA-job run
  C   0.73772910207857      0.13264405150492     -0.17050001468622
  C   -0.77377881844303     -0.11301743754240     -0.12667035731988
  Cl  1.07692897033955      1.84459516513745     -0.41297355602642
  H   -0.92299996587785     -1.18508395847802     -0.27727740292766
  N   1.33524234956247     -0.68781110223549     -1.33382382586681
  O   1.06693343893063     -1.88278657012056     -1.27505872422629
  O   2.05315630122300     -0.13959867579321     -2.15053459699657
  C   1.45041061322529     -0.36510237966014      1.07514648889394
  H   1.17527891932871      0.24326217983271      1.93518446980973
  H   1.19549399543712     -1.40966425286018      1.25999315905186
  H   2.52845631536313     -0.28026818798614      0.92607452476950
  N   -1.39359136072248      0.52731117589016     -1.34695799116122
  O   -2.26677198317994      1.37262612329701     -1.18521083819393
  O   -0.95683923577714      0.13957478657155     -2.42727481220893
  C   -1.44479188571801      0.36680265535724      1.14082816792702
  H   -1.09986035384308     -0.22677242742013      1.98808140071969
  H   -1.24069793350417      1.42122357116891      1.32558485233240
  H   -2.52329846842276      0.24106528333632      1.05538905610979
