17

C	0.0	0.0	0.0
C	-0.563156	0.04513	-1.415429
Br	1.955452	0.0	0.0
H	-1.64233	0.230441	-1.275144
H	-0.27003	0.934648	0.489454
C	-0.517609	-1.183558	0.789556
H	-1.609623	-1.16665	0.734149
H	-0.211854	-1.096509	1.834358
H	-0.133353	-2.12601	0.396142
C	-0.347236	-1.187841	-2.258173
H	-0.89338	-2.015353	-1.802636
H	-0.748405	-1.030396	-3.258888
H	0.710231	-1.443031	-2.343606
N	-0.038782	1.277246	-2.098307
O	-0.182851	2.34327	-1.502223
O	0.490435	1.164284	-3.204187
Br	-3.894036	0.0	0.0
