14

C	-0.502053	-0.070628	-1.425508
C	0.0	0.0	0.0
Br	0.107887	1.714203	-2.232624
H	1.088275	0.0	0.0
H	-0.392955	0.886157	0.497698
C	0.163271	-1.069539	-2.264832
N	0.613916	-1.842029	-3.026502
N	-1.906899	-0.2261	-1.523646
H	-2.226501	-0.207245	-2.484203
H	-2.377881	0.491816	-0.987813
N	-0.471127	-1.162195	0.762502
O	-0.852064	-0.968203	1.920994
O	-0.409792	-2.270087	0.229607
F	2.503029	0.0	0.0
