14

C	-0.466904	0.005892	-1.417257
C	0.0	0.0	0.0
Br	-2.625739	0.136489	-1.405634
H	1.092052	0.0	0.0
H	-0.352036	-0.899991	0.504641
C	-0.124225	1.16668	-2.233964
N	0.148168	2.00984	-3.005486
N	-0.075319	-1.160378	-2.068962
H	-0.427272	-1.237972	-3.011939
H	-0.247101	-1.994554	-1.526021
N	-0.466202	1.13242	0.788615
O	-0.550669	2.232112	0.240111
O	-0.685255	0.931026	1.985663
F	2.474948	0.0	0.0
