14

C	-0.08164	0.205085	-1.517192
C	0.0	0.0	0.0
Br	-0.594668	-1.950969	-2.209183
H	1.088666	0.0	0.0
H	-0.49275	-0.88343	0.380374
C	-1.252844	0.818488	-2.119041
N	-2.190962	1.335014	-2.607123
N	1.109803	0.616002	-1.974412
H	1.953308	0.381614	-1.344009
H	1.213612	0.821901	-2.955377
N	-0.492735	1.180997	0.732598
O	-0.37425	2.288933	0.207827
O	-0.952129	0.985114	1.857427
F	2.663497	0.0	0.0
