14

C	-0.514443	-0.052974	-1.431434
C	0.0	0.0	0.0
Br	-0.083905	1.732571	-2.174635
H	1.090481	0.0	0.0
H	-0.361773	0.889534	0.516208
C	0.217702	-1.025008	-2.251587
N	0.740535	-1.799667	-2.962839
N	-1.936077	-0.257974	-1.650221
H	-2.440609	0.400036	-1.064507
H	-2.147034	-1.198368	-1.329898
N	-0.470048	-1.149881	0.767147
O	-0.736601	-2.199619	0.162385
O	-0.537892	-1.031822	1.990986
F	2.487969	0.0	0.0
