14

C	-0.173668	0.091998	-1.528329
C	0.0	0.0	0.0
Br	-0.043502	-1.750905	-2.278651
H	1.088905	0.0	0.0
H	-0.400351	0.919355	0.436776
C	-1.464354	0.612154	-1.98301
N	-2.491856	1.060872	-2.337882
N	0.923823	0.861026	-2.060989
H	1.759908	0.619897	-1.479628
H	0.720428	1.84844	-1.938828
N	-0.711964	-1.119201	0.64416
O	-0.06622	-1.938247	1.293318
O	-1.939914	-1.146637	0.495621
F	2.631027	0.0	0.0
