14

C	-0.441149	0.030576	-1.425878
C	0.0	0.0	0.0
Br	-2.672259	-0.121714	-1.39846
H	1.093122	0.0	0.0
H	-0.393917	0.84665	0.55464
C	-0.35054	1.372427	-1.987662
N	-0.244208	2.45158	-2.442349
N	0.095407	-0.920481	-2.250748
H	-0.263613	-0.934336	-3.19259
H	0.174885	-1.822213	-1.800733
N	-0.416834	-1.207476	0.70657
O	-0.328503	-2.293798	0.120144
O	-0.76529	-1.093442	1.880727
F	2.468122	0.0	0.0
