14

C	-0.52069	-0.029968	-1.438747
C	0.0	0.0	0.0
Br	-0.013327	1.670235	-2.315324
H	1.088064	0.0	0.0
H	-0.415337	-0.879051	0.505295
C	0.2032	-1.094552	-2.141344
N	0.680578	-2.006413	-2.707309
N	-1.940334	-0.222647	-1.67636
H	-2.433806	0.40761	-1.051202
H	-2.169804	-1.170353	-1.387996
N	-0.569174	1.173004	0.711205
O	0.18854	2.045545	1.118352
O	-1.801349	1.211305	0.863497
F	2.539328	0.0	0.0
