18

C	0.0	0.0	0.0
C	-0.407485	-0.191852	-1.466171
Cl	1.883757	0.0	0.0
H	0.258383	0.435348	-2.068844
N	-0.27196	1.441595	0.446466
O	-0.008543	2.326834	-0.35677
O	-0.700699	1.605109	1.584247
N	-0.54876	-0.906857	0.86929
H	-1.059478	-1.629291	0.383407
H	-1.021122	-0.494664	1.659732
C	-1.85076	0.219946	-1.703473
H	-2.575619	-0.291372	-1.066622
H	-1.991239	1.289308	-1.547375
H	-2.11001	0.0106	-2.747195
N	-0.25806	-1.621111	-1.735921
H	-0.758609	-1.853712	-2.583415
H	0.719165	-1.857901	-1.856555
Cl	-4.853166	0.0	0.0
