18

C	0.0	0.0	0.0
C	-0.596399	0.097895	-1.395494
Cl	1.818343	0.0	0.0
H	-1.632779	0.404595	-1.196543
N	-0.328671	1.276518	0.806591
O	-0.100438	1.210399	2.010604
O	-0.764693	2.248606	0.2125
N	-0.526627	-1.053919	0.755271
H	-0.308343	-1.954806	0.360682
H	-0.243856	-0.988429	1.723292
C	-0.656527	-1.272193	-2.059896
H	-1.03725	-1.147462	-3.07681
H	-1.355821	-1.92095	-1.532314
H	0.335268	-1.737481	-2.116882
N	0.109057	1.102372	-2.183288
H	0.636912	0.66232	-2.929069
H	-0.563028	1.740199	-2.588161
Cl	-3.933136	0.0	0.0
