18

C	0.0	0.0	0.0
C	-0.532158	0.413525	-1.378628
Cl	1.772303	0.0	0.0
H	-1.568199	0.706216	-1.190243
N	-0.321248	1.150847	1.027875
O	-0.147545	0.851827	2.207179
O	-0.715081	2.233548	0.620064
N	-0.534961	-1.215267	0.452532
H	-0.281843	-1.349571	1.424934
H	-1.558174	-1.125526	0.386645
C	-0.541698	-0.781726	-2.322887
H	-1.195927	-1.569899	-1.957077
H	-0.911701	-0.449483	-3.297202
H	0.466399	-1.189795	-2.446708
N	0.232712	1.53933	-1.907599
H	0.756613	1.25347	-2.725615
H	-0.39342	2.289196	-2.161481
Cl	-3.611173	0.0	0.0
