18

C	0.0	0.0	0.0
C	-0.519641	-0.010845	-1.496235
Cl	1.778469	0.0	0.0
H	0.36872	-0.148793	-2.117446
N	-0.313676	1.363324	0.69403
O	-0.993939	1.341411	1.711816
O	0.174293	2.369117	0.191942
N	-0.510143	-1.026323	0.818133
H	-0.861252	-1.734636	0.179338
H	-1.3083	-0.661485	1.333317
C	-1.228186	1.266783	-1.955339
H	-0.557719	2.125628	-1.985264
H	-2.089575	1.475583	-1.317597
H	-1.605776	1.081086	-2.964683
N	-1.346455	-1.202923	-1.65795
H	-1.387683	-1.43984	-2.641914
H	-2.294062	-0.991833	-1.329887
Cl	-3.942316	0.0	0.0
