18

C	0.0	0.0	0.0
C	-0.403186	-0.123635	-1.524063
Cl	1.773882	0.0	0.0
H	0.328227	-0.870112	-1.853
N	-0.339778	1.361611	0.706137
O	-0.640823	1.283064	1.89344
O	-0.225755	2.403042	0.07297
N	-0.533877	-1.077293	0.721796
H	-1.551356	-1.024575	0.636745
H	-0.294961	-0.997385	1.702894
C	-0.194137	1.128063	-2.368969
H	0.76231	1.615335	-2.181796
H	-0.247149	0.812991	-3.413003
H	-0.990247	1.850119	-2.189379
N	-1.694783	-0.676233	-1.81352
H	-1.780872	-1.615525	-1.447375
H	-2.475431	-0.145085	-1.426497
Cl	-4.166592	0.0	0.0
