18

C	0.0	0.0	0.0
C	-0.420769	-0.161435	-1.492441
Cl	1.774941	0.0	0.0
H	0.248247	0.490646	-2.059869
N	-0.387376	1.428984	0.413274
O	0.113204	2.332741	-0.245532
O	-1.191377	1.564732	1.326215
N	-0.550111	-0.901723	0.937432
H	-1.437058	-0.537691	1.276541
H	-0.710495	-1.790989	0.483242
C	-1.8577	0.258098	-1.732285
H	-2.589778	-0.247391	-1.097569
H	-2.099516	0.040366	-2.774704
H	-2.001569	1.326676	-1.568767
N	-0.230145	-1.521847	-1.968037
H	0.655283	-1.913741	-1.672704
H	-0.994127	-2.115726	-1.670016
Cl	-4.781171	0.0	0.0
