18

C	0.0	0.0	0.0
C	-0.48436	0.09682	-1.479353
Cl	1.772926	0.0	0.0
H	0.23367	-0.548165	-1.998079
N	-0.343265	1.262986	0.879614
O	-0.047416	2.371557	0.449154
O	-0.825331	1.038216	1.983207
N	-0.486296	-1.164412	0.589476
H	-0.496782	-1.096692	1.597001
H	-1.406463	-1.373689	0.21091
C	-0.401091	1.481979	-2.121827
H	-0.594537	1.353796	-3.189259
H	0.573321	1.953035	-1.999349
H	-1.163923	2.142734	-1.718248
N	-1.771646	-0.556028	-1.600108
H	-2.01734	-0.67008	-2.57238
H	-2.55315	-0.083256	-1.132247
Cl	-4.430708	0.0	0.0
