15

C	-0.318552	-0.056818	-1.479735
C	0.0	0.0	0.0
Cl	-2.103833	-0.165598	-1.791441
H	1.105342	0.0	0.0
H	-0.035062	0.905772	-1.912361
N	0.320858	-1.21617	-2.056553
H	0.243158	-1.187353	-3.066112
H	1.309379	-1.167766	-1.807525
N	-0.527563	-1.183688	0.686484
H	0.128312	-1.418954	1.424486
H	-0.504276	-1.956231	0.026725
N	-0.469622	1.243767	0.57481
H	0.129201	1.480242	1.356821
H	-1.401962	1.070267	0.936035
Br	3.619436	0.0	0.0
