15

C	-0.547651	0.003961	-1.422307
C	0.0	0.0	0.0
Cl	-0.069533	1.473943	-2.316296
H	1.098006	0.0	0.0
H	-0.069541	-0.814982	-1.974543
N	-1.993924	-0.076001	-1.372292
H	-2.36255	-0.225577	-2.303788
H	-2.19657	-0.886731	-0.795053
N	-0.4679	-1.301774	0.57814
H	-0.338463	-1.224698	1.582127
H	0.198318	-2.011675	0.279923
N	-0.483561	1.133965	0.731847
H	-1.48291	1.064755	0.884443
H	0.015858	1.231594	1.606605
Br	3.694119	0.0	0.0
