15

C	-0.577853	-0.002229	-1.406341
C	0.0	0.0	0.0
Cl	0.103206	1.445987	-2.341707
H	1.090173	0.0	0.0
H	-0.203016	-0.865853	-1.951665
N	-1.994626	0.011865	-1.349296
H	-2.283413	0.793007	-0.77141
H	-2.406869	0.083189	-2.269498
N	-0.411092	-1.239798	0.623327
H	-1.376885	-1.174625	0.919661
H	0.189092	-1.431349	1.415183
N	-0.535876	1.185198	0.708347
H	-0.061144	2.000881	0.335644
H	-0.22861	1.108674	1.671318
Br	3.671712	0.0	0.0
