15

C	-0.385193	-0.034872	-1.469885
C	0.0	0.0	0.0
Cl	-2.225893	-0.066193	-1.647364
H	1.104964	0.0	0.0
H	-0.132204	0.924509	-1.930016
N	0.198481	-1.146932	-2.129069
H	0.919592	-1.563276	-1.554221
H	0.575948	-0.892042	-3.029392
N	-0.412191	-1.21742	0.655217
H	-1.396262	-1.147014	0.890868
H	0.125501	-1.339482	1.504635
N	-0.544286	1.197246	0.657002
H	-0.253237	2.01526	0.126821
H	-0.061079	1.270878	1.548658
Br	3.647136	0.0	0.0
