15

C	-0.517466	0.007992	-1.440644
C	0.0	0.0	0.0
Cl	0.000173	1.502678	-2.294688
H	1.098468	0.0	0.0
H	-0.034205	-0.802248	-2.000102
N	-1.962396	-0.044159	-1.418841
H	-2.18713	-0.812887	-0.791186
H	-2.323499	-0.242961	-2.343796
N	-0.51466	-1.254589	0.594804
H	-0.522496	-1.081873	1.594107
H	0.179867	-1.979657	0.429783
N	-0.487622	1.110134	0.79289
H	-1.368098	1.432697	0.404944
H	0.185375	1.862998	0.730032
Br	3.67015	0.0	0.0
