15

C	-0.419117	0.165265	-1.450008
C	0.0	0.0	0.0
Cl	-2.367564	0.512181	-1.43206
H	1.099616	0.0	0.0
H	-0.077684	1.10429	-1.88129
N	-0.104545	-0.935646	-2.207371
H	-0.318677	-1.789151	-1.708065
H	-0.408969	-0.914464	-3.166535
N	-0.460154	-1.307896	0.455674
H	0.19208	-1.621812	1.165907
H	-1.361539	-1.181078	0.905387
N	-0.392313	1.099272	0.872521
H	0.38238	1.745169	0.951855
H	-1.200185	1.586571	0.505302
Br	3.588999	0.0	0.0
