15

C	-0.617352	-0.027485	-1.392467
C	0.0	0.0	0.0
Cl	0.264879	-1.164634	-2.440757
H	1.097796	0.0	0.0
H	-1.626334	-0.452516	-1.292797
N	-0.597959	1.290596	-2.008674
H	-0.824637	1.20468	-2.993662
H	-1.3269	1.835078	-1.557958
N	-0.43855	-1.182549	0.716205
H	-1.318647	-0.983307	1.182813
H	0.257613	-1.436362	1.405854
N	-0.508692	1.232346	0.649177
H	-0.186184	1.188291	1.612462
H	0.009402	2.003573	0.233373
Br	3.716247	0.0	0.0
