15

C	-0.267098	-0.029156	-1.5013
C	0.0	0.0	0.0
Cl	-2.036817	-0.097477	-1.892996
H	1.108476	0.0	0.0
H	0.055758	0.93179	-1.919373
N	0.387232	-1.18429	-2.067374
H	1.365909	-1.147483	-1.772728
H	0.356914	-1.141461	-3.080368
N	-0.588197	-1.169268	0.632592
H	-0.126929	-1.278142	1.52846
H	-0.355626	-1.977248	0.064391
N	-0.465021	1.176272	0.696334
H	0.070528	1.983479	0.402333
H	-1.44662	1.321481	0.488611
Br	3.63914	0.0	0.0
