18

C	0.0	0.0	0.0
C	-0.277696	-0.19975	-1.524665
F	1.367944	0.0	0.0
H	0.494389	0.422155	-1.990612
N	-0.343842	1.444229	0.370756
O	-0.628982	1.68574	1.537089
O	-0.18834	2.290599	-0.507792
C	-0.6474	-0.949656	0.942172
H	-1.739787	-0.76438	0.805892
H	-0.377298	-1.969679	0.664381
H	-0.326206	-0.745346	1.963849
C	-1.626298	0.148673	-2.160437
H	-1.629718	-0.240482	-3.183835
H	-2.454552	-0.210285	-1.527695
H	-1.719326	1.234182	-2.193195
C	0.091602	-1.586423	-1.829713
N	0.393573	-2.691532	-2.090809
F	-3.110511	0.0	0.0
