18

C	0.0	0.0	0.0
C	-0.450324	0.105741	-1.487767
F	1.36459	0.0	0.0
H	0.496279	0.223256	-2.030958
N	-0.302174	1.314582	0.731241
O	0.196836	2.319143	0.221669
O	-0.901271	1.290941	1.796304
C	-0.522998	-1.160475	0.787075
H	-0.182823	-2.083512	0.312361
H	-1.621164	-1.051352	0.743234
H	-0.138259	-1.109497	1.806591
C	-1.405105	1.237091	-1.904994
H	-0.916757	2.204643	-1.804159
H	-2.285431	1.123683	-1.256887
H	-1.675614	1.086063	-2.954736
C	-1.011474	-1.17447	-1.931365
N	-1.382615	-2.189108	-2.391717
F	-2.828042	0.0	0.0
