18

C	0.0	0.0	0.0
C	-0.277279	-0.139517	-1.531882
F	1.367642	0.0	0.0
H	0.493693	0.501607	-1.972171
N	-0.341887	1.427916	0.430945
O	-0.598791	1.622855	1.612442
O	-0.207841	2.308597	-0.416535
C	-0.646597	-0.986904	0.904089
H	-0.376272	-1.995181	0.585269
H	-1.738511	-0.796784	0.775844
H	-0.32458	-0.822536	1.932116
C	-1.626127	0.227938	-2.15378
H	-1.72396	1.313934	-2.142553
H	-1.62933	-0.120287	-3.19194
H	-2.453739	-0.157168	-1.535671
C	0.095706	-1.512621	-1.890511
N	0.392639	-2.60848	-2.193096
F	-3.107835	0.0	0.0
