18

C	0.0	0.0	0.0
C	-0.278854	-0.23423	-1.519695
F	1.368114	0.0	0.0
H	0.49305	0.375507	-2.000324
N	-0.339714	1.452708	0.340686
O	-0.608194	1.720269	1.504954
O	-0.192919	2.278951	-0.557848
C	-0.648777	-0.927335	0.963654
H	-0.380431	-1.95394	0.709441
H	-1.74071	-0.743151	0.821793
H	-0.328465	-0.699267	1.980188
C	-1.628542	0.097481	-2.1602
H	-1.727585	1.182921	-2.209372
H	-2.455163	-0.253172	-1.519583
H	-1.631999	-0.308395	-3.178713
C	0.088952	-1.628118	-1.792277
N	0.383964	-2.741201	-2.02668
F	-3.115303	0.0	0.0
