18

C	0.0	0.0	0.0
C	-0.278137	-0.230605	-1.521542
F	1.36799	0.0	0.0
H	0.500958	0.373998	-1.998586
N	-0.34191	1.452985	0.343537
O	-0.610806	1.71943	1.508181
O	-0.198446	2.281892	-0.553563
C	-0.645477	-0.926669	0.965903
H	-0.324603	-0.693843	1.982162
H	-0.371738	-1.954164	0.716159
H	-1.73911	-0.746973	0.826554
C	-1.61993	0.117041	-2.168349
H	-1.710909	1.203061	-2.206976
H	-1.622088	-0.276208	-3.187498
H	-2.451257	-0.231419	-1.538258
C	0.078023	-1.626886	-1.79327
N	0.364242	-2.742018	-2.026151
F	-3.096835	0.0	0.0
