18

C	0.0	0.0	0.0
C	-0.472283	0.064198	-1.479896
F	1.364452	0.0	0.0
H	0.467436	0.070704	-2.047514
N	-0.305076	1.303328	0.744004
O	-0.842082	1.255837	1.841331
O	0.150102	2.322935	0.226038
C	-0.475424	-1.175637	0.805239
H	-0.128746	-2.087603	0.31397
H	-0.046717	-1.117347	1.80664
H	-1.571692	-1.100696	0.807091
C	-1.334172	1.248846	-1.938251
H	-0.769123	2.177407	-1.898723
H	-1.644821	1.06381	-2.970389
H	-2.205911	1.242653	-1.276622
C	-1.149133	-1.182942	-1.851012
N	-1.580086	-2.188125	-2.279263
F	-2.736148	0.0	0.0
