14

C	-0.582471	-0.226192	-1.384494
C	0.0	0.0	0.0
F	-0.165073	0.885006	-2.138536
H	1.092891	0.0	0.0
H	-0.361798	0.961542	0.365997
C	-0.07719	-1.416142	-2.096502
N	0.238192	-2.32689	-2.765866
N	-1.998287	-0.315608	-1.318449
H	-2.403681	-0.41525	-2.240334
H	-2.379375	0.501796	-0.85771
N	-0.494974	-1.032494	0.936385
O	-0.270262	-2.204813	0.648767
O	-1.091676	-0.647893	1.943805
Br	3.447978	0.0	0.0
