14

C	-0.553402	-0.02737	-1.417688
C	0.0	0.0	0.0
F	0.181737	0.829162	-2.233894
H	1.091731	0.0	0.0
H	-0.357475	-0.863508	0.558759
C	-0.357167	-1.393132	-1.957453
N	-0.260852	-2.471495	-2.410029
N	-1.950398	0.260533	-1.468117
H	-2.082935	1.220328	-1.171779
H	-2.282816	0.16066	-2.419759
N	-0.436672	1.19136	0.770701
O	-0.720555	2.224032	0.158471
O	-0.446589	1.07793	1.991991
Br	3.432637	0.0	0.0
