14

C	-0.577752	0.005494	-1.404968
C	0.0	0.0	0.0
F	-0.159113	1.228527	-1.96091
H	1.090594	0.0	0.0
H	-0.363257	0.88699	0.519321
C	-0.066049	-1.046772	-2.304367
N	0.257082	-1.829373	-3.116807
N	-1.994233	-0.093955	-1.362283
H	-2.378215	0.641752	-0.781883
H	-2.392205	-0.04535	-2.291628
N	-0.491617	-1.174165	0.753033
O	-0.289624	-2.280936	0.262031
O	-1.06075	-0.963973	1.825604
Br	3.445749	0.0	0.0
