14

C	-0.370928	0.035154	-1.480332
C	0.0	0.0	0.0
F	-0.26367	-1.280524	-1.979792
H	1.089129	0.0	0.0
H	-0.392508	0.878689	0.507769
C	-1.776879	0.421118	-1.744467
N	-2.88143	0.741769	-1.981644
N	0.504913	0.945055	-2.098621
H	1.472994	0.759308	-1.83067
H	0.395222	0.956002	-3.103144
N	-0.585614	-1.191937	0.651343
O	-1.76463	-1.088519	1.006299
O	0.108451	-2.194831	0.774135
Br	3.487757	0.0	0.0
