11

C	-0.547154	-0.057605	-1.412577
C	0.0	0.0	0.0
Br	-0.098038	-1.717487	-2.344328
H	1.092406	0.0	0.0
H	-1.639259	-0.012105	-1.413537
H	-0.129102	0.749231	-2.018515
H	-0.310183	0.977594	0.395019
N	-0.546916	-1.080729	0.827968
H	0.21504	-1.685975	1.111365
H	-0.948902	-0.697667	1.669477
Br	3.7235	0.0	0.0
