11

C	-0.514808	-0.033924	-1.433552
C	0.0	0.0	0.0
Br	-0.224003	1.647748	-2.391097
H	1.09244	0.0	0.0
H	-0.005145	-0.805811	-2.010425
H	-1.594075	-0.199741	-1.467804
H	-0.359381	0.900286	0.504892
N	-0.430791	-1.180649	0.750736
H	0.120947	-1.981166	0.465178
H	-1.409393	-1.386627	0.578958
Br	3.756206	0.0	0.0
