14
Coordinates from ORCA-job run
  C   0.69421119603281     -0.03952001901384     -0.01660452910477
  C   -0.58550247123671      0.18722923532027      0.31915018592585
  N   1.09278984818219     -0.81420050595617     -1.18957145667027
  O   1.88444884165505     -1.72507147207492     -0.96396743859471
  O   0.60634938616205     -0.49939885679685     -2.27099001548260
  N   1.85651186902656      0.45687992775597      0.72631396577462
  O   2.76168024873856      0.89889614780994      0.02463327992522
  O   1.81669197714154      0.39935622476606      1.94880285176874
  C   -1.77368855657173     -0.27954826168974     -0.47485858026728
  H   -2.19609217936641      0.56733850233236     -1.02254702028164
  H   -1.51460878730707     -1.05447312439286     -1.19269172121667
  H   -2.53729406709859     -0.65356592032187      0.20916882149286
  C   -0.87930451583153      0.95917290377630      1.48890047394805
  N   -1.22819278952672      1.59690521848536      2.41526118278258
