14
Coordinates from ORCA-job run
  C   0.63258378653311      0.01598825543703     -0.25018310820650
  C   -0.63542426915900      0.24715916383847      0.13686925948789
  N   1.42453785180459     -1.16931652707862      0.08224748821897
  O   2.63711765406421     -1.06285597712648     -0.06908874247286
  O   0.81326392257356     -2.15594402835966      0.47798669279889
  N   1.38496076143093      0.96273199326980     -1.07504840170447
  O   1.91859178005683      1.90028305959639     -0.49233567937281
  O   1.41452496628914      0.70631190712802     -2.27470832759460
  C   -1.49637811079431     -0.66723401709167      0.96756218756902
  H   -1.78427244566805     -1.54336188568636      0.38459640752739
  H   -0.95712753915179     -1.02815983847394      1.84235377060097
  H   -2.39476901714735     -0.13835782707166      1.28561768927383
  C   -1.21774281270728      1.47200163973446     -0.32202544175738
  N   -1.73786652812458      2.46175408188422     -0.69384379436834
