14
Coordinates from ORCA-job run
  C   0.67141127225635      0.05295122451128     -0.17433872713182
  C   -0.64856045493304      0.24331072123690     -0.02140056376661
  N   1.53625131267679      0.84072079151298     -1.05761092136151
  O   1.36650733174976      2.05306385061010     -1.08627796773260
  O   2.34936888762040      0.18141460457880     -1.69896914378059
  N   1.41880870717805     -0.98882325657185      0.52646756708259
  O   0.99253836651544     -2.13727681435901      0.45789165724750
  O   2.41220921435252     -0.59613746151255      1.13154878570416
  C   -1.53863846904054     -0.60295770586986      0.84590316197053
  H   -2.11110846141767     -1.28783062060845      0.21437680801161
  H   -0.97584982065447     -1.19292562191318      1.56582938350706
  H   -2.24461487881075      0.04141853263044      1.37223106304525
  C   -1.29737745577372      1.29055416531189     -0.75131365980573
  N   -1.92894555171911      2.10251759044253     -1.32433744298983
