14
Coordinates from ORCA-job run
  C   0.68962174452372     -0.02865593561226     -0.05614585051616
  C   -0.57047434428290      0.16284895681878      0.37027693251902
  N   1.88888445749176      0.39989170810705      0.66828090338867
  O   2.73719170952338      0.95093741503132     -0.02516216169260
  O   1.93032836159922      0.19055408676146      1.87453037475259
  N   1.01672916405469     -0.70433488070733     -1.30993357513145
  O   1.90882550687713     -1.54464774216961     -1.23137351950218
  O   0.37172241685839     -0.39145870571425     -2.30566870385477
  C   -1.79647072759180     -0.23200263598279     -0.41142693356325
  H   -1.64801942910872     -1.17286189921688     -0.94180214721313
  H   -2.02441051618290      0.53587664220732     -1.15467178664152
  H   -2.64525015090531     -0.32955646189054      0.26415771183311
  C   -0.78761289097324      0.81440028362414      1.62587718133927
  N   -1.07106530188341      1.35000916874359      2.63506157428241
