14
Coordinates from ORCA-job run
  C   0.65787783661953      0.06211674636150     -0.21422705453108
  C   -0.64358209432089      0.25498473636503      0.05260964065759
  N   1.42681587673468     -1.06416209696127      0.31032094318110
  O   0.96083380784752     -2.18908593050256      0.15980596308932
  O   2.47714297574842     -0.75979780002348      0.86834210273364
  N   1.47839489526107      0.93276021469323     -1.06087902401595
  O   1.34628877856428      2.14298150686984     -0.92937909885549
  O   2.21906149938907      0.33878303446030     -1.83915299135156
  C   -1.49186048549399     -0.67339753379780      0.87719139037807
  H   -2.08519231844183     -1.30710776523463      0.21244448830799
  H   -0.89495733465082     -1.31849869248621      1.51817792326626
  H   -2.17853770359615     -0.08591951279092      1.48835443602827
  C   -1.31364157969268      1.38953787884108     -0.50764987352624
  N   -1.95864415396820      2.27680521420590     -0.93595884536194
