14
Coordinates from ORCA-job run
  C   0.63022873603034      0.00543728405983     -0.26796237245749
  C   -0.63577631601977      0.25454570473803      0.10884619103566
  N   1.41009742772755     -1.16001269802179      0.13621456377105
  O   2.62244663524104     -0.97880088131699      0.22375646244312
  O   0.79830812646819     -2.19430751681652      0.38151162993650
  N   1.40437799755577      0.92320052800924     -1.10660932819771
  O   1.74624877500794      1.98738142572124     -0.60248633368121
  O   1.63280472007041      0.51702334828982     -2.24092126162568
  C   -1.50104118188087     -0.66574642941730      0.93042196579859
  H   -2.40189044691158     -0.13519150730169      1.24320837083641
  H   -1.78971816371677     -1.53899884064291      0.34532397509286
  H   -0.97469649370377     -1.00457805611122      1.82287375731181
  C   -1.20944600201550      1.49081380121011     -0.33027474936867
  N   -1.73294381385297      2.49823383760014     -0.64490287089524
