14
Coordinates from ORCA-job run
  C   0.69009874485635     -0.04084480459766     -0.04234498419852
  C   -0.57529166519857      0.28597768457329      0.26477238620170
  N   1.87730509034267      0.48766429184089      0.63483967057620
  O   1.91914895632262      1.69218327745673      0.85366571501971
  O   2.71679926059952     -0.35886825766628      0.92733244502366
  N   1.04480462140481     -0.98262387037682     -1.10165842122807
  O   0.46004496706596     -2.06093684660607     -1.12267703544312
  O   1.90421590184523     -0.58495673969417     -1.88322007545220
  C   -1.79393528309930     -0.29888580281878     -0.39418334038539
  H   -2.55897986667272      0.47334425407222     -0.48575031364372
  H   -1.57478455834413     -0.71302644009968     -1.37622265697020
  H   -2.19333494678142     -1.10156225084525      0.23184900553484
  C   -0.81332488189845      1.22644270239069      1.31796777492934
  N   -1.10276634044258      1.97709280237089      2.17762983003577
