14
Coordinates from ORCA-job run
  C   0.69398779931115     -0.06890758734311     -0.01360306646118
  C   -0.57352257554218      0.21094191264303      0.32786089380478
  N   1.88404373098868      0.35900797231104      0.72932461757530
  O   2.83687541276899      0.68608722735921      0.02763043917337
  O   1.81834404857042      0.36643147297810      1.95147812240795
  N   1.04699457059957     -0.83864568377584     -1.20403010015004
  O   0.63899556647680     -0.42941638433905     -2.28616380263777
  O   1.72430316278160     -1.84016559419920     -0.99045109455567
  C   -1.77708435838284     -0.19301303502429     -0.47736937571831
  H   -1.53657559277408     -0.92774189932670     -1.24243103966226
  H   -2.19527875687834      0.69053684107908     -0.96703813883854
  H   -2.53794258989392     -0.59755883235950      0.19255610938178
  C   -0.84245922866387      0.97280212419222      1.51012616159695
  N   -1.17868118936199      1.60764146580502      2.44311027408365
