14
Coordinates from ORCA-job run
  C   0.69158393066044     -0.01954447088724     -0.06217780169527
  C   -0.57616031130642      0.26953561157989      0.27266286282765
  N   1.87485993084663      0.55028211347497      0.58844657214061
  O   2.74499042365534     -0.26806984568320      0.87217790455626
  O   1.88464584315668      1.75695811765896      0.79725390679484
  N   1.05456732092405     -0.95702522551622     -1.12251681414243
  O   0.50193926924017     -2.05242157074597     -1.12648788835501
  O   1.88582320431641     -0.53831569312995     -1.92312013856545
  C   -1.79376215601576     -0.35386524303140     -0.35141046191587
  H   -2.57002496829861      0.40495679130596     -0.46061710965454
  H   -1.57967726537098     -0.80046370295402     -1.31979376644070
  H   -2.17625122684875     -1.13662608589734      0.30932252685822
  C   -0.82026120185834      1.20410838024334      1.32978938970647
  N   -1.12227279310087      1.93949082358225      2.19847081788521
