14
Coordinates from ORCA-job run
  C   0.69172836923729      0.04664602625817     -0.06229204377235
  C   -0.58886119758030      0.17543410180625      0.31893247395594
  N   1.10357632819073     -0.67104263104889     -1.26687708679829
  O   1.83728313425925     -0.03847774556172     -2.02099697593947
  O   0.68247901391633     -1.81313569509060     -1.41989164405027
  N   1.84225701979275      0.58710399732030      0.66770580406579
  O   2.80035580192037     -0.17610173284833      0.74987776399445
  O   1.74276005365865      1.71646845543937      1.13028321715788
  C   -1.76121758849494     -0.42759581378388     -0.40380307318833
  H   -1.51127654557783     -0.73389426766366     -1.41705079624820
  H   -2.10769131903679     -1.30798168385599      0.14442163946780
  H   -2.57724082400259      0.29639785072747     -0.42995932362515
  C   -0.89696600358541      0.89746140247019      1.51652391704394
  N   -1.25618624269752      1.44871773583132      2.49312612793627
