14
Coordinates from ORCA-job run
  C   0.69192981210695      0.02386858312414     -0.07128993315595
  C   -0.57951635235188      0.18901973172885      0.32602756559652
  N   1.86608212614554      0.52664446128418      0.64862702217064
  O   2.79885040041248     -0.26796379104724      0.72346548713296
  O   1.80850822599792      1.65931589576950      1.11017012869185
  N   1.07077144713379     -0.69841407981612     -1.28383522792663
  O   1.81818799433734     -0.08409102643142     -2.03956302520834
  O   0.61320249224690     -1.82579024088687     -1.44090209575733
  C   -1.77995962602540     -0.37137392473142     -0.38415909323932
  H   -2.56153240419315      0.38950724712052     -0.42095307518904
  H   -1.54749397148000     -0.70684863481634     -1.39213370737571
  H   -2.16603413373973     -1.22405966207389      0.18108746732697
  C   -0.85031586916133      0.91540003132851      1.53019063656124
  N   -1.18068014142941      1.47478540944758      2.51226785037214
