14
Coordinates from ORCA-job run
  C   0.69133448152052     -0.05170454834778     -0.03036895601242
  C   -0.57713979428358      0.17971369861638      0.34232497839599
  N   1.87499099787567      0.41050362511507      0.70025764146862
  O   2.76334078426235      0.87295070937416     -0.01019673789137
  O   1.86750969805557      0.31145536334220      1.92095066338486
  N   1.05234067759221     -0.79444251861642     -1.23565607624585
  O   0.53159517881660     -0.44919620588084     -2.29173868341942
  O   1.85077287143474     -1.71024666334422     -1.06041830326541
  C   -1.78689726233737     -0.24426084459267     -0.44336692596334
  H   -2.16379616899333      0.61006752822121     -1.01196438037469
  H   -2.56978010490333     -0.56643473645899      0.24409861293243
  H   -1.56423269999587     -1.04565782222171     -1.14421647181349
  C   -0.82946488479205      0.92511770720643      1.53725083348799
  N   -1.14157377425212      1.55213470758721      2.48404380531608
