14
Coordinates from ORCA-job run
  C   0.69819719395763     -0.04665954638006     -0.01900577530267
  C   -0.57055289532925      0.20155550917212      0.34120006603798
  N   1.88995063383379      0.42223388504404      0.69499119018782
  O   2.81712797179040      0.77299195666808     -0.02913289153049
  O   1.84799515287740      0.44019177882155      1.91829730775172
  N   1.04359037768216     -0.81848009520649     -1.20945543666401
  O   0.57492238131150     -0.44623360778221     -2.28015575446516
  O   1.76780725255879     -1.78844855558634     -1.00732214694186
  C   -1.76973442987234     -0.24394220132635     -0.45170019605152
  H   -1.54680580582812     -1.09337039522880     -1.09556938230588
  H   -2.12135707811259      0.57940600239469     -1.07854431007403
  H   -2.57122797211053     -0.51585608034413      0.23706422438838
  C   -0.84735950649081      0.96069670417236      1.52204738914584
  N   -1.20955327626803      1.57591464558153      2.45928571582387
