14
Coordinates from ORCA-job run
  C   0.68961010686255     -0.02345634761287     -0.05444028984830
  C   -0.56712772396795      0.16530398418418      0.37671475881834
  N   1.89510696448678      0.46521272934594      0.61728128912468
  O   1.93840659558162      0.37416090793109      1.83843514190340
  O   2.74177129089449      0.94388334517078     -0.13183295496408
  N   1.00752005295428     -0.75530018321610     -1.27836104251949
  O   1.82943720658552     -1.65701060231251     -1.14334053258919
  O   0.43145164676846     -0.41781745098895     -2.30746743633647
  C   -1.78865423840502     -0.29035215150245     -0.37567727272275
  H   -1.58648101761009     -1.16603039434093     -0.99022648284782
  H   -2.12860854452626      0.51222056464893     -1.03490019226845
  H   -2.58720545743363     -0.52057467579029      0.32935960693537
  C   -0.79429211954062      0.88820881804200      1.59007237859456
  N   -1.08193476265013      1.48155145644118      2.56538302872018
