14
Coordinates from ORCA-job run
  C   0.69713225900928      0.02965908222644     -0.03366304279033
  C   -0.57995510133063      0.16350302214918      0.35617945338140
  N   1.06505999011657     -0.65957184295232     -1.26798079266423
  O   0.91308382272065     -1.87622447158068     -1.30500577583298
  O   1.49673359516539      0.06898059955030     -2.15695209875829
  N   1.88097764672556      0.50990379882923      0.69192066679699
  O   2.92036942981832     -0.09678052571968      0.44879553118998
  O   1.72763400501254      1.44411891492607      1.46606336121081
  C   -1.74496063014918     -0.36753754291182     -0.43292385893679
  H   -2.30407577918395      0.47243999237403     -0.85541247730713
  H   -1.43119188773541     -1.03281212690303     -1.23499643637432
  H   -2.41653758893350     -0.91184425084769      0.23373723923654
  C   -0.91299955532353      0.86183248783310      1.56016924293170
  N   -1.31227020591214      1.39433286302686      2.53106898791665
