14
Coordinates from ORCA-job run
  C   0.69387728955299     -0.05895535497523     -0.02774715814633
  C   -0.57351636175913      0.20931562069944      0.32209779323977
  N   1.88085004457959      0.40142657119504      0.70114891190714
  O   2.80769169414494      0.77504893713659     -0.01205223480938
  O   1.83936342468523      0.38273735564523      1.92449392012140
  N   1.05794999721676     -0.84892733000536     -1.20164939713300
  O   0.61308573239678     -0.49292308329027     -2.28839828393721
  O   1.79129137242623     -1.80713512364162     -0.97313733493201
  C   -1.78644759095951     -0.23090492660865     -0.44784633481133
  H   -2.49226959374055     -0.70213643366413      0.23926522257635
  H   -1.54245582046335     -0.92069159066805     -1.25205057386565
  H   -2.27616782226927      0.64555043064311     -0.87972406316529
  C   -0.83616526572665      0.99296432998709      1.49175898364928
  N   -1.17708710008406      1.65463059754683      2.40384054930628
