15

C	0.05626	-0.083968	0.023419
C	-0.402118	-0.195566	-1.422418
F	1.476771	0.157342	0.003406
H	-1.453552	-0.500614	-1.403366
H	0.197463	-0.975463	-1.903124
N	-0.614675	0.935994	0.691533
H	-1.639413	1.071785	0.332521
H	-0.612577	0.807236	1.695866
C	-0.020872	-1.417367	0.691727
N	-0.113104	-2.450209	1.245545
C	-0.280887	1.133618	-2.158401
H	-0.446061	0.984492	-3.230589
H	0.710646	1.566943	-2.013672
H	-1.037604	1.822362	-1.783255
H	-2.988786	1.179173	-0.17986
