15

C	-0.020316	-0.077231	0.009808
C	-0.520318	-0.145808	-1.421391
F	1.399837	0.129503	-0.035369
H	-1.610758	-0.241606	-1.369272
H	-0.31766	0.844428	-1.838823
N	-0.649499	0.964517	0.696243
H	-1.711357	1.012894	0.438156
H	-0.570129	0.844406	1.700263
C	-0.121645	-1.413718	0.672149
N	-0.222522	-2.451455	1.215213
C	0.136008	-1.238234	-2.254771
H	-0.107014	-2.232775	-1.871184
H	-0.211248	-1.187938	-3.290684
H	1.222629	-1.129832	-2.25263
H	-3.127333	0.952968	0.074564
