15

C	-0.017752	-0.06707	0.012642
C	-0.523119	-0.187288	-1.413271
F	1.400391	0.149661	-0.045577
H	-0.330629	0.790244	-1.864123
H	-1.612473	-0.290403	-1.353128
N	-0.652692	0.991857	0.666789
H	-1.715896	1.023073	0.412028
H	-0.568147	0.905967	1.673892
C	-0.105297	-1.381648	0.719229
N	-0.194749	-2.402943	1.29451
C	0.139013	-1.301097	-2.213071
H	1.224635	-1.18317	-2.219994
H	-0.093294	-2.284433	-1.795445
H	-0.213576	-1.288277	-3.248329
H	-3.132984	0.939654	0.05616
