15

C	-0.017206	-0.085845	0.006131
C	-0.505381	0.051276	-1.424195
F	1.405272	0.105721	0.00012
H	-0.284002	1.086195	-1.699623
H	-1.597595	-0.032679	-1.393249
N	-0.638894	0.859767	0.825798
H	-0.567769	0.601973	1.804207
H	-1.697539	0.958825	0.57093
C	-0.141934	-1.499335	0.476735
N	-0.261957	-2.600191	0.871351
C	0.141677	-0.926342	-2.39586
H	1.229861	-0.838397	-2.371172
H	-0.195114	-0.727005	-3.417181
H	-0.121279	-1.960038	-2.155737
H	-3.109623	0.974602	0.181398
