14
Coordinates from ORCA-job run
  C   -0.76115988567851     -0.35284107445316     -0.05551714276151
  C   0.64792102444590     -0.02364119364612      0.49774449276460
  Cl  -1.10181974811275     -2.09327609778219      0.37329765874389
  H   0.61572495577868     -0.25713850442005      1.56788134058331
  C   -0.73588590691421     -0.26928074581241     -1.51836229189121
  N   -0.67692358611875     -0.18613469644894     -2.68858390389415
  N   -1.71374287857705      0.55930492801270      0.46575035078756
  H   -1.78292072133833      0.47826411032730      1.47356941265663
  H   -2.62949702601583      0.42492794487895      0.05591598370317
  C   0.89878210824859      1.42337557668473      0.34557667113142
  N   1.20357124591810      2.54920692946517      0.20322071501745
  N   1.65059982496268     -0.86080635887489     -0.12209900052394
  H   2.48999082598577     -0.88520131818562      0.44162648830182
  H   1.89435976741571     -0.50675949974548     -1.04002077461905
