14
Coordinates from ORCA-job run
  C   -0.71788469694524     -0.18630827052496     -0.32699693887839
  C   0.59843874588048      0.42532880600822      0.20300430891410
  Cl  -0.27732578963976     -1.79678666331771     -1.11978549409649
  H   0.31367418726168      1.39750147307259      0.61874392641621
  C   -1.27909851711142      0.64613690433497     -1.39234785818706
  N   -1.73111948453307      1.33471760077081     -2.22988809240023
  N   -1.61602972487434     -0.29793946207058      0.75116331363955
  H   -1.16275338800705     -0.77642592017172      1.52153337021821
  H   -2.48451805026722     -0.74606523539770      0.49089340548024
  C   1.56053730422331      0.65368177386068     -0.88692630403565
  N   2.38492850446195      0.83365575476481     -1.70421267694313
  N   1.09279119327166     -0.40434207831108      1.28732733909931
  H   1.58866313796847     -1.20649319270050      0.91687428016286
  H   1.72969657831054      0.12433850968217      1.86961742061044
