14
Coordinates from ORCA-job run
  C   -0.61182862753466     -0.26468226738925     -0.35290421877853
  C   0.72106099186957      0.32171092295557      0.16932007745869
  Cl  -0.30488667850644     -1.67168310132290     -1.39290190373494
  H   0.42667077978641      1.20784700313107      0.76091530010852
  C   -1.30914336497656      0.75295961415017     -1.15752620955852
  N   -1.90784043156844      1.59345219406855     -1.72117375866727
  N   -1.37595186899390     -0.70207365053332      0.80176010510065
  H   -1.78282631583593      0.10628521676486      1.26336897271976
  H   -2.13259686299417     -1.30838884832351      0.50611196140971
  C   1.54073090656754      0.80504069724104     -0.94654706983349
  N   2.21854852130086      1.21130898014838     -1.81439790591425
  N   1.43117904011262     -0.69455236894196      0.91360075468839
  H   0.81925597093586     -1.05120413876926      1.63761270151826
  H   2.26762793983723     -0.30602025317944      1.32976119348302
