14
Coordinates from ORCA-job run
  C   -0.69642614777784     -0.13668139845078     -0.38760338320187
  C   0.58283851131559      0.34310432244904      0.32118016895429
  Cl  -0.12251465724401     -1.41171310207598     -1.66375634071041
  H   0.26880821054369      1.16202927574865      0.97163314936759
  C   -1.30271015562311      0.92862781351257     -1.16991177906159
  N   -1.79545159487794      1.81304897682880     -1.76297605256218
  N   -1.55572891095734     -0.60398428071437      0.51822067141371
  H   -1.16018592760970     -1.05977951525366      1.33339885389218
  H   -2.50992325893274     -0.63563221649391      0.32275650284136
  C   1.55395697463723      0.87889460546301     -0.64344491037400
  N   2.36624631595863      1.28165342093360     -1.38703129149990
  N   1.07730059532463     -0.73368757768917      1.15825626087987
  H   1.77708419647768     -0.37620814482316      1.81300634664166
  H   1.51670584876521     -1.44867217943466      0.57527180341930
