14
Coordinates from ORCA-job run
  C   -0.79743073701825     -0.44680947880753     -0.11547925526622
  C   0.59989938411308     -0.13416297594907      0.50106533944206
  Cl  -1.12545445328210     -2.17573938950962      0.18982774655156
  H   0.55101430466123     -0.47144077025573      1.54178087807145
  C   -0.71076569531204     -0.22262193570104     -1.56400549193860
  N   -0.57667789940617      0.00216034603982     -2.70918741609910
  N   -1.89218125829054      0.31666875524603      0.41597984287810
  H   -1.78734703405804      1.30285054091556      0.20547058762360
  H   -1.97202540887613      0.18070820508817      1.41699513422431
  C   0.77003299152075      1.33405881396939      0.50018734557455
  N   0.92498797960831      2.49846086538701      0.45635617399830
  N   1.64966809057320     -0.86025493890875     -0.17372369425564
  H   2.48517767030551     -0.90014091703542      0.39492588179551
  H   1.88210206546119     -0.42573712047882     -1.05919307259988
