16

C	-0.606068	0.011219	-1.56621
C	0.12765	-0.039126	-0.20126
Cl	-2.394152	0.124443	-1.322101
H	1.19713	-0.084657	-0.440494
C	-0.19179	1.190962	-2.329737
N	0.147927	2.092488	-3.001832
C	-0.350738	-1.189733	-2.366729
N	-0.124349	-2.159704	-2.990312
C	-0.227137	-1.281703	0.604863
H	-0.043569	-2.208191	0.052634
H	0.418091	-1.2642	1.484619
H	-1.274954	-1.258493	0.917833
N	-0.097786	1.226465	0.461908
H	-0.915433	1.150723	1.057661
H	0.71215	1.353962	1.075414
Cl	2.583617	0.435048	2.092503
