16

C	-0.61247	0.021965	-1.561095
C	0.127001	-0.034416	-0.199949
Cl	-2.399729	0.137429	-1.308894
H	1.195419	-0.080142	-0.443364
C	-0.200236	1.203783	-2.32266
N	0.135012	2.105973	-2.996122
C	-0.363053	-1.176541	-2.366999
N	-0.14155	-2.144727	-2.995095
C	-0.226444	-1.278714	0.603887
H	-1.272697	-1.254823	0.922036
H	-0.047362	-2.203749	0.047729
H	0.423535	-1.265679	1.480162
N	-0.09233	1.229625	0.468225
H	-0.911441	1.156959	1.06239
H	0.71806	1.350966	1.082126
Cl	2.616424	0.417006	2.047713
