16

C	-0.668993	-0.031871	-1.582918
C	0.140328	-0.054363	-0.266997
Cl	-0.158924	1.371382	-2.602689
H	1.200847	-0.117044	-0.555193
C	-0.436581	-1.240806	-2.378615
N	-0.237479	-2.212529	-3.008559
C	-2.104239	0.10346	-1.317252
N	-3.26525	0.160393	-1.147886
C	-0.224018	-1.283915	0.551643
H	-0.021643	-2.211378	0.010392
H	0.396842	-1.257417	1.449403
H	-1.27675	-1.246122	0.844385
N	-0.193653	1.140554	0.481851
H	0.232955	1.940267	0.024491
H	0.321124	1.051032	1.364488
Cl	2.233831	0.428622	2.536433
