16

C	-0.614176	-0.001955	-1.558911
C	0.127852	-0.035483	-0.198773
Cl	-2.401618	0.108329	-1.304828
H	1.201167	-0.080416	-0.443963
C	-0.209338	1.171201	-2.33773
N	0.118633	2.061696	-3.030094
C	-0.360861	-1.210261	-2.348796
N	-0.137575	-2.185897	-2.964607
C	-0.217629	-1.269788	0.623325
H	0.431236	-1.240443	1.500033
H	-0.03242	-2.201618	0.080705
H	-1.26422	-1.24834	0.940781
N	-0.095944	1.237074	0.45164
H	-0.908357	1.166299	1.055166
H	0.719496	1.374334	1.055512
Cl	2.624178	0.470737	2.030974
