16
Coordinates from ORCA-job run
  C   0.56436502693506     -0.06328395604261      0.50882657726510
  C   -0.63011834830101      0.32912151274091     -0.36914030871479
  F   0.13128861756986     -1.14270344403701      1.29847069503982
  H   -0.31845962851198      1.18238138639648     -0.98059478486042
  C   0.90670277903652      1.04112372192773      1.42097484674231
  N   1.26446886359476      1.91183695308159      2.12175350993149
  C   1.78488375486345     -0.50662081777202     -0.26776927380402
  H   2.56803737163156     -0.81321870378110      0.42707324734174
  H   2.15738083651639      0.31716938519977     -0.87996449631488
  H   1.51019526154438     -1.33456355627945     -0.91805993307408
  N   -1.68846946456846      0.78835703814371      0.51363870819103
  H   -2.47974867632369      1.12192154988559     -0.02229957418956
  H   -1.99984177089001      0.02606055001370      1.10416025169333
  N   -0.90198480064280     -0.78002573518340     -1.27426922196979
  H   -1.25543144140642     -1.56739552408332     -0.74182993882834
  H   -1.61426838104760     -0.51116036021056     -1.94197030444894
