16
Coordinates from ORCA-job run
  C   0.57797063242086     -0.16904435822863      0.50422339033519
  C   -0.65281327753371      0.19922522176770     -0.34603461369329
  F   0.30063031203658     -1.35807635712108      1.16706057311306
  H   -0.34814423364081      1.04051038342391     -0.98842116751490
  C   0.80093678784875      0.87366701749592      1.52369528459001
  N   0.97232210016100      1.74332528953620      2.29377198369678
  C   1.82359687242867     -0.37038450400164     -0.33381554519929
  H   2.63956694462768     -0.71365120714328      0.30362031474025
  H   1.60347069427533     -1.11893689915755     -1.09340678591238
  H   2.11987669707497      0.56317990180063     -0.81607249258940
  N   -1.77297259269227      0.50548166880947      0.53632122127288
  H   -1.59230883837132      1.33287594621309      1.09502322449869
  H   -2.59593765723284      0.68785888270334     -0.02558515960035
  N   -0.93402040676867     -0.92456072802511     -1.20886847910490
  H   -1.55773495246257     -0.65124088432377     -1.95697875448886
  H   -1.38543908217165     -1.64322937374922     -0.65453299414347
