16
Coordinates from ORCA-job run
  C   0.53561396517403     -0.31715579762843      0.61386215516450
  C   -0.87654547604035     -0.04793562329685      0.06949198526119
  F   0.58216089399769     -1.67043201684873      0.97746562629108
  H   -1.56520017926701     -0.19763693141852      0.91421531247306
  C   0.73246617458300      0.47121605856280      1.84111593112047
  N   0.89780165092740      1.08156343530663      2.82982071523030
  C   1.63913452651930     -0.05439642499830     -0.38795020998963
  H   1.43903599638961     -0.61943391550328     -1.29770654847728
  H   2.59314766402384     -0.36832666575564      0.03794629687722
  H   1.68973625842227      1.00998832268818     -0.61796473369671
  N   -1.11039632346467     -0.96126913856619     -1.04227299038476
  H   -2.07236132469804     -0.87059409477361     -1.34830840870814
  H   -0.97270727824335     -1.91775451558056     -0.73506307370507
  N   -0.95177142344915      1.33850545752407     -0.32867174276246
  H   -1.88789819546080      1.70474849265569     -0.22606671191730
  H   -0.67421692941379      1.41891335763273     -1.29991360277647
