16
Coordinates from ORCA-job run
  C   0.59374351463317     -0.39611039084868      0.38757689891739
  C   -0.64899314105253     -0.14030796916928     -0.47392248570398
  F   0.64881703695927     -1.77308752024974      0.63658447136747
  H   -0.43523275267656     -0.60521419482702     -1.44914621202693
  C   0.43974976803261      0.28672988226845      1.68413044598594
  N   0.34857314242530      0.87149098275494      2.69773248991850
  C   1.88106615304990      0.01484537929594     -0.29259627854578
  H   1.98019342572823     -0.53932960431985     -1.22841048176900
  H   2.72973779127506     -0.22249988565391      0.35031681498068
  H   1.86184412234161      1.08216064924985     -0.50506261903889
  N   -0.77165401150576      1.28491968148268     -0.68228330151796
  H   -1.23879433441103      1.68757524093767      0.12405107080612
  H   -1.33074633534221      1.48179270359568     -1.50198975283860
  N   -1.80041141992200     -0.70612789419375      0.21248761465857
  H   -1.63885200949462     -1.68393688061262      0.42354236337925
  H   -2.61704095004044     -0.64390017971037     -0.38401103857277
