16
Coordinates from ORCA-job run
  C   0.67890477627608     -0.45264394290304      0.30318997926099
  C   -0.67438820468874     -0.30140408297186     -0.41026102214523
  F   1.02201749215162     -1.79697002653559      0.26464197377873
  H   -0.55940605588309     -0.85003948709353     -1.35719923322763
  C   0.53176079978849     -0.05736583597390      1.71480805332259
  N   0.40540184073145      0.27326880117974      2.83379754360881
  C   1.79811629858754      0.32964640255441     -0.35713131782060
  H   1.84746671527124      0.06613385894651     -1.41695720627790
  H   2.74672948612591      0.06097385351692      0.10936424195432
  H   1.64220773624005      1.40217450034263     -0.24595551769125
  N   -0.94650301109446      1.12614733768219     -0.57698977338061
  H   -0.40499687753124      1.51782917707156     -1.33938239719472
  H   -1.92537733879340      1.24682290184155     -0.80685749481974
  N   -1.68915831754462     -0.97408721191332      0.35732000577129
  H   -2.49578065734504     -1.19499425671825     -0.21048819571665
  H   -1.97799468229178     -0.39649198902604      1.13910036057762
