16
Coordinates from ORCA-job run
  C   0.56387602159095     -0.31268727078231      0.64839185390700
  C   -0.85850966779648     -0.19172955958455      0.06088898601247
  F   0.65404671720330     -1.55927761183848      1.25270297807782
  H   -1.53000744821573     -0.54255061894946      0.85860871425040
  C   0.72985379984248      0.69771424058211      1.71169078637369
  N   0.82795438161970      1.52301569505075      2.54132461785731
  C   1.65609388255392     -0.19243353885316     -0.39034600881184
  H   1.58010092384982      0.76563894399612     -0.90532370322503
  H   2.63321533840772     -0.27464603661667      0.08730274787745
  H   1.53665396342896     -1.01022872056024     -1.10072565020426
  N   -0.98746949459962     -1.10041142594842     -1.05327805366137
  H   -1.92711329439495     -1.46392684785555     -1.12390782053811
  H   -0.75235396633896     -0.61812612183828     -1.91234464764074
  N   -1.07772327261126      1.19130131856941     -0.34971934560536
  H   -1.99727867291135      1.26586429700453     -0.76849990827901
  H   -1.05233921162850      1.82248325762421      0.44423445360958
