15

C	-0.475116	0.04976	-1.445679
C	0.0	0.0	0.0
F	0.027513	1.202793	-2.01714
H	1.091317	0.0	0.0
C	0.092195	-1.080493	-2.213944
N	0.533635	-1.925943	-2.900174
C	-1.941565	0.048395	-1.601926
N	-3.100898	0.049487	-1.789479
N	-0.413639	-1.206727	0.664199
O	-1.011204	-2.053861	-0.035443
O	-0.060609	-1.375828	1.836703
N	-0.387235	1.184293	0.755755
O	-1.167049	1.99065	0.223165
O	0.148345	1.326792	1.858516
H	2.304232	0.0	0.0
