15

C	-0.467457	0.000846	-1.448985
C	0.0	0.0	0.0
F	0.009879	1.154077	-2.045454
H	1.091318	0.0	0.0
C	0.139655	-1.129418	-2.185664
N	0.614795	-1.97654	-2.846327
C	-1.930374	-0.046232	-1.618449
N	-3.087186	-0.084482	-1.817075
N	-0.410893	-1.18635	0.698839
O	-0.082375	-1.307487	1.884838
O	-0.976179	-2.070164	0.016757
N	-0.398872	1.205134	0.716723
O	0.155911	1.40437	1.799986
O	-1.210595	1.969861	0.170672
H	2.304752	0.0	0.0
