15

C	-0.503177	-0.005369	-1.437903
C	0.0	0.0	0.0
F	0.249542	-0.876616	-2.191092
H	1.091315	0.0	0.0
C	-1.918748	-0.397708	-1.578856
N	-3.040323	-0.71228	-1.733655
C	-0.323037	1.346288	-2.008148
N	-0.152463	2.417033	-2.460511
N	-0.456711	-1.178516	0.738214
O	-0.561448	-2.226531	0.08651
O	-0.496303	-1.081128	1.971137
N	-0.490206	1.202697	0.724613
O	-1.695123	1.457457	0.611389
O	0.323717	1.842758	1.379061
H	2.453066	0.0	0.0
