15

C	-0.489399	-0.000666	-1.440457
C	0.0	0.0	0.0
F	0.019728	1.126193	-2.057585
H	1.091304	0.0	0.0
C	0.065623	-1.163993	-2.165513
N	0.515878	-2.043743	-2.799773
C	-1.956676	0.006527	-1.590801
N	-3.115704	0.005703	-1.780332
N	-0.412085	-1.177484	0.713068
O	-1.056642	-2.031742	0.064329
O	-0.013806	-1.318467	1.875823
N	-0.377043	1.212823	0.715398
O	0.178009	1.400098	1.8
O	-1.164615	1.997837	0.162405
H	2.303885	0.0	0.0
