13
Coordinates from ORCA-job run
  C   -0.34126245451334     -0.12174520364698     -0.35524156050378
  C   0.78704311757110     -0.68125116874095      0.49192921344653
  Cl  -0.36628823364141     -0.76824393429205     -1.96253048150151
  H   0.68362675049168     -0.30092181242529      1.51016384904637
  H   0.70240525182549     -1.76874634848365      0.51977617384810
  N   -1.69388297632025     -0.39992489615900      0.30269296462126
  O   -1.71680497313381     -1.26853577402303      1.16392704127735
  O   -2.62855328327730      0.26076688575271     -0.12264802777404
  N   -0.23566537072869      1.41241700166688     -0.35256006805945
  O   -0.06025979920506      1.99713754291364     -1.40472443369665
  O   -0.32467213602014      1.88444016257568      0.77436154963870
  C   2.07727477192193     -0.28412238424537     -0.06216062565861
  N   3.11603933502981      0.03772992910742     -0.50298559468427
