13
Coordinates from ORCA-job run
  C   -0.42157681416401     -0.10950511362688     -0.49533087458691
  C   0.94048122449294     -0.72750200788170     -0.22625832876961
  Cl  -1.07511023257559     -0.69372768015582     -1.99793251440939
  H   0.81685107907140     -1.80767257236147     -0.12596168554379
  H   1.56445729692391     -0.53124025763349     -1.10312912087417
  N   -1.42615227393339     -0.40865710244147      0.61484851531661
  O   -2.51577735998348      0.12742653345662      0.49556816910447
  O   -1.05053997305255     -1.16637178705543      1.50032305711017
  N   -0.25777510133550      1.41727050074548     -0.52081897149969
  O   0.11362664479518      1.90213703005543     -1.57644546980842
  O   -0.42542043017950      1.97676041201029      0.55374617758035
  C   1.59012357693102     -0.19225895875276      0.96642082265307
  N   2.14781236300957      0.21534100364118      1.91497022372731
