13
Coordinates from ORCA-job run
  C   -0.35375726830358     -0.07987187526413     -0.51766481027963
  C   0.98068634347569     -0.69927673984797     -0.14849481835790
  Cl  -0.88888089282092     -0.65122970623433     -2.07789335538159
  H   0.85289000587561     -1.78411131345237     -0.14978080181147
  H   1.69431136532470     -0.43830398962252     -0.93321987565746
  N   -1.44164454069704     -0.42717061389120      0.52178004478421
  O   -1.07157137746749     -1.11790078694456      1.46383204015539
  O   -2.56488635594633     -0.00687048166090      0.30187151553287
  N   -0.26202031909281      1.46061707295494     -0.57449567127815
  O   0.83812530580255      1.93465007719339     -0.31678524732348
  O   -1.27593909209884      2.05936386788327     -0.89096623555916
  C   1.50995365025030     -0.27676120340232      1.14552158295700
  N   1.98173317569816      0.02786569228871      2.17529563221936
