12
Coordinates from ORCA-job run
  C   -0.82813764715122      0.99117025731864      0.16597017754896
  C   0.10206774034573     -0.08987082337394     -0.32574988412083
  Cl  -0.15332343547670      2.59980175508843     -0.16743843226735
  H   0.47497482474907      0.14133171516197     -1.32981523560516
  H   -1.77972553920281      0.91702188366763     -0.36179035444646
  H   -0.98032467404793      0.88894730554904      1.23734969726947
  N   -0.50811810885452     -1.38923584678189     -0.16532237212521
  H   0.08481605468962     -2.09832094679701     -0.58071666670796
  H   -1.40583431277155     -1.41459358291545     -0.63190660678282
  N   1.35674012459563     -0.14299094659280      0.51807981832679
  O   1.33160848708017      0.31778540484250      1.65197515144521
  O   2.30425648604452     -0.72104617516712     -0.01063529253466
