12
Coordinates from ORCA-job run
  C   -0.58277125563413      1.05593996586807      0.18017873823341
  C   0.14318806619821     -0.15611538579626     -0.39838632383725
  Cl  -2.14094943445533      1.26752308028110     -0.64929657865744
  H   0.34317850932614     -0.00422149906683     -1.45856317988272
  H   -0.77764469753071      0.90215170260642      1.24180137906108
  H   0.00290292183711      1.96439915904077      0.03400034347668
  N   -0.44783998755378     -1.44127104909612     -0.19574402653675
  H   -0.79026283087180     -1.54420686162236      0.75072101476728
  H   -1.20291292981378     -1.59281797731956     -0.84928493777062
  N   1.49317272450304     -0.16060833637435      0.27339116272836
  O   2.45588758000377      0.24045176996721     -0.37322889811496
  O   1.50505133399126     -0.53122456848807      1.44441130653292
