12
Coordinates from ORCA-job run
  C   -0.60992879356175      1.13712651278601     -0.20482282774191
  C   0.10768641146435     -0.19113974013283     -0.32294199558108
  Cl  -1.19684410545611      1.43694133456951      1.44146675595550
  H   0.50766800130855     -0.25260700096810     -1.34884138994010
  H   0.06830567605871      1.94188056710672     -0.47567092672541
  H   -1.46921956734068      1.13987668408953     -0.87788992365715
  N   -0.69357844134460     -1.29064741097560      0.10818529133763
  H   -1.58941525152467     -1.28700631600285     -0.35949655710120
  H   -0.22744215167005     -2.17380635134131     -0.04082234376152
  N   1.37821350055872     -0.15731421924322      0.51371675175139
  O   2.03585472748645      0.87645012056905      0.45906176761967
  O   1.68969999402108     -1.18075418045689      1.10905539784419
