12
Coordinates from ORCA-job run
  C   -0.62125330896054      1.17237782775204     -0.08904989035895
  C   0.04001035091996     -0.13854054069019     -0.46103441551998
  Cl  -1.11549675936948      1.17462743175266      1.62310009785042
  H   0.38990573761677     -0.06323365377047     -1.49470014097634
  H   0.06778205147865      1.99976436471573     -0.23803050250678
  H   -1.51668849719200      1.29480981856696     -0.69579068956179
  N   -0.80935018215641     -1.25360766839268     -0.30245596366947
  H   -0.35469859515668     -2.10992138827732     -0.58718905676052
  H   -1.10835378777932     -1.35123278862087      0.65892998706856
  N   1.35760316776132     -0.22466966471079      0.34266819309426
  O   1.51044160909955     -1.18461908637314      1.08924012962353
  O   2.16009821373818      0.68424534804807      0.15531225171707
