12
Coordinates from ORCA-job run
  C   -0.61144576680249      1.08561061807975     -0.08110629820486
  C   0.14440387720914     -0.19722833294098     -0.41770664716074
  Cl  -1.15071475436899      1.09493490598975      1.61404321361821
  H   0.46660978618331     -0.12260824044296     -1.45942550076293
  H   0.02555274878181      1.95451115016950     -0.24058774487136
  H   -1.49863006151997      1.14892157421713     -0.71175555676978
  N   -0.50047145713850     -1.44724908796956     -0.20527808736331
  H   -0.93422757390850     -1.49961760467948      0.70622831881358
  H   -1.17929200826812     -1.63374560595303     -0.92946850981388
  N   1.43608495975461     -0.15674649043697      0.37807282016741
  O   1.55797675821553     -0.92777197593490      1.31981328117966
  O   2.24315349186216      0.70098908990174      0.02717071116799
