12
Coordinates from ORCA-job run
  C   -0.78775892955562      0.92511916042194      0.18963923891853
  C   0.13409696519453     -0.11787235166347     -0.41480510310390
  Cl  -0.09767302628681      2.55950857990060      0.06761650326230
  H   0.41184653486792      0.14391778741226     -1.43516023117477
  H   -1.73503353644821      0.91542977532018     -0.34961374830081
  H   -0.95127675458176      0.70112147175487      1.24380777741780
  N   -0.36772415213676     -1.46117558204210     -0.36254907507576
  H   -0.82571702381752     -1.65660936848096      0.51790582625119
  H   -0.99046366589344     -1.65474261928934     -1.13324873339472
  N   1.42648189538741     -0.11041359471292      0.36244936566815
  O   1.32135891649839     -0.36422532951653      1.55970327310040
  O   2.46486277677187      0.11894207089546     -0.24574509356842
