12
Coordinates from ORCA-job run
  C   0.38228575580382     -0.61988984620982     -0.04401541269899
  C   -1.09376391752589     -0.24015029432537     -0.20634527153068
  H   0.55930653229633     -1.59492183236948     -0.50614681487413
  H   -1.34606337730382     -0.27686599550586     -1.26832214142468
  H   -1.71023554569696     -0.97385396904953      0.31984829109495
  C   0.81056570312511     -0.63434193043673      1.34840065286009
  N   1.10824337327534     -0.69527672716585      2.48264569209943
  N   1.21750720129195      0.35760594450691     -0.85617406430850
  O   0.97713633031513      0.34498536927908     -2.05765405972806
  O   2.02561059863823      1.06199425562323     -0.26818874672247
  C   -1.36243138960558      1.09629875107051      0.31976709293386
  N   -1.56916126461367      2.17341627458289      0.73718478229918
