15
Coordinates from ORCA-job run
  C   1.08718506241459      0.21720276982351     -0.45350069144958
  C   -0.44188254884732      0.17201122997550     -0.52405043577437
  F   1.51882712222908     -0.67492041762268     -1.44611107439474
  H   -0.74230020054559      0.54028403629077     -1.50542598769008
  H   1.44486524456531      1.19747494245902     -0.78202506233708
  N   1.58687267384192     -0.15256357759725      0.81084659578611
  H   0.89457289172952     -0.29328605274585      1.52883115777824
  H   2.35251166550141      0.41182516977178      1.13804760239899
  N   -0.94068190861701      1.20197066232632      0.44319464000593
  O   -0.94253392561286      2.36698401621085      0.05096914884685
  O   -1.25593831155089      0.82949346012146      1.57326049883829
  C   -1.02931665715451     -1.19523085972005     -0.24938576684647
  H   -0.74442316987414     -1.58224644527753      0.72701840486504
  H   -2.11855105757550     -1.15576651677254     -0.29672182078833
  H   -0.66720688050400     -1.88223241724333     -1.01394720923880
