15
Coordinates from ORCA-job run
  C   0.91497164842000      0.22015786525862      0.50599072149753
  C   -0.30338761937149      0.21534685221148     -0.39941061305880
  F   1.50532728001755      1.49139904448103      0.38116777675774
  H   0.00797885838567      0.40011111345584     -1.42986831061711
  H   0.61263432363880      0.12688013343801      1.55008660247833
  N   1.79569680712797     -0.82880262282079      0.15660733708320
  H   2.56012327755041     -0.89791158994766      0.81464833695435
  H   2.17463549901984     -0.68688965448128     -0.77176267450334
  N   -1.14825542017107      1.39905398150642     -0.03775592913541
  O   -1.51670696356883      1.47365449680355      1.13216262142092
  O   -1.43323449114028      2.18849523852734     -0.93359383614771
  C   -1.13933873224511     -1.04284209304935     -0.26762203547647
  H   -0.54960947083550     -1.90536906916087     -0.57427391913317
  H   -1.44995608389388     -1.17962100273669      0.76924793936856
  H   -2.02987891293408     -0.97466269348566     -0.89562401748861
