17
Coordinates from ORCA-job run
  C   -0.73765563543547      0.27627355774963      0.01089001420638
  C   0.69107337478863      0.32615918484601     -0.55955241912619
  Br  -2.02192235210091      0.29938626301724     -1.45618826028677
  H   0.75209852992943      1.20923799807526     -1.20055640837493
  C   -1.01352666390296     -0.89313407837615      0.92343631684709
  H   -0.90850021749464     -1.82411168903381      0.36648100169385
  H   -0.30843640899854     -0.88466165358481      1.75835861992248
  H   -2.02404420847695     -0.83437931187008      1.32163836253553
  N   -0.97276329761050      1.59696057767945      0.75823535627376
  O   -1.60740220772522      1.54479980747552      1.80460479890976
  O   -0.51786657945482      2.60805537352279      0.23650491045133
  C   1.09235682550162     -0.92334649450659     -1.34830985330488
  H   2.08379683689418     -0.77042032234959     -1.77779577686899
  H   1.13678738237606     -1.80364405128569     -0.70638676603939
  H   0.38917126778558     -1.10420389035437     -2.16130132310583
  C   1.61533439426763      0.52755087842586      0.56143489435105
  N   2.35049895965688      0.64947785056931      1.46950653191574
