17
Coordinates from ORCA-job run
  C   -0.74716276902397      0.36959689211433      0.00043444454617
  C   0.56065756597333      0.13733416327107     -0.77270267655116
  Br  -1.80445382306517      1.71639779203458     -0.93128569132847
  H   0.23168750862120     -0.24273177942332     -1.74803353053133
  C   -1.57171227818636     -0.89216103850796      0.16019297558196
  H   -2.53981410746427     -0.65631300768442      0.59561039847387
  H   -1.06172258983842     -1.59524990670000      0.82202754551630
  H   -1.72064407892868     -1.35548762023034     -0.81670905911687
  N   -0.47742521998217      0.94374475247156      1.39044760017204
  O   -1.39842655801828      0.87726782433388      2.19533037166568
  O   0.62840693006206      1.43300536057159      1.59726405994485
  C   1.48400037831058     -0.91031307863557     -0.13436403181585
  H   2.36301706884511     -1.04051677517538     -0.76783348791502
  H   1.82081974323202     -0.58934889813841      0.85037111831956
  H   0.98357086921891     -1.87575415451087     -0.05506435431377
  C   1.30052041565641      1.37144548036412     -1.05060448040983
  N   1.94868094458772      2.30808399384513     -1.33508120223812
