17
Coordinates from ORCA-job run
  C   -0.70902586802790      0.43710840144322     -0.02924175976807
  C   0.60620093772422      0.09003461421561     -0.74446997669980
  Br  -1.59244387444180      1.88438457319934     -0.99134078878777
  H   0.28958698980316     -0.25174573878851     -1.73785829540348
  C   -1.65374399775473     -0.74337687521004      0.07658703515453
  H   -2.61427066862914     -0.42190038151699      0.47211889249278
  H   -1.24198223281586     -1.49781717017830      0.75018904627827
  H   -1.80092960195685     -1.18062427888702     -0.91251087609854
  N   -0.45169189081696      0.97307604658635      1.37849981084226
  O   -1.40933573171333      0.98002355816474      2.14226574878615
  O   0.68238954641284      1.36205503535473      1.63816139461777
  C   1.39836222109366     -1.04235476859102     -0.07508822940907
  H   2.29112397427360     -1.24816985685728     -0.66799763693360
  H   1.71574571154456     -0.76080822578038      0.92804323439108
  H   0.80876820233642     -1.95849804408131     -0.03040228759925
  C   1.46911136717288      1.25183646483433     -0.97519323319682
  N   2.21213491579522      2.12677664609254     -1.22176207866643
