17
Coordinates from ORCA-job run
  C   -0.73459651759564      0.28366575103718     -0.00676930035885
  C   0.70505761300569      0.31080339292532     -0.55104459887012
  Br  -1.99119996860552      0.29876190823153     -1.49750756429799
  H   0.78683479444887      1.18352949334111     -1.20374350859235
  C   -1.03942952041858     -0.86926681179070      0.91741258298690
  H   -2.05643826068401     -0.79425146105361      1.29587975805462
  H   -0.34985587366142     -0.85541976414572      1.76511253273905
  H   -0.93393402520183     -1.80950699113825      0.37631349407523
  N   -0.96953363091940      1.61752919339991      0.71731219042905
  O   -1.62622959410117      1.58718391032229      1.75084644019894
  O   -0.49311554062974      2.61603686517854      0.19055130828443
  C   1.10753123314103     -0.95374798318183     -1.31519139837141
  H   0.41856707478315     -1.13732662773229     -2.13966782744094
  H   2.10895157558234     -0.81761147907119     -1.72686143588359
  H   1.12925265078950     -1.82608731447381     -0.66132465819211
  C   1.61027959267599      0.51789462737058      0.58418442925979
  N   2.32885839739071      0.64681329078093      1.50449755597934
