17
Coordinates from ORCA-job run
  C   -0.71287008599549      0.33363554481538     -0.02915938058107
  C   0.75171699630168      0.28794008622883     -0.50054377173423
  Br  -1.88638004369142      0.50456893649210     -1.57678127609369
  H   0.92469686445015      1.18247875915735     -1.10397832724866
  C   -1.14070793578700     -0.83812155521280      0.81953471730573
  H   -1.07014076263212     -1.75659503222740      0.23688325099669
  H   -0.49598086819657     -0.91228242749319      1.69886610123175
  H   -2.16856044136277     -0.71104412246051      1.15206991461610
  N   -0.89729331785934      1.64485761646693      0.74883109999365
  O   -1.60896307055731      1.61128855864910      1.74523213490078
  O   -0.32780392989958      2.63184904387371      0.29829792605657
  C   1.10936690812200     -0.96547656047931     -1.30397683969975
  H   0.45029811179393     -1.06832614204454     -2.16614653285968
  H   2.13593678706555     -0.87775003018142     -1.66335099001867
  H   1.04440154921406     -1.86452863500968     -0.69030001391173
  C   1.60819223901994      0.38110698223557      0.68656337631796
  N   2.28509100001430      0.41639897718988      1.64595861072824
