17
Coordinates from ORCA-job run
  C   -0.73985468248596      0.42762444917149     -0.04029952639571
  C   0.59853642221871      0.14263106793638     -0.76057245729474
  Br  -1.75545417318116      1.66984408900142     -1.13614001395019
  H   0.31736221875897     -0.02048263775280     -1.80686750180701
  C   -1.56885301181121     -0.81499136829979      0.22709931255284
  H   -1.04011894063027     -1.46836516563839      0.92381490743878
  H   -2.52880907996664     -0.53099189087786      0.66063131611413
  H   -1.75063130934421     -1.34883112281278     -0.70721773939982
  N   -0.48634363126653      1.07357852086790      1.32569638797975
  O   0.44834628896228      0.57917177201832      1.95117274607603
  O   -1.24663347550373      1.93842562316795      1.72980654644691
  C   1.38980229187054     -1.08933893770524     -0.30038941369329
  H   1.72248110224834     -0.99029845217462      0.72944275995808
  H   2.26470010179218     -1.19555283469681     -0.94557927167827
  H   0.78758882019483     -1.99300843602986     -0.40622890522231
  C   1.44201175897707      1.33999577316801     -0.73420399701941
  N   2.14486929916677      2.28058955065668     -0.70916515010576
