17
Coordinates from ORCA-job run
  C   -0.64719608661595      0.28486577023801      0.12771120765942
  C   0.65835357557074     -0.37049870622653     -0.36685405200113
  Br  -1.03903547208975      1.89115968667139     -0.87162666291447
  H   0.77289754556944     -1.27647813870140      0.23970418347588
  C   -1.83994235915357     -0.65256195281972      0.07617465153579
  H   -1.61695083374516     -1.55770234325227      0.64359333884591
  H   -2.05449407271095     -0.91422893358106     -0.96032178655525
  H   -2.71939129682529     -0.16707718208063      0.50259046293614
  N   -0.39007314988514      0.62983504686238      1.60028670312594
  O   -0.12596033623737     -0.35219953604961      2.29112194487861
  O   -0.44323841364384      1.78750761291968      1.98453298483944
  C   1.90574417967277      0.49895301952921     -0.19157994746438
  H   2.05476776790081      0.74207863971677      0.86223530142398
  H   1.82326432686462      1.42286033332768     -0.76379391781254
  H   2.78273912812345     -0.04956898620595     -0.53920769612940
  C   0.49447546461138     -0.78690573255288     -1.75878820423634
  N   0.38404003259380     -1.12903859779505     -2.87677851160759
