17
Coordinates from ORCA-job run
  C   -0.77337969639996      0.36374282519038     -0.01937103942801
  C   0.54744829016416      0.10920208459803     -0.77429864508877
  Br  -1.77673286710617      1.79734188813382     -0.86261516832197
  H   0.25673052295334     -0.38066016053798     -1.71146861307533
  C   -1.65399781901344     -0.86600389333087      0.05362292282973
  H   -2.55811594793964     -0.64896959218722      0.62042614071788
  H   -1.13825231465689     -1.69198516533791      0.54148123800035
  H   -1.93652284411230     -1.15628990011915     -0.95958228384830
  N   -0.39814459610963      0.83419224233722      1.38334458870826
  O   -0.71409285493064      0.10275872917512      2.31794688332249
  O   0.25071753046528      1.86918282258992      1.46239025330399
  C   1.49764655239535     -0.81156590148904      0.00717546383096
  H   1.85891179822579     -0.31774456657164      0.91072723848516
  H   1.01322134187242     -1.74868016242272      0.28135509500241
  H   2.36271343572525     -1.04388424932358     -0.61571690566066
  C   1.26027273622137      1.33446597494462     -1.14371782682239
  N   1.90057673224571      2.25489702435100     -1.49269934195579
