17
Coordinates from ORCA-job run
  C   -0.55226212916324      0.41805918103802      0.19095172212767
  C   0.57373724360113     -0.42420538254764     -0.44243697878612
  Br  -0.33403970633459      2.29218234112485     -0.22399024450810
  H   0.34563772780960     -1.46090171793112     -0.16817506069282
  C   -1.94018412941473     -0.03842318821830     -0.21953234661704
  H   -2.07319940336104      0.11557425795183     -1.29077071760656
  H   -2.06034745880390     -1.09745197305899      0.01567021961749
  H   -2.69919440089191      0.53742584512506      0.31273287013500
  N   -0.41732993888621      0.19384601749620      1.70326210045951
  O   -0.54128367955367     -0.98386175700950      2.03304399520033
  O   -0.19660368532631      1.13244664375242      2.45227633589678
  C   1.97772377279149     -0.08004593224527      0.05964155336283
  H   2.04088025607317     -0.22211744982308      1.14020353423110
  H   2.70469745671029     -0.74386567989900     -0.41107183532479
  H   2.23913272151533      0.95012358683598     -0.18122100482468
  C   0.49176043966197     -0.32561111551450     -1.89898712308095
  N   0.44087491357262     -0.26217367707695     -3.07059701958966
