19

C	-0.451418	0.009835	-1.466117
C	0.0	0.0	0.0
F	0.300309	-0.975325	-2.117991
H	1.089397	0.0	0.0
C	-1.907675	-0.333029	-1.714843
H	-2.097788	-0.304907	-2.792128
H	-2.111642	-1.341923	-1.355882
H	-2.560425	0.378674	-1.212254
C	-0.01756	1.327667	-2.089265
H	1.023607	1.522487	-1.818732
H	-0.650262	2.154089	-1.76726
H	-0.085564	1.225484	-3.175006
N	-0.447642	-1.137452	0.781464
O	-0.679315	-0.978184	1.988385
O	-0.458281	-2.233947	0.20568
N	-0.416186	1.222548	0.73293
O	-1.506628	1.739542	0.457701
O	0.359683	1.654144	1.580383
H	2.474524	0.0	0.0
