19

C	-0.504457	-0.003306	-1.433085
C	0.0	0.0	0.0
F	-1.893237	-0.244652	-1.460969
H	1.088304	0.0	0.0
C	-0.236814	1.342866	-2.083692
H	-0.84388	2.119877	-1.626196
H	-0.489248	1.277986	-3.145111
H	0.824243	1.587356	-1.978628
C	0.166367	-1.107628	-2.227752
H	-0.121669	-1.002525	-3.277632
H	1.251201	-1.022793	-2.117814
H	-0.143673	-2.08659	-1.869734
N	-0.420426	-1.209362	0.742631
O	-1.234163	-1.099839	1.664272
O	0.112114	-2.264581	0.394386
N	-0.456473	1.145755	0.828853
O	0.227841	1.369124	1.826989
O	-1.455857	1.792044	0.50193
H	2.571936	0.0	0.0
