19

C	-0.375661	-0.053647	-1.471344
C	0.0	0.0	0.0
F	-1.771097	-0.019743	-1.648643
H	1.088304	0.0	0.0
C	0.210677	1.146622	-2.192362
H	0.107645	0.991177	-3.269763
H	-0.312553	2.060093	-1.916511
H	1.267002	1.244738	-1.927278
C	0.182959	-1.334723	-2.065141
H	-0.340775	-2.203978	-1.675526
H	1.247048	-1.393905	-1.809957
H	0.0711	-1.307652	-3.15229
N	-0.441696	-1.143108	0.826668
O	0.097507	-1.214392	1.932511
O	-1.262702	-1.955718	0.389428
N	-0.474641	1.216576	0.685918
O	-1.411593	1.129181	1.484747
O	0.118257	2.260388	0.406922
H	2.550775	0.0	0.0
