19

C	-0.49632	0.04782	-1.453942
C	0.0	0.0	0.0
F	-0.298834	-1.269097	-1.920582
H	1.104281	0.0	0.0
C	-1.97365	0.340537	-1.622396
H	-2.566958	-0.375254	-1.054
H	-2.199829	1.348832	-1.279491
H	-2.225988	0.254692	-2.683291
C	0.396211	0.939212	-2.291097
H	0.226985	1.985152	-2.042541
H	0.168435	0.767692	-3.347078
H	1.440012	0.692636	-2.085908
N	-0.473412	-1.250365	0.656426
O	0.331728	-2.165426	0.787406
O	-1.659948	-1.297315	0.993032
N	-0.36955	1.116162	0.824681
O	-0.536944	2.220165	0.269004
O	-0.287277	0.960989	2.05393
H	2.477359	0.0	0.0
