19

C	-0.483642	0.063433	-1.451158
C	0.0	0.0	0.0
F	0.013162	-1.086821	-2.07877
H	1.102954	0.0	0.0
C	-1.993107	0.058852	-1.613414
H	-2.434587	0.924475	-1.11314
H	-2.238169	0.107157	-2.67848
H	-2.41285	-0.851468	-1.189995
C	0.174955	1.236703	-2.156486
H	1.243063	1.237234	-1.928356
H	-0.255247	2.190641	-1.853311
H	0.02511	1.101029	-3.231172
N	-0.407655	-1.173815	0.770685
O	0.021035	-1.201731	1.929631
O	-1.01147	-2.106399	0.223496
N	-0.429701	1.198261	0.737424
O	0.234105	2.221955	0.547441
O	-1.421642	1.132017	1.474063
H	2.478493	0.0	0.0
