19

C	-0.372614	-0.093372	-1.472811
C	0.0	0.0	0.0
F	-1.748276	-0.333173	-1.644541
H	1.103946	0.0	0.0
C	-0.052815	1.249798	-2.109233
H	-0.208085	1.175144	-3.188129
H	0.989274	1.51258	-1.905221
H	-0.708091	2.030562	-1.718625
C	0.410585	-1.196758	-2.160051
H	0.34554	-1.066747	-3.244958
H	1.457499	-1.127382	-1.841617
H	0.014334	-2.16975	-1.884081
N	-0.430464	-1.09326	0.864456
O	-0.49496	-2.227632	0.382576
O	-0.562227	-0.838888	2.0661
N	-0.524165	1.263662	0.593429
O	0.282441	2.159673	0.829609
O	-1.743721	1.35193	0.745304
H	2.550205	0.0	0.0
