19

C	-0.486935	-0.006813	-1.451935
C	0.0	0.0	0.0
F	0.059908	-1.146433	-2.046241
H	1.097015	0.0	0.0
C	-1.993471	-0.086459	-1.609496
H	-2.477514	0.760344	-1.122385
H	-2.3652	-1.009195	-1.169542
H	-2.240338	-0.069268	-2.673936
C	0.115287	1.174811	-2.190267
H	-0.035246	1.007683	-3.260609
H	-0.35425	2.114048	-1.908384
H	1.182043	1.227266	-1.969009
N	-0.399923	-1.139641	0.826617
O	-0.039824	-1.076454	2.008419
O	-0.912395	-2.135207	0.297512
N	-0.441273	1.230503	0.677083
O	-1.473936	1.211979	1.357851
O	0.251309	2.234818	0.487671
H	2.486322	0.0	0.0
