19

C	-0.510286	0.08544	-1.445836
C	0.0	0.0	0.0
F	-0.138729	-1.135321	-2.036419
H	1.10447	0.0	0.0
C	-2.018396	0.168466	-1.585145
H	-2.489821	-0.646197	-1.033352
H	-2.3877	1.118758	-1.205355
H	-2.274182	0.067786	-2.644287
C	0.24994	1.166141	-2.190593
H	1.318303	1.029133	-2.004919
H	0.045716	1.065628	-3.259941
H	-0.050521	2.156138	-1.851709
N	-0.439344	-1.258739	0.645161
O	0.226402	-2.261568	0.39774
O	-1.451784	-1.238247	1.353709
N	-0.368169	1.107765	0.855968
O	0.040272	1.030971	2.023841
O	-0.901224	2.123593	0.368955
H	2.472049	0.0	0.0
