12

C	-0.482904	0.059905	-1.448939
C	0.0	0.0	0.0
Br	-0.045757	-1.590493	-2.401745
H	1.092079	0.0	0.0
H	0.033901	0.871231	-1.963815
H	-0.363404	-0.922883	0.468181
C	-1.92542	0.259462	-1.52863
N	-3.088241	0.424407	-1.548277
N	-0.45024	1.229624	0.646788
H	-1.289396	1.075614	1.188408
H	0.2815	1.567558	1.258705
Br	3.607423	0.0	0.0
