12

C	-0.435967	0.032168	-1.478718
C	0.0	0.0	0.0
Br	0.050769	-1.61959	-2.403263
H	1.092766	0.0	0.0
H	0.100015	0.829251	-1.998489
H	-0.369801	-0.921071	0.457104
C	-1.874442	0.228793	-1.616291
N	-3.039336	0.377487	-1.666002
N	-0.459563	1.151769	0.753316
H	0.072987	1.973886	0.501056
H	-1.448385	1.331197	0.625627
Br	3.629044	0.0	0.0
