12

C	-0.531036	-0.023822	-1.440681
C	0.0	0.0	0.0
Br	0.035185	1.554046	-2.450328
H	1.092313	0.0	0.0
H	-1.62447	0.028776	-1.436093
H	-0.349441	0.92826	0.462458
C	-0.148506	-1.233807	-2.160831
N	0.136949	-2.22915	-2.715789
N	-0.451184	-1.15233	0.765111
H	0.150472	-1.942372	0.573537
H	-1.408277	-1.409058	0.556062
Br	3.611787	0.0	0.0
