16

C	-0.548069	0.00467	-1.422273
C	0.0	0.0	0.0
Br	-0.072025	1.69691	-2.284132
H	1.094422	0.0	0.0
H	-1.64259	0.00222	-1.40583
C	0.016607	-1.145121	-2.239736
H	-0.374623	-2.097605	-1.874103
H	-0.259668	-1.043381	-3.290624
H	1.104019	-1.154803	-2.139434
N	-0.470176	-1.351749	0.553895
O	0.321418	-2.283528	0.63824
O	-1.666073	-1.42443	0.87688
N	-0.491765	1.064743	0.8045
H	0.117051	1.175491	1.606106
H	-1.443656	0.890781	1.101504
H	2.849444	0.0	0.0
