16

C	-0.457605	-0.197331	-1.443543
C	0.0	0.0	0.0
Br	-0.040885	-2.01828	-2.057411
H	1.093601	0.0	0.0
H	0.213408	0.438248	-2.030409
C	-1.913696	0.086335	-1.773466
H	-2.575115	-0.574042	-1.21547
H	-2.165679	1.121488	-1.526201
H	-2.089025	-0.050438	-2.84256
N	-0.599505	-1.056813	0.877547
O	-1.809379	-0.952633	1.115437
O	0.118581	-1.95312	1.30941
N	-0.338367	1.279024	0.555943
H	0.475332	1.878178	0.477045
H	-1.16544	1.711706	0.175994
H	2.76619	0.0	0.0
