15

C	0.0	0.0	0.0
C	-0.534611	-0.109598	-1.417742
Cl	1.776712	0.0	0.0
H	-0.100714	0.660509	-2.045696
H	-1.629096	-0.052467	-1.366246
N	-0.319518	1.475729	0.475659
O	-0.443562	1.619257	1.683939
O	-0.362249	2.360773	-0.368609
N	-0.523904	-0.963796	0.849293
H	-0.293902	-0.750985	1.81227
H	-1.545117	-0.979399	0.730668
N	-0.160193	-1.420177	-2.011993
O	-0.844024	-2.397122	-1.7207
O	0.806938	-1.431424	-2.778415
Br	-3.703348	0.0	0.0
