15

C	0.0	0.0	0.0
C	-0.533247	-0.013121	-1.423269
Cl	1.766588	0.0	0.0
H	-0.148794	0.835161	-1.977664
H	-1.628822	-0.022285	-1.370205
N	-0.325049	1.439955	0.576385
O	-0.373751	2.383714	-0.201245
O	-0.445964	1.498265	1.792056
N	-0.523588	-1.01824	0.785825
H	-0.287039	-0.866194	1.758612
H	-1.544968	-1.022677	0.675087
N	-0.083331	-1.237038	-2.137194
O	0.843495	-1.106117	-2.941101
O	-0.671308	-2.288019	-1.902601
Br	-3.71056	0.0	0.0
