15

C	0.0	0.0	0.0
C	-0.492881	-0.057483	-1.448902
Cl	1.763478	0.0	0.0
H	-1.588869	-0.127915	-1.419383
H	-0.155865	0.793591	-2.030166
N	-0.398616	1.396553	0.541651
O	-0.316397	1.552658	1.752743
O	-0.690644	2.25618	-0.286217
N	-0.499048	-0.949936	0.919839
H	-1.520833	-0.808545	0.971217
H	-0.340708	-1.875285	0.5219
N	0.049585	-1.260439	-2.134611
O	-0.108277	-2.361151	-1.603393
O	0.617389	-1.081839	-3.212697
Br	-3.674925	0.0	0.0
