15

C	0.0	0.0	0.0
C	-0.497071	-0.005572	-1.447816
Cl	1.768243	0.0	0.0
H	-1.5932	-0.076561	-1.408032
H	-0.16525	0.869022	-1.994221
N	-0.381516	1.394969	0.577274
O	-0.604092	1.461254	1.773152
O	-0.356149	2.333883	-0.210949
N	-0.497475	-0.975548	0.887601
H	-1.512912	-0.832179	0.937752
H	-0.33136	-1.884266	0.470995
N	0.024636	-1.181551	-2.189165
O	0.534702	-0.968031	-3.288544
O	-0.101511	-2.298767	-1.685667
Br	-3.658605	0.0	0.0
