16

C	0.0	0.0	0.0
C	-0.381207	-0.010139	-1.526398
F	1.405822	0.0	0.0
H	-1.477057	0.081329	-1.554695
C	-0.408714	1.259273	0.646533
N	-0.701452	2.285145	1.148504
N	-0.396112	-1.177591	0.761381
H	-0.182477	-1.104054	1.73166
H	-0.158069	-2.031729	0.307861
C	-0.060987	-1.303165	-2.081043
N	0.17933	-2.37199	-2.508887
C	0.211747	1.144117	-2.301415
H	-0.174662	1.116071	-3.322828
H	-0.104943	2.088966	-1.846105
H	1.294958	1.085834	-2.303981
F	-1.876467	0.0	0.0
