16

C	0.0	0.0	0.0
C	-0.21832	-0.049835	-1.558611
F	1.376914	0.0	0.0
H	0.362545	-0.948209	-1.802172
C	-0.386312	1.313619	0.586175
N	-0.576448	2.347701	1.109924
N	-0.595994	-1.119625	0.612401
H	-1.64064	-0.859949	0.455445
H	-0.423388	-1.060543	1.612528
C	0.505141	1.082868	-2.154821
N	1.042351	1.992747	-2.667362
C	-1.584301	-0.170241	-2.226369
H	-2.210167	0.687799	-2.003713
H	-1.412775	-0.266617	-3.306116
H	-2.117608	-1.032527	-1.842587
F	-2.791011	0.0	0.0
