16

C	0.0	0.0	0.0
C	-0.41652	-0.000151	-1.505704
F	1.382186	0.0	0.0
H	0.539309	0.130888	-2.029074
C	-0.345266	1.292312	0.666014
N	-0.447667	2.265679	1.31727
N	-0.496205	-1.132584	0.694321
H	-1.53538	-0.936473	0.600677
H	-0.234342	-1.03434	1.671267
C	-1.239525	1.144539	-1.90314
N	-1.781856	2.067445	-2.386891
C	-1.064023	-1.300955	-1.983587
H	-0.44099	-2.15425	-1.715167
H	-2.03381	-1.369896	-1.495382
H	-1.182713	-1.265167	-3.070945
F	-2.639387	0.0	0.0
