18
Coordinates from ORCA-job run
  C   0.62872255852112      0.13275602685051      0.49247050572586
  C   -0.71987417644542     -0.44976292061388      0.03277709642807
  Cl  0.54030822068799      0.00563953932152      2.35669172819643
  H   -0.83776249503979     -1.42712582197208      0.49983310608809
  N   0.79541534278674      1.45985109652206      0.04967389488299
  H   1.71201530318475      1.81934854507523      0.28211025003003
  H   0.08789117243502      2.08899998365717      0.40364493641012
  C   1.81709675384979     -0.71663499571215      0.08121342668017
  H   2.71533481955891     -0.35174914384143      0.58340123090282
  H   1.66740145198288     -1.75976769305989      0.35614921622517
  H   1.96254928687829     -0.64737827330526     -0.99782211332131
  N   -0.61508220165750     -0.75796999926129     -1.43906015319563
  O   -0.86904937684526      0.13757406766862     -2.23899500564344
  O   -0.26091654986565     -1.90046791455654     -1.73268477649179
  C   -1.92560457763828      0.43414564254448      0.27537236562774
  H   -2.00237450408135      0.67709712873604      1.33535686949387
  H   -1.86272550263907      1.34642854252345     -0.31619877298775
  H   -2.83434552567318     -0.09198381057658     -0.02293380505144
