18
Coordinates from ORCA-job run
  C   0.55798621677586      0.12823210000751      0.62373151712848
  C   -0.74336484844667     -0.44218648460084      0.02723872901391
  Cl  0.37696669699227     -0.04832928590509      2.41634236945158
  H   -0.90192162873405     -1.43584230408324      0.44605341499566
  N   0.66484358429358      1.53660509600467      0.34491363458176
  H   0.62998733364402      1.67870790443109     -0.65915867161267
  H   1.54391447371111      1.89380418474482      0.70087756712410
  C   1.76691031542373     -0.71009975806248      0.22258322654991
  H   1.96080416218270     -0.59021998020871     -0.84657807349653
  H   1.61620145550891     -1.76950244775963      0.44078314551748
  H   2.64640952649029     -0.36614426900865      0.77022864574584
  N   -0.51386908888400     -0.69356762283599     -1.43598165961733
  O   -0.31887897470297      0.28946437410229     -2.15333022744701
  O   -0.51913680417641     -1.86017958116007     -1.82083936365414
  C   -1.96589634878139      0.43772570109562      0.19414893060770
  H   -2.13168076462142      0.62481988748201      1.25474427744893
  H   -2.84347943409376     -0.06706326849936     -0.21627600163002
  H   -1.82779587258178      1.39277575425606     -0.30748146070763
