18
Coordinates from ORCA-job run
  C   0.73597565846914     -0.09461977420413      0.41123873151533
  C   -0.73777294049483     -0.03334517755523     -0.08215889193975
  Cl  1.42900763157912     -1.66753111489294     -0.13743871316072
  H   -1.18731487597353      0.82376830996896      0.42881311226741
  N   0.91012552801080     -0.02612213019758      1.83699976653484
  H   0.27374053470983     -0.65311972228806      2.31440446153016
  H   0.72744617673356      0.91852305847454      2.15675406681668
  C   1.54344644182054      1.02575338523459     -0.22406896917859
  H   2.54433463266644      1.00524019763405      0.20750364518590
  H   1.62281904585709      0.90758699508233     -1.30288187784920
  H   1.08120402956459      1.99440441387339     -0.00476440084221
  N   -1.49410877320061     -1.21245240331971      0.46496335231945
  O   -1.79221060722678     -2.12203430397576     -0.30194685276707
  O   -1.74578272650549     -1.19061086159089      1.67216937339786
  C   -0.93473969459461      0.05999272334925     -1.58021976529266
  H   -1.99474517603488     -0.01741453407511     -1.82491739904264
  H   -0.57420402667288      1.02410730658648     -1.93991175749563
  H   -0.40822085870749     -0.74112636810420     -2.09653788199915
