18
Coordinates from ORCA-job run
  C   0.72679307995947     -0.01118970076213      0.33791534184913
  C   -0.73632886499404      0.01398492899230     -0.12510414193255
  Cl  1.65512860575617     -1.31271666860122     -0.58121779723127
  H   -1.14403316136238      0.96402252031939      0.22737341969331
  N   0.78454440888206     -0.18710008308468      1.74776119893335
  H   0.50358058231829     -1.12376675561756      2.01011289915461
  H   1.72347444051391     -0.02080438853915      2.08762092675168
  C   1.39071510783462      1.30835733059755     -0.02955302215556
  H   1.34944497478340      1.49562345789700     -1.10148049546939
  H   2.44276593385380      1.27788060066240      0.26078081764267
  H   0.89946628253842      2.12246029075334      0.50818487338071
  N   -1.58478971741034     -1.00643427606195      0.58050724381022
  O   -1.08951305104378     -2.09911892633731      0.85044126705931
  O   -2.75208516802984     -0.68433084098026      0.78385260479137
  C   -0.99186512987780     -0.15583339824810     -1.61367103391849
  H   -0.37962977389264      0.53736246156353     -2.19066103074078
  H   -0.75405165106528     -1.17097566112179     -1.92973867085942
  H   -2.04261689876405      0.05157910856862     -1.82312440075891
