17

C	-0.038701	-0.093047	-1.534104
C	0.0	0.0	0.0
Cl	-1.691689	-0.399546	-2.22603
H	1.096602	0.0	0.0
N	0.419642	1.176153	-2.056084
H	1.324349	1.322688	-1.602211
H	0.579687	1.076413	-3.054341
N	0.778199	-1.256354	-1.822069
H	1.677642	-1.04542	-1.356618
H	0.929512	-1.306859	-2.824659
N	-0.553851	-1.087755	0.739254
H	-1.398618	-1.427378	0.293096
H	0.134311	-1.826509	0.742124
N	-0.602618	1.277985	0.460277
O	-1.817243	1.272434	0.671066
O	0.126652	2.257486	0.603272
F	2.660679	0.0	0.0
