17

C	-0.190674	-0.164018	-1.520968
C	0.0	0.0	0.0
Cl	0.0368	1.65425	-2.285911
H	1.089418	0.0	0.0
N	0.875645	-0.960044	-1.943501
H	1.738402	-0.673562	-1.433296
H	1.003901	-0.94783	-2.946744
N	-1.471659	-0.612735	-1.924526
H	-1.51408	-0.726855	-2.930991
H	-2.157643	0.074814	-1.632959
N	-0.500224	-1.117083	0.755934
H	-1.251197	-1.571479	0.248764
H	0.26982	-1.766851	0.857861
N	-0.668151	1.22517	0.511763
O	-1.889467	1.300672	0.322987
O	-0.011216	2.054546	1.129249
F	2.652419	0.0	0.0
