17

C	-0.022575	-0.036868	-1.540355
C	0.0	0.0	0.0
Cl	-1.668359	-0.287635	-2.265066
H	1.093569	0.0	0.0
N	0.476806	1.235615	-2.015101
H	0.661126	1.158049	-3.009011
H	1.374882	1.347941	-1.537252
N	0.780785	-1.208141	-1.850021
H	0.938592	-1.235415	-2.851785
H	1.681024	-1.01693	-1.375812
N	-0.576296	-1.109165	0.692544
H	0.039797	-1.89645	0.542822
H	-1.481365	-1.331688	0.29342
N	-0.59315	1.261234	0.502595
O	-1.804692	1.247753	0.736466
O	0.136094	2.238912	0.655876
F	2.662457	0.0	0.0
