17

C	-0.230255	0.104831	-1.512609
C	0.0	0.0	0.0
Cl	-1.970988	0.942288	-1.817008
H	1.091226	0.0	0.0
N	0.758903	0.935587	-2.084315
H	0.914896	0.668862	-3.049027
H	1.618475	0.781483	-1.532788
N	-0.302217	-1.202185	-2.053363
H	-0.896289	-1.775728	-1.469034
H	-0.63827	-1.175546	-3.007227
N	-0.605378	-1.153315	0.584767
H	0.033224	-1.527053	1.274509
H	-1.458747	-0.877317	1.056392
N	-0.407377	1.267834	0.694398
O	-1.231147	1.187451	1.61361
O	0.123818	2.310444	0.337885
F	2.598426	0.0	0.0
