17

C	-0.325935	-0.053348	-1.510121
C	0.0	0.0	0.0
Cl	-0.12947	1.551225	-2.304631
H	1.090054	0.0	0.0
N	0.668697	-0.92059	-2.119906
H	1.577519	-0.623374	-1.737024
H	0.50008	-1.834639	-1.703934
N	-1.680253	-0.48146	-1.736645
H	-1.75818	-0.71228	-2.720693
H	-1.799747	-1.33353	-1.19879
N	-0.427314	-1.25404	0.586979
H	-1.257756	-1.095721	1.147376
H	0.322294	-1.566776	1.193271
N	-0.591451	1.165274	0.726572
O	-0.075158	2.266246	0.572921
O	-1.572248	0.962307	1.457252
F	2.608808	0.0	0.0
