17

C	-0.286733	0.029233	-1.518616
C	0.0	0.0	0.0
Cl	0.095295	-1.702319	-2.106781
H	1.089385	0.0	0.0
N	-1.637785	0.255541	-1.9771
H	-1.939973	1.146174	-1.596505
H	-2.225244	-0.470683	-1.582403
N	0.599061	0.980645	-2.05216
H	0.625537	0.922258	-3.061042
H	1.524072	0.828872	-1.630257
N	-0.657006	-1.045023	0.713391
H	-1.518517	-0.703574	1.118569
H	-0.041332	-1.376742	1.443507
N	-0.434043	1.356265	0.520194
O	-1.622809	1.475059	0.867095
O	0.379395	2.270855	0.568877
F	2.616023	0.0	0.0
