17

C	-0.230297	0.132675	-1.510426
C	0.0	0.0	0.0
Cl	-1.974448	0.944819	-1.804842
H	1.091281	0.0	0.0
N	0.746441	0.995084	-2.062466
H	1.607694	0.829195	-1.518009
H	0.902914	0.748463	-3.031631
N	-0.273213	-1.167873	-2.076865
H	-0.621973	-1.129824	-3.026269
H	-0.847039	-1.769936	-1.495968
N	-0.600936	-1.167656	0.560213
H	-1.461391	-0.906579	1.02763
H	0.034215	-1.547255	1.251235
N	-0.416866	1.252034	0.717726
O	0.110847	2.304521	0.386394
O	-1.250089	1.14909	1.625972
F	2.598367	0.0	0.0
