17

C	0.0	0.0	0.0
C	-0.650823	0.106218	-1.369176
Br	1.904887	0.0	0.0
H	-1.737191	0.265608	-1.020622
N	-0.405211	1.172767	0.900922
O	-0.095979	1.065256	2.082682
O	-0.922669	2.146669	0.382277
N	-0.394879	-1.319414	0.738235
O	0.208871	-2.313972	0.354149
O	-1.236873	-1.283884	1.61592
N	-0.598238	-1.174157	-2.030044
H	0.324067	-1.376118	-2.402227
H	-1.28077	-1.186791	-2.774526
N	-0.033889	1.228573	-2.07817
H	-0.756657	1.82681	-2.45392
H	0.528579	0.872168	-2.841973
F	-2.810737	0.0	0.0
