17
Coordinates from ORCA-job run
  C   -0.74255329723899     -0.28287844869452     -0.08211548708291
  C   0.78477755574274     -0.44582617497798     -0.15265534187498
  Cl  -1.49745006962783     -1.85987661140874      0.28832380784277
  H   0.97772090173623     -1.21284524620689     -0.91056676446986
  N   -1.18981466084438      0.07346044908194     -1.49744497109410
  O   -1.92065896657017      1.04681323826459     -1.63340673351561
  O   -0.77881011905217     -0.64788048250457     -2.39831432465985
  C   -1.20710009958085      0.75848022034180      0.89966556362979
  H   -0.84333777366086      0.49003135028283      1.89029511990973
  H   -2.29388937067702      0.82030249788023      0.90596231198821
  H   -0.80663730304362      1.73031827501467      0.61206374524411
  N   1.29101737764003     -0.77612302404562      1.17402903077870
  H   2.29435932155126     -0.90502845022147      1.10870685441410
  H   0.89361994084144     -1.65110427958305      1.49781413740037
  N   1.32416935748935      0.80927403966903     -0.62776285731630
  H   2.11974519946707      0.66747221635264     -1.23344037335138
  H   1.59684200582777      1.38441043075510      0.15984628215720
