17
Coordinates from ORCA-job run
  C   -0.75389477180167     -0.31467531796831     -0.11335692922672
  C   0.77408311807282     -0.51749180735889     -0.09573859936404
  Cl  -1.55825692466167     -1.89117566935213      0.04193857610545
  H   0.99227069505930     -1.36744130013010     -0.75052043204060
  N   -1.13275416759572      0.19280592396870     -1.50336868662391
  O   -0.50752902357810     -0.28461627823710     -2.44838705326976
  O   -2.04008625058782      1.01081724400294     -1.59276939560368
  C   -1.25604057683347      0.63688553918027      0.93906787151143
  H   -1.03923282022273      0.20844772143527      1.91704878734117
  H   -2.33027559926818      0.77875776474014      0.84453537191111
  H   -0.75140694300736      1.59712106576631      0.82550827459542
  N   1.16578023133554     -0.87019524261400      1.24647751783172
  H   1.30572209338472     -0.03294903787264      1.79943007650083
  H   2.01951261365624     -1.41060587666293      1.24405632252273
  N   1.39085886784405      0.73415912890320     -0.53828680578285
  H   2.36685342653255      0.72372103919960     -0.26782974819525
  H   1.35539603167153      0.80543510299968     -1.54880514821303
