17
Coordinates from ORCA-job run
  C   -0.68023908084349     -0.14540190261653      0.13106195489872
  C   0.81124114424308      0.06623712372063     -0.16163918584605
  Cl  -0.87575536259399     -1.43639085095922      1.33376525318964
  H   0.84622769744253      0.86654050749177     -0.90551502606971
  N   -1.30687882108136     -0.58708446091751     -1.19258241413949
  O   -1.22079793469962      0.26040523364208     -2.07641857908322
  O   -1.83405939973649     -1.68208577504583     -1.29091506141222
  C   -1.39615394070751      1.10184746055831      0.59892298000052
  H   -2.45904022926913      0.89475407302607      0.73728794932937
  H   -0.95843280082622      1.42833630673495      1.53961119537524
  H   -1.27558849987839      1.88788427843063     -0.14703811925460
  N   1.32515754938948     -1.12837808371159     -0.80319169908811
  H   1.39697226492420     -1.89292098352367     -0.14230486740162
  H   2.24074152978478     -0.95382493456939     -1.19674311176074
  N   1.45084859674197      0.56944906110797      1.04311171109011
  H   1.56720266966598     -0.18019916949049      1.71544996754626
  H   2.36855461744419      0.93183211612181      0.81613705262591
