17
Coordinates from ORCA-job run
  C   -0.75568065174250     -0.13776156529331      0.20860994762606
  C   0.76909830666661     -0.30183029287593      0.38661168709260
  Cl  -1.56444340417760     -1.47282893884296      1.05746758372316
  H   0.91076062868368     -0.43229325781647      1.46948299935677
  N   -1.04548955497116     -0.25537168688530     -1.28810855205384
  O   -0.62785964107704      0.69538223121754     -1.94489821951542
  O   -1.61689929210649     -1.23764205792136     -1.73075552224515
  C   -1.29411350205623      1.18209575134529      0.71004162137541
  H   -1.06023517789152      1.27945868644633      1.77111443504757
  H   -2.37779319879676      1.21424631300572      0.58304503404872
  H   -0.82190950165851      1.99790835227786      0.17003502992068
  N   1.45973623437427      0.91072397695034      0.02197482944375
  H   1.49549367260801      0.98743396107476     -0.98793617264022
  H   2.40413647150510      0.89236946050940      0.38534573921419
  N   1.19578708373451     -1.44718857533704     -0.40891618729506
  H   0.73454548916526     -2.29820172366632     -0.10616947455123
  H   2.19386603774036     -1.57650063418857     -0.29694477854797
