17
Coordinates from ORCA-job run
  C   -0.77855529735181     -0.31717502322249     -0.05062060410783
  C   0.73947046951362     -0.55893786617468     -0.11353962869635
  Cl  -1.61848422729661     -1.80833497078568      0.41818501793054
  H   0.87695298551309     -1.43521300326834     -0.74882028255273
  N   -1.20813438345094     -0.02054037568448     -1.48530831287608
  O   -1.84349914909359      1.00695682181012     -1.68910404140911
  O   -0.87464177159616     -0.84037103869460     -2.33055496631395
  C   -1.18233367639607      0.80924956186433      0.86609680552555
  H   -2.25953878275320      0.96130471906234      0.83092968724265
  H   -0.90115008109852      0.54482713640242      1.88599249732984
  H   -0.70104942754402      1.73957418531887      0.56139336217113
  N   1.22619999594981     -0.88156759961455      1.21314502633034
  H   1.38887311421054     -0.03911278626815      1.75156184264464
  H   2.10036516434106     -1.38676754007623      1.15348871896126
  N   1.31831744513898      0.58590607694520     -0.80740380453791
  H   2.16009380207429      0.31763261489662     -1.29969024324607
  H   1.55711381983952      1.32256908748928     -0.15475107439592
