16

C	-0.383756	0.018246	-1.470324
C	0.0	0.0	0.0
Br	0.503783	-1.403943	-2.451897
H	1.096016	0.0	0.0
N	-1.908313	-0.17452	-1.614787
O	-2.5729	0.858801	-1.635022
O	-2.347096	-1.316011	-1.575996
C	-0.036738	1.278088	-2.116838
N	0.23192	2.293992	-2.643348
C	-0.416769	-1.255038	0.761909
H	-0.044709	-2.139741	0.243511
H	0.073235	-1.213363	1.736631
H	-1.497956	-1.348793	0.905354
C	-0.49774	1.19699	0.649912
N	-0.886589	2.14392	1.231269
F	2.479019	0.0	0.0
