16

C	-0.446928	0.028711	-1.457997
C	0.0	0.0	0.0
Br	0.414521	1.475901	-2.423623
H	1.094865	0.0	0.0
N	-0.021595	-1.308697	-2.085801
O	1.151337	-1.450009	-2.378487
O	-0.908258	-2.158671	-2.159131
C	-1.889832	0.167714	-1.636265
N	-3.055738	0.306894	-1.709185
C	-0.437627	-1.273054	0.725425
H	0.105747	-2.126604	0.317506
H	-0.138935	-1.175232	1.770595
H	-1.514431	-1.463991	0.676228
C	-0.501946	1.186797	0.660863
N	-0.910389	2.138661	1.219611
F	2.491325	0.0	0.0
