16

C	-0.309588	-0.097319	-1.464658
C	0.0	0.0	0.0
Br	-2.255715	-0.11482	-1.907328
H	1.096652	0.0	0.0
N	0.276017	1.115521	-2.208423
O	1.184458	0.893226	-2.997286
O	-0.203848	2.202692	-1.92608
C	0.247193	-1.309191	-2.0529
N	0.667724	-2.315302	-2.492168
C	-0.361343	-1.271013	0.767836
H	-1.431288	-1.499572	0.743625
H	-0.046168	-1.136739	1.80414
H	0.208794	-2.107983	0.362169
C	-0.563821	1.167977	0.636626
N	-0.998892	2.067301	1.258708
F	2.46022	0.0	0.0
