16

C	-0.388907	0.003061	-1.46871
C	0.0	0.0	0.0
Br	0.514976	-1.416062	-2.439562
H	1.095921	0.0	0.0
N	-1.914421	-0.203493	-1.597462
O	-2.345269	-1.349002	-1.613197
O	-2.584708	0.825408	-1.54873
C	-0.062136	1.260463	-2.129547
N	0.203542	2.274438	-2.662009
C	-0.452274	-1.236763	0.771268
H	-0.122532	-2.137777	0.253281
H	0.044721	-1.210405	1.742611
H	-1.535128	-1.286702	0.924105
C	-0.474587	1.21326	0.63845
N	-0.840477	2.170559	1.217372
F	2.477342	0.0	0.0
