16

C	-0.456533	0.013452	-1.456384
C	0.0	0.0	0.0
Br	0.356486	1.482176	-2.428326
H	1.094855	0.0	0.0
N	-0.005564	-1.315254	-2.089198
O	-0.859211	-2.200776	-2.10067
O	1.152172	-1.411489	-2.452594
C	-1.90377	0.112105	-1.623415
N	-3.073253	0.21438	-1.700848
C	-0.423642	-1.270126	0.740857
H	-0.142681	-1.147999	1.788437
H	0.144268	-2.117708	0.354743
H	-1.495272	-1.485054	0.68005
C	-0.509778	1.186365	0.657128
N	-0.925853	2.128702	1.226533
F	2.491718	0.0	0.0
