16

C	-0.458834	0.028072	-1.455017
C	0.0	0.0	0.0
Br	0.376699	1.487889	-2.42233
H	1.09483	0.0	0.0
N	-0.027369	-1.303093	-2.094092
O	1.140995	-1.426585	-2.413879
O	-0.90447	-2.163794	-2.153436
C	-1.904582	0.150581	-1.618439
N	-3.072418	0.27384	-1.689806
C	-0.431325	-1.275693	0.726184
H	-0.13624	-1.174032	1.772131
H	-1.506871	-1.475065	0.674696
H	0.120303	-2.125486	0.320381
C	-0.504122	1.182547	0.668393
N	-0.917065	2.121978	1.24478
F	2.491453	0.0	0.0
