16

C	-0.392747	0.024253	-1.468125
C	0.0	0.0	0.0
Br	0.518987	-1.367625	-2.471516
H	1.095868	0.0	0.0
N	-1.912896	-0.196236	-1.603339
O	-2.329453	-1.347261	-1.580014
O	-2.596763	0.82648	-1.601651
C	-0.074443	1.296032	-2.106033
N	0.189161	2.319811	-2.619962
C	-0.403159	-1.266015	0.752533
H	-0.018518	-2.140583	0.227004
H	-1.482029	-1.376897	0.896404
H	0.087067	-1.224636	1.726769
C	-0.502406	1.186302	0.663997
N	-0.894222	2.123579	1.258575
F	2.475528	0.0	0.0
