18
Coordinates from ORCA-job run
  C   0.78100542902324      0.05054905675224     -0.04177676117824
  C   -0.75540535978659     -0.01767468325670     -0.07307245540477
  Br  1.38579692152733      1.92162241083009      0.03928112467056
  H   -0.95855936291974     -1.07905802982907     -0.31307080705662
  C   1.34132952873161     -0.64239943895306      1.19371543939129
  H   2.43293946295245     -0.63513660730732      1.16971300939538
  H   1.00407402383817     -1.68700118854822      1.19880652939282
  H   1.00820014329502     -0.15193860145185      2.10815760730626
  N   1.27927330213722     -0.48259507310917     -1.30087994839751
  H   1.07056889631561     -1.47693744970894     -1.33369816170718
  H   2.28700458434481     -0.37751224964939     -1.34239106610695
  C   -1.37384339500697      0.83270407814208     -1.17033855657952
  H   -0.82221694126571      0.71625387696836     -2.10189756262044
  H   -1.35544952449577      1.88405476007265     -0.87777499223181
  H   -2.41397798172624      0.53388600215130     -1.33107805078143
  N   -1.31050360167044      0.35818331124218      1.22328344844007
  H   -2.26033132593614      0.68726872657190      1.10533465519989
  H   -1.33990479935788     -0.43626890091707      1.84968654826818
