18
Coordinates from ORCA-job run
  C   0.74271967965980      0.08996952197636      0.41756744684520
  C   -0.78688819775542      0.23642060243432      0.45672189802677
  Br  1.47482599158754      0.88517849929822      2.06345220979623
  H   -1.13370398001143     -0.26662618971127      1.36751732108626
  C   1.19616530858848     -1.36451940957716      0.40090757795655
  H   0.74700377776780     -1.93094004715354      1.22000847241684
  H   2.28181261139905     -1.41821463970780      0.49764290195443
  H   0.91463282749668     -1.83376191625000     -0.54617920107163
  N   1.26623046002518      0.87874566937359     -0.69809835728305
  H   2.23502291331680      1.11978110727395     -0.52761957324011
  H   1.23818940462768      0.31052880416462     -1.53932529578776
  C   -1.43499529250374     -0.44836861117861     -0.75513691530154
  H   -2.51733251997942     -0.30172443172580     -0.70503332846447
  H   -1.08967539860670      0.00673612746334     -1.68776476347693
  H   -1.25746696511350     -1.52585468094296     -0.79150312909626
  N   -1.12361996664506      1.64717315390964      0.56386824010133
  H   -2.11987197025764      1.77459144642547      0.43432859784919
  H   -0.63304868359613      2.14188499392762     -0.17335410231106
