18
Coordinates from ORCA-job run
  C   0.77020170588336     -0.07596065104203      0.04904572805876
  C   -0.76285732150312     -0.11422085320965     -0.00574303147548
  Br  1.29933993183820      1.85849042174130      0.55539480013433
  H   -0.97865050462655     -1.18152352292726     -0.14929798533400
  C   1.32963167622794     -0.94231810707688      1.15862843726227
  H   1.08478532824611     -1.98486831716975      0.93287117649447
  H   2.41548510169906     -0.83983467253328      1.21739768639542
  H   0.88599131856900     -0.66717964049516      2.11149045319654
  N   1.32884389396399     -0.43714424249300     -1.19644765264279
  H   1.09171783078320      0.21379649248105     -1.93291367419854
  H   2.33662737948935     -0.51330054615180     -1.14051856863024
  C   -1.35743039165875      0.65095495283919     -1.18782402615210
  H   -1.07454884856123      1.70576111729646     -1.14819121171956
  H   -1.05212151051417      0.23184597277683     -2.14994852621140
  H   -2.44772682227992      0.59046940526332     -1.14224330041746
  N   -1.31610310424676      0.25356134267540      1.29254739835196
  H   -1.25947028752317      1.25889628022424      1.41291518826353
  H   -2.29471537578653     -0.00642543219901      1.32283710862429
