18
Coordinates from ORCA-job run
  C   0.75324184555522      0.02356227515011      0.31131407965768
  C   -0.76687266478248      0.22807714760014      0.27280068343890
  Br  1.32960037766345      0.93278359562589      2.12660952210755
  H   -1.16462847299568     -0.16193819925777      1.21997194522101
  C   1.19667934981689     -1.41260125375848      0.48892113982343
  H   2.26970063629532     -1.46011191965291      0.68291159380495
  H   0.98648464282691     -1.96746856072494     -0.42834131742538
  H   0.67983981630270     -1.87818835012682      1.32911332538357
  N   1.34987023690246      0.63797241339446     -0.78536801235530
  H   2.35966321444467      0.62357229082942     -0.76866537016969
  H   0.97557741336860      1.56844882496672     -0.92992337639895
  C   -1.39409971423394     -0.54167427771581     -0.88549984189682
  H   -0.97009443797708     -0.20976175150093     -1.83369888426189
  H   -1.24394427113184     -1.61693807948516     -0.78330029186491
  H   -2.47372243135998     -0.36407708868555     -0.90017961290710
  N   -1.03098150909733      1.65411206697838      0.08691392637230
  H   -2.00314484457145      1.79429843668562     -0.15883651561016
  H   -0.85116918702646      2.14693242967763      0.95425700708082
