18
Coordinates from ORCA-job run
  C   0.67438079404504      0.00529934375941      0.57792347338218
  C   -0.76326757557638      0.42111637147448      0.21540868519466
  Br  0.66350041290266     -0.66624519883033      2.43224540347188
  H   -1.12092401505290      1.02802882042794      1.05674304618848
  C   1.23097732997942     -1.09549531263487     -0.31241774643479
  H   2.27877632537732     -1.27906171508854     -0.06524371841921
  H   0.68652717688127     -2.03461462867519     -0.20647014803195
  H   1.16322219567384     -0.75585385343570     -1.35004744972870
  N   1.47926806626764      1.21854271802236      0.59034053444581
  H   1.61747508501372      1.48426870753828     -0.38097605460093
  H   2.39056665860300      1.01879456039049      0.98835677340590
  C   -1.70515189006130     -0.75126946130103     -0.00179803846386
  H   -1.67599777671009     -1.45008612981253      0.83476277282838
  H   -1.44713913622428     -1.28693364405003     -0.91863582984752
  H   -2.73154173017058     -0.38697989986200     -0.10022414250309
  N   -0.66778402784839      1.21224150083061     -1.01947291921046
  H   -1.52200205313487      1.12631365740426     -1.55585828594931
  H   -0.55188583996511      2.18993416384239     -0.78363635572748
