18
Coordinates from ORCA-job run
  C   0.71078255495386      0.01708880504951      0.31961788513921
  C   -0.82027070129199      0.20915486650471      0.36852498931426
  Br  1.39211800474722      0.79132879280381      2.12201066004761
  H   -1.15528057095485     -0.22381735136167      1.31637135094346
  C   1.14899223346913     -1.43353077740995      0.34057656068874
  H   2.22655821295039     -1.50978650342693      0.49911331470511
  H   0.64992735871710     -1.97518816589411      1.14521314982912
  H   0.90434426294807     -1.89627669520293     -0.61800319982672
  N   1.28019210193640      0.70302434582487     -0.76938866586383
  H   1.08726129787552      1.69512595979280     -0.73304003429536
  H   2.27984806042602      0.56036765891183     -0.83306172260999
  C   -1.49505679948300     -0.53599925460736     -0.78055512704408
  H   -1.08533876146799     -0.21313543504899     -1.74058962755097
  H   -2.56228180176922     -0.30973309556598     -0.75635172227973
  H   -1.37157062618857     -1.61617313947350     -0.69744569192410
  N   -1.26948152519566      1.59099706146794      0.34395932098805
  H   -1.13405292771319      2.00359422004440     -0.57087922954892
  H   -0.78869037395925      2.14395870759154      1.04292778928814
