18
Coordinates from ORCA-job run
  C   0.77859884088966      0.01326165814751      0.02749131871418
  C   -0.77129475755915     -0.04838410404527     -0.04806013807237
  Br  1.30849072735771      1.89523398916185      0.37089732536890
  H   -0.97122561553251     -1.11650281306211     -0.22689316940875
  C   1.32181511311774     -0.82254401576320      1.17477543918453
  H   0.99394356273504     -1.86201678193315      1.05137050668037
  H   0.97858366998727     -0.46070654685256      2.14268449903420
  H   2.41116770525417     -0.79367182328259      1.15670040516447
  N   1.46665700985583     -0.38840382058264     -1.17884927340356
  H   1.12739584651105      0.12090042992625     -1.98451668782795
  H   1.32478530497997     -1.38157811441780     -1.33334098630992
  C   -1.37187802351426      0.73761330571678     -1.20648708672580
  H   -2.44819171485968      0.56277152953273     -1.21626746075940
  H   -0.96936996907342      0.43583234364922     -2.17491526771998
  H   -1.20103744370615      1.80876768598863     -1.07911412644121
  N   -1.48840983979929      0.31159077088690      1.16600897955860
  H   -1.27077877766899      1.26982356187426      1.41675127675271
  H   -1.21925163897499     -0.28198725494480      1.93976444621095
