18
Coordinates from ORCA-job run
  C   0.71535500324478     -0.03434896822012     -0.00448591254837
  C   -0.82854921635016     -0.12749290885239      0.00045646366696
  Br  1.20304639730069      1.96904814805222      0.12390486573181
  H   -1.01067297615363     -1.21032113016662      0.03110233846979
  C   1.34585123604973     -0.66475428129157      1.22294937317420
  H   1.07778471591643     -1.72551319130145      1.24793985180185
  H   1.01147586972991     -0.18009155536149      2.13822997728594
  H   2.43381445365354     -0.57916417323240      1.18281433332955
  N   1.25024602416867     -0.61768364654988     -1.17216915768622
  H   0.94881564468499     -0.14842263784489     -2.01499569637636
  H   2.26179685042947     -0.64435887503458     -1.15305112766874
  C   -1.47288158816754      0.41956137511976     -1.26711636291436
  H   -1.23470388359896      1.47748381052420     -1.40125184149588
  H   -1.16551554688822     -0.13083362104968     -2.15845688241260
  H   -2.55420231030032      0.32170530867530     -1.16798789858754
  N   -1.49864687697272      0.44706656310652      1.15395306223552
  H   -1.20822920184154     -0.00578383007903      2.01058980358549
  H   -1.27478459490513      1.43290361350610      1.22757481040896
