18
Coordinates from ORCA-job run
  C   0.67232940146072     -0.01232707392975      0.56953600547106
  C   -0.78432956856894      0.40180338997024      0.21980503020992
  Br  0.61870779590675     -0.81518729769303      2.39099995796273
  H   -1.11926466011124      1.03897560200949      1.04845557559545
  C   1.25886316805338     -1.04682222321854     -0.37306231654955
  H   0.70120714535376     -1.98145587755700     -0.34250621072862
  H   1.24539094769372     -0.66311888827505     -1.39928946787716
  H   2.29362608946247     -1.24542183888873     -0.09247873875070
  N   1.58871900069701      1.09688745317632      0.66611647568673
  H   1.88896396525598      1.39914105557004     -0.25215723567642
  H   1.18579200535918      1.87495391380484      1.17535504315652
  C   -1.75451151354696     -0.76180507397991      0.07657576081403
  H   -2.76201634640183     -0.36532161191817     -0.05777473942388
  H   -1.74234650993864     -1.41305100209851      0.94928016277816
  H   -1.51467740274915     -1.36100779442332     -0.80699308508755
  N   -0.87390541768611      1.20712356716322     -0.99377108081805
  H   -0.24106309203062      1.99569998071966     -0.96358443714804
  H   -0.66348500820949      0.65193371956820     -1.81450669961465
