16

C	0.0	0.0	0.0
C	-0.853011	0.103568	-1.266838
Cl	1.740747	0.0	0.0
H	-1.845041	-0.294565	-0.954457
C	-0.45267	1.017717	0.942858
N	-0.729164	1.846898	1.729101
N	-0.362645	-1.415788	0.724296
O	-1.549735	-1.6496	0.804524
O	0.560948	-2.095733	1.131802
N	-0.277724	-0.838775	-2.298036
O	-0.028157	-1.97743	-1.911921
O	-0.097743	-0.418062	-3.43891
N	-1.004256	1.436051	-1.720062
H	-1.993033	1.633944	-1.825124
H	-0.505544	1.594259	-2.583678
Cl	-3.956039	0.0	0.0
