15
Coordinates from ORCA-job run
  C   0.37824143021029      0.97587217437819     -0.18494398360370
  C   -0.39989160133634     -0.24756904119736      0.24048862616387
  F   -0.40842757541014      2.07560435897684      0.01618024320092
  H   -0.66005512185158     -0.15187804744906      1.29438768894495
  H   0.72558129466302      0.95642034088934     -1.21516197994711
  N   1.60466928908815      1.17219249093870      0.67000205765612
  O   2.54541762046917      1.74842186000757      0.13500671445397
  O   1.53882876670523      0.79296668423368      1.83636168769336
  N   0.48659578230650     -1.44993408769210      0.14923212429274
  O   1.48550071498222     -1.36182310584939     -0.56545616646860
  O   0.11975338227957     -2.44624405548598      0.75953900006201
  C   -1.62598561072571     -0.47428328748721     -0.62666831539420
  H   -2.28322571265614      0.39325951742111     -0.56675531467628
  H   -1.33786126775298     -0.63086327362172     -1.66872256889733
  H   -2.16814139097126     -1.35114252806262     -0.27248981348072
