15
Coordinates from ORCA-job run
  C   0.90922808133907      0.47122450330509      0.42663259314165
  C   -0.33992382491227     -0.37663164475401      0.26621343932223
  F   1.81195874639850      0.18273879925917     -0.53666006025816
  H   -1.02145995009710     -0.12318845904031      1.08095405348146
  H   1.36417235566426      0.36386881356444      1.41049228304591
  N   0.49091343550115      1.91712696182400      0.29782014558998
  O   0.86657103020971      2.54503661487222     -0.68045308573480
  O   -0.22498352700083      2.31468791309068      1.21148557011733
  N   0.09147639177490     -1.79823843917091      0.55407176828472
  O   -0.11899090314698     -2.65523562238147     -0.29567931176083
  O   0.62060025312895     -1.97944594918663      1.64787675599525
  C   -0.98702278477435     -0.24317960991192     -1.09303464052330
  H   -1.83279050308499     -0.92371815691560     -1.17628864516015
  H   -0.27808503235550     -0.47205705172510     -1.88700446449167
  H   -1.35266376864452      0.77701132717034     -1.22542640104962
