15
Coordinates from ORCA-job run
  C   0.35332581105369      0.75599200212821      0.84830299865109
  C   -0.39647194460053     -0.46628406449725      0.33572673982800
  F   0.94817065859368      0.51660858843797      2.03727233268464
  H   -0.74702154445415     -0.98753830443206      1.23308868377477
  H   -0.33293723196444      1.59929450193857      0.96345404916287
  N   1.40279506927005      1.24164875524132     -0.13204649562334
  O   1.02971172615453      1.28336768241247     -1.29985116793359
  O   2.47863301312910      1.59551569126817      0.31532941777652
  N   0.56613122074631     -1.44609497313278     -0.29730764757252
  O   1.73473881711688     -1.39016699693487      0.07348516635615
  O   0.09571711245120     -2.25965876684233     -1.08298472654287
  C   -1.56296070025197     -0.16569693067728     -0.58473937272116
  H   -2.25156815119452      0.51829981706365     -0.08328547640872
  H   -1.21755353654106      0.29025056676017     -1.51002322971464
  H   -2.09871031950878     -1.08353756873398     -0.81742127171719
