15
Coordinates from ORCA-job run
  C   0.96696934243081      0.47390012461170      0.26718627660199
  C   -0.27211152956535     -0.40252229188138      0.30470633029892
  F   1.66427745491771      0.26964709519572     -0.87235898641337
  H   -0.78048850614458     -0.22133469276174      1.25402009400242
  H   1.61173494000062      0.32424358336842      1.13227609460769
  N   0.50321873055673      1.91048871139122      0.31477614434582
  O   -0.02274096354153      2.23190955218050      1.37574146340725
  O   0.66133930751001      2.60490843531339     -0.67784145044953
  N   0.23742347972592     -1.82402616063277      0.40635502103372
  O   -0.11848597464024     -2.63319964253164     -0.44186234198262
  O   0.97654264931755     -2.05418196189018      1.36025048810929
  C   -1.18258086575199     -0.20841305879681     -0.88590715985142
  H   -2.01096168004818     -0.91382148020445     -0.84584890669085
  H   -0.64286375059618     -0.36009490721265     -1.81922370682795
  H   -1.59227263417130      0.80349669385064     -0.87126936019135
