15
Coordinates from ORCA-job run
  C   0.45409559367527      0.70817527778665      0.86278103766525
  C   -0.39892583801425     -0.46312671759475      0.40620787470228
  F   1.36323092847747      0.27810991344124      1.76954199948115
  H   -0.83528190200707     -0.88653787864914      1.31313906202116
  H   -0.16821429340091      1.48946087392044      1.30296696396558
  N   1.19211498308816      1.38454031889471     -0.27179151413708
  O   0.47297433189356      2.05595299810627     -1.00499224301607
  O   2.39910332215945      1.22872054781031     -0.35083062061490
  N   0.50597597847858     -1.54284626754117     -0.11660954106325
  O   0.53693711131045     -2.60053350229069      0.50464056820350
  O   1.12624211699601     -1.28009598641352     -1.14386176780587
  C   -1.46037416998506     -0.14850001103660     -0.62958665252767
  H   -1.00957530022216      0.17821907374906     -1.56374213305070
  H   -2.05875374912299     -1.04332559821988     -0.81038108203697
  H   -2.11954911332650      0.64178695803707     -0.26648195178640
