15
Coordinates from ORCA-job run
  C   0.42965958651041      0.70820284475393      0.87520538633766
  C   -0.40598290257113     -0.46621813588274      0.39505449946415
  F   1.31891770927047      0.28014278202063      1.80244955881272
  H   -0.86224422659026     -0.89414219049173      1.28996452436232
  H   -0.20748684565908      1.48456988143493      1.30271314915900
  N   1.19101612713984      1.39176679565223     -0.23910144454736
  O   2.40044256503192      1.24304866498247     -0.28900790403860
  O   0.48611943520974      2.06137964403393     -0.98757575121419
  N   0.51682390702906     -1.53964883437231     -0.10864219500831
  O   1.16084006635578     -1.27065324941365     -1.11949370924698
  O   0.53806442150615     -2.59898311879402      0.51021114091349
  C   -1.44418626367111     -0.15457790949947     -0.66497836273636
  H   -2.11820015122661      0.62872487300029     -0.31418188789643
  H   -2.03098439600115     -1.05325679279800     -0.86389923920719
  H   -0.97379903233405      0.17964474537351     -1.58671776515392
