15
Coordinates from ORCA-job run
  C   0.46361369856352      0.72874238109858      0.84008348801019
  C   -0.37932413889052     -0.46452376774678      0.42292370939133
  F   1.40509092644251      0.32794116407353      1.72711340289037
  H   -0.78402437767604     -0.88248514826787      1.34688654095207
  H   -0.16076763972847      1.50448077458698      1.28707679179267
  N   1.15727771301209      1.40259527504735     -0.32336771422640
  O   0.40585860509829      2.05065802322592     -1.04509067593938
  O   2.36442371117273      1.26824107838498     -0.43345756321436
  N   0.53211655575463     -1.53448583849778     -0.10809119146504
  O   1.11972451973017     -1.27543963140187     -1.15529791593179
  O   0.60093673277606     -2.58149164986751      0.52797230955288
  C   -1.47351262331660     -0.18467386491897     -0.58855308578445
  H   -2.05891737367084     -1.09334661657326     -0.74072080553671
  H   -2.13825152863933      0.59770654279623     -0.21855363283138
  H   -1.05424478062819      0.13708127806046     -1.53892365766000
