15
Coordinates from ORCA-job run
  C   0.39072341090322      0.99915125560082      0.00538932714598
  C   -0.40215519906592     -0.28444868103432      0.17296761369506
  F   -0.39790118770244      2.05237058167861      0.33620512591392
  H   -0.63486829087462     -0.41622706837720      1.23064569901105
  H   0.80092832069736      1.12786264290982     -0.99562008549689
  N   1.56082537943325      0.96947547052063      0.95671616441389
  O   2.64796214822644      0.68752942675471      0.45975184169218
  O   1.31289261953586      1.18749837567291      2.13566352769004
  N   0.50998201671594     -1.41734000433748     -0.19557884037055
  O   0.83604043419055     -2.19119431665638      0.70071654345378
  O   0.85970885384809     -1.47537423702590     -1.37214323840323
  C   -1.63977743155944     -0.30453872372132     -0.70111248842738
  H   -2.31098713237290      0.50007158197309     -0.40083629893699
  H   -1.37041329575444     -0.17877478501735     -1.74996479372378
  H   -2.16296064622094     -1.25506151894067     -0.58380009765710
