15
Coordinates from ORCA-job run
  C   0.33725431459947      1.01820973109273     -0.00123989423739
  C   -0.36987930902433     -0.30981890487104      0.19954678260601
  F   -0.47225529887450      2.01928697586170      0.42703885541190
  H   -0.49967009918397     -0.47805235115701      1.26959263191680
  H   0.64955767174021      1.19260251132094     -1.03024345243910
  N   1.58727108278129      1.03013202688739      0.84245065259117
  O   1.43360817164814      1.19916884440867      2.04532575604687
  O   2.64052130867988      0.82873849184926      0.24358047028876
  N   0.56332315991238     -1.38252370111116     -0.27943130052190
  O   1.00357366150010     -2.16191432110256      0.56155943212301
  O   0.81336232648015     -1.39085155507080     -1.48257867460112
  C   -1.67781612202746     -0.37700343507289     -0.56250128713967
  H   -2.36121262798608      0.38156330008614     -0.18085417277570
  H   -1.51036219863204     -0.21090803193659     -1.62684752365880
  H   -2.13727604161324     -1.35762958118478     -0.42739827561085
