15
Coordinates from ORCA-job run
  C   0.47375221782147      0.70468596272220      0.85533842080474
  C   -0.39580079328806     -0.45936251189335      0.41153142724345
  F   1.39334035333100      0.26512104684341      1.74710620346882
  H   -0.82421659448251     -0.87692524390857      1.32496205620895
  H   -0.13536903389562      1.48945388769603      1.30771248287872
  N   1.19905154793366      1.37981022364372     -0.28803740662060
  O   0.47091268710026      2.04964563272557     -1.01377652294001
  O   2.40549756591822      1.22725945550329     -0.37878813296224
  N   0.49088954725037     -1.54812204375495     -0.12253904759603
  O   1.11969690620142     -1.28228941792294     -1.14380092189086
  O   0.49662462520142     -2.61606489641985      0.48157981300667
  C   -1.46937472390629     -0.13937521774536     -0.61028031240220
  H   -1.02972887713896      0.18339400792579     -1.55110677304210
  H   -2.11901418287044      0.65497166280159     -0.23900716379926
  H   -2.07526124517595     -1.03120254821656     -0.78089412235806
