15
Coordinates from ORCA-job run
  C   0.45326437418724      0.70058678704553      0.86907957622704
  C   -0.40527026695719     -0.46215790926681      0.40107116809085
  F   1.35271538346591      0.25939157448133      1.78017249679111
  H   -0.85132375939753     -0.88647997046221      1.30283529157955
  H   -0.16609351879500      1.48451651443595      1.30872084678275
  N   1.20420120873158      1.37674186716501     -0.25692949279003
  O   0.49532633760169      2.05707013962239     -0.99195695239452
  O   2.41065350250990      1.21279746585106     -0.32792318253910
  N   0.49496787578766     -1.54611684531499     -0.12036046572649
  O   0.51257554923497     -2.60739800771393      0.49534267011552
  O   1.12574948669965     -1.28300050231020     -1.14115330237693
  C   -1.45697787322373     -0.13462691055691     -0.64072547369064
  H   -0.99726098142115      0.19374368665729     -1.56992364875714
  H   -2.11321745690788      0.65822979061537     -0.27790959230201
  H   -2.06030986151612     -1.02429768024888     -0.83033993900995
