15

C	0.0	0.0	0.0
C	-0.472919	0.361927	-1.407202
F	1.395937	0.0	0.0
H	-1.563843	0.427914	-1.339833
H	-0.114749	-0.397979	-2.096028
N	-0.446225	1.008882	0.920127
H	-0.200419	0.695092	1.855156
H	-1.472564	0.934749	0.823703
N	-0.47351	-1.345251	0.219926
H	-0.208383	-1.608047	1.16463
H	-1.498664	-1.179985	0.220693
N	0.094302	1.647846	-1.873536
O	1.136444	1.603144	-2.533162
O	-0.505407	2.68519	-1.598463
F	-2.822795	0.0	0.0
