15

C	0.0	0.0	0.0
C	-0.232349	-0.149499	-1.528281
F	1.443211	0.0	0.0
H	-0.170035	0.833473	-1.988583
H	0.557199	-0.801917	-1.902798
N	-0.474243	1.270082	0.425701
H	-1.499842	1.131621	0.295309
H	-0.312546	1.301947	1.427183
N	-0.451982	-1.0639	0.827878
H	-1.479766	-0.916102	0.771304
H	-0.252815	-1.948808	0.378094
N	-1.486092	-0.78429	-2.019862
O	-1.631218	-1.981243	-1.776576
O	-2.207589	-0.123708	-2.760057
F	-2.722955	0.0	0.0
