15

C	0.0	0.0	0.0
C	-0.43144	-0.076948	-1.469736
F	1.429367	0.0	0.0
H	-1.51861	-0.228123	-1.424978
H	-0.148287	0.835445	-1.986254
N	-0.483589	1.261411	0.470959
H	-0.294809	1.258148	1.470089
H	-1.509348	1.125495	0.371545
N	-0.435546	-1.075099	0.836777
H	-0.190096	-1.955423	0.397743
H	-1.46103	-0.968383	0.778355
N	0.224924	-1.181827	-2.200815
O	0.061774	-2.335063	-1.795312
O	0.900175	-0.897755	-3.192631
F	-2.808893	0.0	0.0
