15

C	0.0	0.0	0.0
C	-0.432611	0.142539	-1.468494
F	1.408849	0.0	0.0
H	-1.519731	0.28661	-1.424476
H	-0.135866	-0.742135	-2.024921
N	-0.445471	1.04056	0.878649
H	-0.203388	1.939985	0.476617
H	-1.471413	0.934228	0.805817
N	-0.490073	-1.279328	0.415529
H	-1.514985	-1.135614	0.324855
H	-0.297374	-1.32486	1.413455
N	0.228956	1.287124	-2.127952
O	1.033282	1.052941	-3.034702
O	-0.042704	2.423957	-1.730905
F	-2.817059	0.0	0.0
