16

C	-0.306283	0.159178	-1.488698
C	0.0	0.0	0.0
F	-1.535806	0.728618	-1.743406
H	1.093632	0.0	0.0
N	0.718857	0.893297	-2.078462
H	0.751126	0.816338	-3.085274
H	1.623037	0.658993	-1.644845
N	-0.456006	-1.276382	-2.072823
O	-1.578719	-1.757557	-2.160434
O	0.589682	-1.828799	-2.391267
N	-0.426859	-1.260673	0.573
H	-1.303823	-1.181299	1.070645
H	0.299466	-1.560317	1.211519
C	-0.463397	1.178955	0.72065
N	-0.841198	2.081421	1.371591
H	2.678366	0.0	0.0
