16

C	-0.526558	-0.022908	-1.421607
C	0.0	0.0	0.0
F	0.133989	-1.038424	-2.092921
H	1.095299	0.0	0.0
N	-1.926499	-0.158378	-1.491506
H	-2.174114	-0.914315	-0.859105
H	-2.207242	-0.378197	-2.440179
N	-0.167314	1.230262	-2.211554
O	0.334545	2.180462	-1.626161
O	-0.442051	1.18129	-3.408423
N	-0.410895	-1.30035	0.594374
H	-0.594527	-1.15052	1.580349
H	0.432282	-1.8737	0.550044
C	-0.545121	1.095798	0.777632
N	-0.952486	1.925294	1.504996
H	2.669356	0.0	0.0
