16

C	-0.642122	-0.02586	-1.375893
C	0.0	0.0	0.0
F	0.12333	-0.82197	-2.212849
H	1.095915	0.0	0.0
N	-1.974318	-0.450379	-1.370719
H	-2.302288	-0.622912	-0.432415
H	-2.571132	0.143105	-1.92788
N	-0.516033	1.362073	-2.041113
O	-1.475597	1.766304	-2.702187
O	0.558386	1.934301	-1.914654
N	-0.411153	-1.253408	0.690674
H	0.070343	-1.220002	1.586117
H	0.081419	-1.986012	0.178109
C	-0.52413	1.137015	0.747553
N	-0.932147	2.054002	1.361536
H	2.683753	0.0	0.0
