16

C	-0.231944	0.065841	-1.516889
C	0.0	0.0	0.0
F	-1.514458	0.444432	-1.877144
H	1.094149	0.0	0.0
N	0.72162	0.905251	-2.068679
H	0.79341	0.816208	-3.072659
H	1.633781	0.743708	-1.610623
N	-0.185866	-1.390454	-2.108698
O	-1.140367	-2.127435	-1.870232
O	0.791308	-1.697513	-2.784714
N	-0.44513	-1.151937	0.751957
H	-1.282926	-1.558388	0.359972
H	0.299249	-1.839096	0.733612
C	-0.500149	1.241588	0.580979
N	-0.903963	2.227277	1.077614
H	2.682166	0.0	0.0
