16

C	-0.274602	0.046511	-1.488742
C	0.0	0.0	0.0
F	-0.245143	1.385336	-1.915239
H	1.095795	0.0	0.0
N	0.60849	-0.78354	-2.159472
H	0.568174	-0.64929	-3.159745
H	1.548538	-0.663496	-1.76685
N	-1.714685	-0.336686	-1.862758
O	-1.926233	-0.58828	-3.047655
O	-2.56579	-0.310017	-0.978871
N	-0.381606	-1.275522	0.576514
H	0.342014	-1.546456	1.232376
H	-1.274477	-1.215452	1.045781
C	-0.510822	1.168609	0.705941
N	-0.910465	2.071373	1.344175
H	2.687009	0.0	0.0
