16

C	-0.594385	-0.01856	-1.390475
C	0.0	0.0	0.0
F	-1.987097	0.012998	-1.303479
H	1.090944	0.0	0.0
N	-0.100629	0.988429	-2.233156
H	0.219568	1.798541	-1.725311
H	-0.768185	1.224457	-2.949159
N	-0.325042	-1.337713	-2.110576
O	-1.008947	-1.526155	-3.11523
O	0.573669	-2.056682	-1.706085
N	-0.436662	-1.166736	0.765824
H	0.403784	-1.561401	1.175214
H	-1.065318	-0.905821	1.510824
C	-0.407934	1.257502	0.622106
N	-0.718572	2.276093	1.123038
H	2.65515	0.0	0.0
