16

C	-0.526766	-0.021215	-1.421471
C	0.0	0.0	0.0
F	0.128601	-1.038849	-2.093482
H	1.095365	0.0	0.0
N	-1.925494	-0.151566	-1.490794
H	-2.172101	-0.905062	-0.856744
H	-2.204725	-0.371577	-2.439192
N	-0.164204	1.226762	-2.212508
O	-0.444486	1.180839	-3.408539
O	0.343616	2.172818	-1.626671
N	-0.410456	-1.301249	0.592274
H	0.432594	-1.874945	0.54083
H	-0.58841	-1.155065	1.580046
C	-0.544561	1.095961	0.778259
N	-0.950014	1.933338	1.497797
H	2.670094	0.0	0.0
