16

C	-0.523006	-0.052632	-1.420978
C	0.0	0.0	0.0
F	0.016877	-1.113873	-2.090828
H	1.091666	0.0	0.0
N	-1.930968	-0.165226	-1.501395
H	-2.229549	-0.065281	-2.464281
H	-2.374146	0.533583	-0.920694
N	-0.030236	1.163788	-2.248978
O	0.761602	1.947529	-1.743481
O	-0.493931	1.231884	-3.391369
N	-0.326095	-1.225872	0.725657
H	-1.077889	-1.726281	0.266506
H	0.520206	-1.789705	0.704966
C	-0.567364	1.164949	0.669864
N	-1.048616	2.10795	1.181592
H	2.644064	0.0	0.0
