20

C	0.0	0.0	0.0
C	-0.489452	0.057575	-1.45262
Cl	1.78574	0.0	0.0
H	0.158757	-0.631102	-2.00388
C	-0.55236	1.048938	0.927467
H	-1.644045	1.004086	0.922031
H	-0.200096	0.883801	1.94444
H	-0.22218	2.032558	0.592683
N	-0.345544	-1.401251	0.537453
O	-0.964191	-1.474548	1.593456
O	0.02817	-2.351394	-0.141675
C	-0.322915	1.464146	-2.023595
H	-1.06491	2.143472	-1.598458
H	0.676959	1.870856	-1.849798
H	-0.491331	1.432614	-3.103267
C	-1.933283	-0.416844	-1.597233
H	-2.661028	0.127441	-0.990395
H	-2.236255	-0.296893	-2.641618
H	-2.043409	-1.473147	-1.350245
Cl	-4.987315	0.0	0.0
