20

C	0.0	0.0	0.0
C	-0.500972	0.064961	-1.445974
Cl	1.785563	0.0	0.0
H	0.087536	-0.67943	-1.99143
C	-0.538396	1.057726	0.927931
H	-0.159582	0.909506	1.937593
H	-1.629575	1.005063	0.950022
H	-0.224601	2.038752	0.571185
N	-0.345402	-1.393299	0.549415
O	-0.065807	-2.347112	-0.168023
O	-0.852074	-1.460979	1.663434
C	-0.246559	1.441321	-2.056594
H	-0.449034	1.395856	-3.12958
H	-0.92385	2.18494	-1.631911
H	0.784009	1.777885	-1.921605
C	-1.97848	-0.301883	-1.55994
H	-2.197441	-1.299753	-1.182229
H	-2.657723	0.375591	-1.042548
H	-2.25757	-0.291777	-2.617642
Cl	-5.033606	0.0	0.0
