20

C	0.0	0.0	0.0
C	-0.570657	0.059419	-1.413831
Cl	1.771916	0.0	0.0
H	-1.622066	-0.224309	-1.276997
C	-0.530876	1.067848	0.929006
H	-1.625163	1.005271	0.91565
H	-0.153502	0.897354	1.935751
H	-0.204997	2.04988	0.587055
N	-0.355486	-1.358797	0.662767
O	-0.019423	-1.485583	1.837924
O	-0.91523	-2.215126	-0.009053
C	0.107923	-0.875698	-2.414241
H	1.085842	-0.487079	-2.717856
H	0.238766	-1.882845	-2.02292
H	-0.519155	-0.94092	-3.305775
C	-0.546387	1.491097	-1.949272
H	0.455042	1.931243	-1.889388
H	-1.255036	2.124328	-1.41681
H	-0.846544	1.48168	-3.000571
Cl	-3.828014	0.0	0.0
