20

C	0.0	0.0	0.0
C	-0.494691	0.327866	-1.420792
Cl	1.778488	0.0	0.0
H	-0.099003	1.341651	-1.571133
C	-0.517726	0.972736	1.036134
H	-0.300254	1.987868	0.698928
H	-1.596829	0.853481	1.149863
H	-0.039762	0.800241	1.998103
N	-0.375928	-1.417919	0.439228
O	-0.386334	-2.294109	-0.418562
O	-0.586042	-1.594696	1.634175
C	-2.019374	0.385816	-1.487449
H	-2.467642	1.16279	-0.87335
H	-2.495388	-0.543451	-1.17381
H	-2.325163	0.570855	-2.521372
C	0.045332	-0.531585	-2.567931
H	1.104118	-0.771627	-2.465216
H	-0.084893	0.033115	-3.496926
H	-0.514138	-1.461547	-2.654554
Cl	-5.033646	0.0	0.0
