14
Coordinates from ORCA-job run
  C   0.75551645314237      0.35210796591704     -0.61410682820250
  C   -0.48076430684768      0.14305750450704      0.24962311276696
  H   0.70989687014335     -0.26403723300822     -1.51025435109242
  H   -0.34174350486046      0.70748880790621      1.17982407464520
  H   0.89221032352205      1.40347345816938     -0.87516868962696
  N   1.96143555384071     -0.05843198252434      0.15127106527059
  O   2.63600129422074     -0.98273586586392     -0.29191432964713
  O   2.18826828951041      0.56498496818952      1.18611469021051
  N   -0.55385252005422     -1.25268501013215      0.60657267191201
  H   -1.18412255984527     -1.40099392197123      1.38352336574678
  H   -0.88613971614024     -1.78695313755140     -0.18862156098196
  N   -1.63231119956976      0.58179079053552     -0.54390691937998
  H   -1.58376290928746      1.58030346218915     -0.72072801008036
  H   -2.47963206777454      0.41363019363741     -0.01322829154075
