14
Coordinates from ORCA-job run
  C   0.97436640767723     -0.30432104209962     -0.16343456547913
  C   -0.52840248357632     -0.13260758836208     -0.28670462489682
  H   1.38102366493093     -0.77776498082573     -1.05808746989121
  H   -0.74016520212191      0.42469031264603     -1.20801775298752
  H   1.22674323015999     -0.89783878940348      0.71512173262981
  N   1.70361855148638      0.99101498551657     -0.00551840744324
  O   2.82871275269869      0.93622407666634      0.47963519814962
  O   1.15360746744461      2.01674914713540     -0.40894537642494
  N   -1.03218094468279      0.52526101532367      0.91796023452714
  H   -0.72888694073462      1.49314180006517      0.92988216052168
  H   -2.04545587394741      0.53226056106879      0.88612787334927
  N   -1.07131057333729     -1.46693844304877     -0.44818786866766
  H   -1.10356607012766     -1.91492700920180      0.46144762432082
  H   -2.01610398586983     -1.42394404548051     -0.80827875770783
