14
Coordinates from ORCA-job run
  C   0.91134033055177     -0.15361452947872     -0.50905224814470
  C   -0.37943717965327     -0.38760910920143      0.26167490835939
  H   0.72917838608769      0.32520870228393     -1.47256554466891
  H   -0.11659642404836     -0.87701773074987      1.20263291511866
  H   1.44750322327736     -1.09178067981736     -0.64252775162383
  N   1.79006180303054      0.76163547752567      0.26593847828387
  O   2.04041761352776      1.86296772833491     -0.21549089759786
  O   2.19145095534378      0.34120972292339      1.34763447196672
  N   -1.16872821932503     -1.33646572306468     -0.51624791634742
  H   -1.95884050324384     -1.66050058695192      0.02838196316630
  H   -1.53604916206794     -0.88251683050679     -1.34582056390565
  N   -0.94862889623178      0.90515035297548      0.59989109039918
  H   -1.73437305735356      0.80215687458725      1.22933625923864
  H   -1.26529886989513      1.39117633114014     -0.23178516424439
