14
Coordinates from ORCA-job run
  C   0.98584929349868     -0.34081125727538     -0.15887873863229
  C   -0.49542325099542     -0.04403070938918     -0.33951302245132
  H   1.17453144040079     -0.94587703542605      0.72943836289582
  H   -0.60303806995303      0.55139514017705     -1.24940052600022
  H   1.38485361978005     -0.82859535353576     -1.04674415117746
  N   1.72607889098861      0.93529795351200      0.02565336228415
  O   1.71796605708867      1.70960158138124     -0.92740867181995
  O   2.27598286289502      1.13001412830709      1.10596643287948
  N   -0.93119293589261      0.78933000024862      0.76737960057530
  H   -1.87432493740154      1.12516546686224      0.61932638481636
  H   -0.90726310054028      0.27460129688193      1.64068825410766
  N   -1.15574156233401     -1.32322529356688     -0.57639800235421
  H   -2.11219410354028     -1.17123687459076     -0.87304013144272
  H   -1.18508420399466     -1.86162904358617      0.28293084631939
