13
Coordinates from ORCA-job run
  C   -0.84877561985368     -0.01987767817026      0.58118010544270
  C   0.62321424435440      0.20416081316906      0.13248013605735
  Cl  -0.89492523654144     -0.45249433518237      2.30945945430682
  H   0.63048833590877      0.39200048559122     -0.94546657656139
  C   -1.56982745574655      1.23813782391973      0.37017642877802
  N   -2.13049830014192      2.25448398436400      0.18141759152571
  C   -1.48629989342035     -1.07663602391428     -0.20786128119239
  N   -2.04105876882261     -1.90068584965107     -0.83696330624127
  N   1.41217385771806     -1.07929481808750      0.33268409228324
  O   2.14912642762774     -1.14696694695698      1.30569587456832
  O   1.20681821260867     -1.93656584876407     -0.51854173117533
  C   1.23242322038718      1.30487046234616      0.86034930058038
  N   1.71614097592174      2.21986793133638      1.41638991162783
