13
Coordinates from ORCA-job run
  C   -0.86466768249061      0.04756010098811      0.49192414795435
  C   0.65719989973755      0.14702777940565      0.18978241753330
  Cl  -1.11646861729935     -0.27989574091703      2.22586154653938
  H   0.78750200365374      0.26952160593596     -0.88970769948821
  C   -1.46860728214916      1.33612030817986      0.14295217935190
  N   -1.93326155441478      2.37462819387321     -0.15471034362043
  C   -1.49258590989063     -1.00887394062124     -0.30516712161747
  N   -2.03395087017703     -1.82996312254169     -0.94948029390656
  N   1.32861474527209     -1.17124747633439      0.53871636575096
  O   1.95894212119725     -1.22825057210746      1.58457739117935
  O   1.14794608286410     -2.06308988828494     -0.28201044811936
  C   1.26787806033938      1.24640773475929      0.91848685634769
  N   1.76145900335745      2.15905501766465      1.46977500209512
