13
Coordinates from ORCA-job run
  C   -0.88154184241614      0.09749344511754      0.02814450670060
  C   0.65252292144703     -0.10000669233300     -0.07315058081826
  Cl  -1.42765583193021      0.60921938355485     -1.59918379483253
  H   0.86605016710126     -0.76849236909960     -0.90981543399611
  C   -1.50662155931550     -1.18229033403182      0.36540095005304
  N   -1.97584880860238     -2.22910965675534      0.62302949604405
  C   -1.25495611386532      1.13033016404604      0.99279058438396
  N   -1.59238763298612      1.98660134890585      1.72461110455206
  N   1.16623800356242     -0.80580427132119      1.17026132684428
  O   0.77313404519982     -0.36450947896369      2.24245961808416
  O   1.92965976714262     -1.74102856658590      0.97365136022146
  C   1.34561692684813      1.17089045282371     -0.21968857856841
  N   1.90678995781440      2.19670657464256     -0.33651055866828
