15

C	0.0	0.0	0.0
C	-0.446696	-0.013658	-1.46034
F	1.373312	0.0	0.0
H	-1.649897	0.118622	-1.069898
N	-0.477732	1.205698	0.738886
O	-0.567769	1.121598	1.960421
O	-0.592533	2.225485	0.080174
N	-0.417898	-1.191215	0.662698
H	-0.757552	-0.993263	1.585196
H	0.359427	-1.835812	0.66533
C	-0.273223	-1.306536	-2.037305
N	-0.112512	-2.370465	-2.54979
C	0.175488	0.986379	-2.307992
N	0.70391	1.72439	-3.048031
H	-2.485723	0.0	0.0
