15

C	0.0	0.0	0.0
C	-0.477604	0.006369	-1.48898
F	1.342412	0.0	0.0
H	-1.587789	0.033529	-1.432019
N	-0.421292	1.415518	0.427109
O	0.440254	2.112989	1.086137
O	-1.731919	1.462738	0.801138
N	-0.38369	-1.215352	0.722619
H	-1.379167	-1.127159	0.916496
H	0.090967	-1.239054	1.621662
C	-0.092066	-1.225351	-2.145228
N	0.181177	-2.219851	-2.710918
C	-0.013381	1.180234	-2.195374
N	0.297457	2.189145	-2.719961
H	-1.726266	0.0	0.0
