15

C	0.0	0.0	0.0
C	-0.458288	-0.084727	-1.485217
F	1.351491	0.0	0.0
H	-1.565004	-0.144019	-1.414308
N	-0.5794	1.250136	0.549753
O	-1.718156	1.50777	-0.032326
O	-0.303245	1.506738	1.741625
N	-0.49557	-1.058249	0.796788
H	-1.517882	-0.895784	0.853285
H	-0.353868	-1.943311	0.322227
C	0.074658	-1.308692	-2.085926
N	0.479676	-2.315965	-2.537683
C	-0.061497	1.080018	-2.275551
N	0.270189	1.978398	-2.957692
H	-2.835493	0.0	0.0
