19

C	-0.536136	0.007216	-1.448657
C	0.0	0.0	0.0
Br	0.109001	1.677976	-2.364245
H	1.094369	0.0	0.0
N	0.026131	-1.094712	-2.157263
H	0.111452	-1.871587	-1.510229
H	-0.533563	-1.348763	-2.961973
C	-2.059847	0.075673	-1.527752
H	-2.376071	0.040805	-2.575265
H	-2.468643	-0.800089	-1.011497
H	-2.466026	0.987439	-1.085847
N	-0.378462	-1.304023	0.584295
H	0.398201	-1.623734	1.153833
H	-1.185363	-1.199575	1.191185
C	-0.474864	1.162533	0.861616
H	0.025985	1.099646	1.832855
H	-1.55931	1.123968	1.032618
H	-0.224462	2.126015	0.416687
Br	3.688704	0.0	0.0
