19

C	-0.267652	0.017363	-1.511341
C	0.0	0.0	0.0
Br	-2.264456	0.143529	-1.852863
H	1.102211	0.0	0.0
N	0.339065	1.195611	-2.069812
H	1.287956	1.253669	-1.696978
H	0.397612	1.111159	-3.078625
C	0.176082	-1.27359	-2.183221
H	-0.366089	-2.143378	-1.811062
H	0.019664	-1.20971	-3.263465
H	1.246377	-1.390133	-1.977802
N	-0.450884	-1.191558	0.703448
H	0.155383	-1.971704	0.48463
H	-1.398177	-1.423046	0.421367
C	-0.496393	1.240774	0.723259
H	-1.583345	1.205679	0.842467
H	-0.038639	1.26024	1.713895
H	-0.233276	2.150342	0.183098
Br	3.58228	0.0	0.0
