19

C	-0.419177	0.026772	-1.482421
C	0.0	0.0	0.0
Br	0.015679	-1.72827	-2.307066
H	1.095746	0.0	0.0
N	-1.870809	0.140365	-1.589228
H	-2.138319	0.07478	-2.565785
H	-2.127853	1.068507	-1.264832
C	0.37487	1.056942	-2.275922
H	0.098779	2.062092	-1.941207
H	1.446318	0.915753	-2.10992
H	0.151431	0.978172	-3.343372
N	-0.498814	-1.144183	0.752733
H	-1.403735	-1.402693	0.372463
H	0.130917	-1.921519	0.600681
C	-0.464778	1.270562	0.717694
H	-1.550605	1.267145	0.861263
H	-0.00365	1.26553	1.705364
H	-0.162546	2.189764	0.210705
Br	3.676323	0.0	0.0
