16

C	-0.519052	0.049144	-1.434482
C	0.0	0.0	0.0
Cl	-0.28924	-1.648505	-2.155017
H	1.087113	0.0	0.0
H	-0.372291	0.892485	0.50964
N	-1.879694	0.463038	-1.500408
H	-2.215733	0.406002	-2.453782
H	-2.448449	-0.126708	-0.905112
C	0.378976	0.968725	-2.238363
H	0.067696	0.975377	-3.286311
H	0.28859	1.980733	-1.836082
H	1.418051	0.648213	-2.158423
N	-0.552869	-1.150083	0.760407
O	0.217596	-1.957588	1.262126
O	-1.787024	-1.211763	0.846452
Cl	3.430347	0.0	0.0
