16

C	-0.335067	-0.007981	-1.490835
C	0.0	0.0	0.0
Cl	-2.129897	0.204671	-1.695786
H	1.092711	0.0	0.0
H	-0.404802	-0.864013	0.522024
N	0.327407	1.006977	-2.274266
H	0.155749	1.904788	-1.834759
H	1.328016	0.833055	-2.172767
C	0.050004	-1.373248	-2.032809
H	1.117357	-1.529319	-1.84852
H	-0.5179	-2.16695	-1.545133
H	-0.143665	-1.39197	-3.105739
N	-0.490214	1.184703	0.735951
O	-1.038086	0.988197	1.820336
O	-0.317899	2.298921	0.240606
Cl	3.310974	0.0	0.0
