16

C	-0.516939	0.049227	-1.434891
C	0.0	0.0	0.0
Cl	-0.281388	-1.6478	-2.155179
H	1.087138	0.0	0.0
H	-0.371458	0.893444	0.508912
N	-1.877645	0.459828	-1.503472
H	-2.209087	0.405877	-2.458753
H	-2.447428	-0.132681	-0.911816
C	0.380907	0.969971	-2.237888
H	1.420269	0.651099	-2.156263
H	0.072433	0.975584	-3.286587
H	0.287454	1.982182	-1.836447
N	-0.553153	-1.148815	0.761587
O	0.217762	-1.946874	1.276238
O	-1.787665	-1.217807	0.837172
Cl	3.432899	0.0	0.0
