16

C	-0.451931	-0.071857	-1.468406
C	0.0	0.0	0.0
Cl	-0.270572	1.563639	-2.20634
H	1.090444	0.0	0.0
H	-0.360199	-0.904779	0.496417
N	0.427573	-0.963261	-2.195864
H	0.289903	-1.904313	-1.839116
H	1.394924	-0.708894	-1.989857
C	-1.893877	-0.504032	-1.647165
H	-2.569984	0.180063	-1.136635
H	-2.126852	-0.538655	-2.7121
H	-2.028421	-1.503178	-1.218304
N	-0.5865	1.12736	0.758144
O	0.10076	2.120619	0.969765
O	-1.764362	0.99586	1.116046
Cl	3.383083	0.0	0.0
