16

C	-0.441832	-0.031962	-1.475156
C	0.0	0.0	0.0
Cl	-0.287587	1.691068	-2.015808
H	1.092197	0.0	0.0
H	-0.415702	0.834007	0.559195
N	0.421062	-0.816635	-2.326514
H	1.380991	-0.521462	-2.149234
H	0.361843	-1.772472	-1.987084
C	-1.891158	-0.439623	-1.668197
H	-2.022516	-1.487655	-1.389002
H	-2.155294	-0.321943	-2.719646
H	-2.551364	0.177985	-1.055085
N	-0.442905	-1.227762	0.706613
O	-1.01159	-1.093574	1.790987
O	-0.218334	-2.317372	0.174581
Cl	3.328363	0.0	0.0
