16

C	-0.455011	-0.035407	-1.463993
C	0.0	0.0	0.0
Cl	-0.565888	1.806702	-1.918999
H	1.090233	0.0	0.0
H	-0.428115	0.820496	0.565988
N	0.471315	-0.681285	-2.275472
H	0.141368	-1.459077	-2.820558
H	1.411592	-0.759002	-1.908063
C	-1.869503	-0.546995	-1.667936
H	-1.919009	-1.606281	-1.402136
H	-2.573993	0.0123	-1.051523
H	-2.152769	-0.424381	-2.715063
N	-0.449387	-1.244747	0.675097
O	-0.041639	-2.319954	0.23884
O	-1.234749	-1.128611	1.620596
Cl	3.341715	0.0	0.0
