16

C	-0.33783	-0.000762	-1.488589
C	0.0	0.0	0.0
Cl	-2.136483	0.178749	-1.683323
H	1.090779	0.0	0.0
H	-0.389254	0.900577	0.471684
N	0.283084	1.158413	-2.102793
H	0.030937	1.990771	-1.577993
H	1.291196	1.038326	-1.993603
C	0.120138	-1.237327	-2.232446
H	1.183869	-1.386776	-2.026803
H	-0.421709	-2.123862	-1.913612
H	-0.033884	-1.065957	-3.298731
N	-0.53212	-1.131701	0.78882
O	-0.202154	-2.272938	0.469673
O	-1.273882	-0.859741	1.736229
Cl	3.318278	0.0	0.0
