16

C	-0.635619	-0.011441	-1.388395
C	0.0	0.0	0.0
Cl	0.263004	1.042652	-2.523218
H	1.088411	0.0	0.0
H	-0.359012	-0.874705	0.544425
N	-0.486906	-1.373872	-1.88113
H	-1.126204	-1.976124	-1.372037
H	-0.729984	-1.403174	-2.864923
C	-2.084076	0.471885	-1.368797
H	-2.516916	0.356176	-2.364485
H	-2.155374	1.521531	-1.080976
H	-2.65961	-0.127939	-0.656213
N	-0.478018	1.161646	0.79018
O	-0.139486	2.284082	0.423204
O	-1.217558	0.933669	1.754046
Cl	3.387119	0.0	0.0
