16

C	-0.372252	0.080704	-1.47141
C	0.0	0.0	0.0
Cl	-2.213667	0.009187	-1.627983
H	1.091535	0.0	0.0
H	-0.410637	-0.899068	0.452937
N	0.093953	1.293178	-2.059167
H	0.891791	1.660147	-1.555216
H	0.332229	1.148773	-3.02919
C	0.166288	-1.171914	-2.145992
H	-0.080278	-1.148069	-3.212446
H	1.253995	-1.17894	-2.013064
H	-0.260771	-2.080451	-1.713212
N	-0.500475	1.139104	0.802038
O	-1.365891	0.907724	1.647313
O	-0.021424	2.248901	0.58031
Cl	3.337351	0.0	0.0
