18

C	-0.42213	-0.057458	-1.460408
C	0.0	0.0	0.0
F	-0.120951	1.252253	-1.987483
H	1.090411	0.0	0.0
N	0.391719	-1.033855	-2.077008
H	0.208172	-1.090117	-3.071596
H	1.37228	-0.816248	-1.895357
N	-1.81364	-0.306692	-1.678442
H	-2.023289	-0.108293	-2.652274
H	-2.323365	0.362561	-1.112501
C	-0.508432	-1.164191	0.825459
H	-0.184671	-2.084969	0.340842
H	-0.061931	-1.120222	1.822515
H	-1.597002	-1.162038	0.90184
N	-0.474629	1.269912	0.618998
O	0.34045	1.98049	1.197583
O	-1.685926	1.525359	0.555201
H	2.882368	0.0	0.0
