16
Coordinates from ORCA-job run
  C   -0.59077714300491     -0.27855397726888     -0.41498004143218
  C   0.82364960870512      0.26814314194028     -0.21863782310255
  F   -0.72209204868762     -0.78796109821593     -1.68188493525857
  H   0.99836398267218      1.01411941688624     -1.00052837067936
  N   -0.90851741391520     -1.24942654288682      0.53337865326342
  H   -0.65018900879953     -0.90348010658552      1.45061097460161
  H   -1.88512056887976     -1.51051170018246      0.49066478250489
  N   -1.62155886262667      0.88695541376267     -0.42912556215245
  O   -1.20427218955357      2.03069452111953     -0.60083674573846
  O   -2.79734280788992      0.56396810967234     -0.29553464786797
  N   1.82192954835912     -0.76989688018759     -0.35254921659621
  H   1.51390036627959     -1.59461435170766      0.15137159284272
  H   1.91976247251816     -1.02540441146084     -1.32680284905285
  N   0.89303574815245      0.79823422893562      1.13606201691843
  H   1.86990488996059      0.81251940285566      1.40264209974391
  H   0.53932342670997      1.74721483332337      1.15615007200560
