16
Coordinates from ORCA-job run
  C   -0.70806901139917     -0.30327109150388     -0.42140788977706
  C   0.71433362514557      0.23162913930602     -0.27875947765657
  F   -0.83362717750962     -0.79773157864538     -1.71583609873018
  H   0.89663322153833      0.86245276678762     -1.15566184882126
  N   -1.07520531206542     -1.24337955523308      0.52863421565228
  H   -1.88923852689880     -0.99009038813920      1.06518883998599
  H   -0.29400518856604     -1.58559425258458      1.06570027805283
  N   -1.65513698622318      0.89912495364781     -0.40232740509208
  O   -2.53055071560967      0.93730674621675      0.45494243034950
  O   -1.45523231278310      1.73803294320318     -1.26982062555298
  N   1.58835674212994     -0.93500888565126     -0.17831373145335
  H   1.49489565497015     -1.51031864844389     -1.00949396136952
  H   2.55164640860585     -0.62580500269317     -0.12226242929302
  N   0.76715498438711      1.06776729524315      0.89468493254888
  H   1.50495895359624      1.75435046186955      0.82636224959840
  H   0.91908564068183      0.50053509662037      1.71937052155812
