16
Coordinates from ORCA-job run
  C   -0.70623197147602     -0.24849184553396     -0.29275955936792
  C   0.72572651940612      0.26428438708228     -0.28565668979981
  F   -0.89473680620611     -0.96345849672818     -1.48522417363743
  H   0.86971529166786      0.83634633271701     -1.20737114815214
  N   -0.99441378816075     -0.96843177441996      0.85793857080968
  H   -1.95858717243962     -1.26099512995741      0.91862148997456
  H   -0.33358023329723     -1.72751291221041      0.95667243839134
  N   -1.67622401510594      0.91293010926003     -0.43869267395241
  O   -1.39910319655614      1.73264319484595     -1.30492968642378
  O   -2.68107536893981      0.90905545469414      0.26358918447180
  N   1.57616258797312     -0.93132767475311     -0.19725430239039
  H   2.52805304874726     -0.64161339040684     -0.00774412841462
  H   1.57269451032729     -1.41746297271497     -1.08803915971386
  N   0.85603762557252      1.16241485530349      0.82603313291034
  H   1.71828915416619      1.68791467188870      0.78575445423496
  H   0.79427381432127      0.65270519093324      1.69806225105970
