16
Coordinates from ORCA-job run
  C   -0.59580190662401     -0.49668101776126     -0.10727695408146
  C   0.89094438996926     -0.11954467070410      0.02620184662921
  F   -0.67965895750256     -1.44604037709183     -1.11279689682486
  H   1.38696980144038     -1.07862915168084      0.26212460803642
  N   -1.16528084170137     -0.92316119129729      1.10241031116173
  H   -2.13470380173602     -1.19287030317552      0.98672437062963
  H   -0.64254170155526     -1.70441939099318      1.47821915799599
  N   -1.38495627757140      0.70291072679211     -0.61515284981740
  O   -1.43568003399657      1.66035545740874      0.14945201623640
  O   -1.88353122528573      0.63381509701896     -1.72933398471117
  N   1.23103686476713      0.81354381909953      1.06689199220586
  H   0.94664481716518      0.45328949936205      1.96896278935176
  H   0.71772681574621      1.67321924983561      0.90783220768995
  N   1.29228930092026      0.46743670265448     -1.23336258630319
  H   2.26045853377446      0.75135280100426     -1.15630778317164
  H   1.19708422219005     -0.19457725047172     -1.99258824502721
