16
Coordinates from ORCA-job run
  C   -0.63468124180915     -0.49428450913897     -0.24753050870814
  C   0.83795972288565     -0.18675348343724      0.03842511227739
  F   -0.76090447261149     -1.28461411895926     -1.36653051232749
  H   1.24513275604195     -1.13500773777984      0.42807519448300
  N   -1.24491091103536     -1.04134244879730      0.89834246413637
  H   -2.25395239193661     -1.00589286194188      0.83406821546997
  H   -0.92987235321262     -1.99432762152679      1.02771323089046
  N   -1.38017242123713      0.78939630706240     -0.61641918292870
  O   -0.88888358083033      1.44799658946356     -1.52292606518466
  O   -2.43008347911006      1.03677524925237     -0.03334737921718
  N   0.82163445949715      0.89057444925117      1.02468831585130
  H   1.77141823015302      1.14963691125629      1.25957894660413
  H   0.34715335573847      0.58553057849238      1.86681021225480
  N   1.58802059963934      0.11668001356616     -1.14784285043047
  H   1.33330029583925      1.03219994778780     -1.49366475011258
  H   2.57884143198790      0.09243273544916     -0.94744044305820
