16
Coordinates from ORCA-job run
  C   -0.62465534619325     -0.22898707433242     -0.39645710314946
  C   0.80200228803507      0.30194110069672     -0.25119191234504
  F   -0.86438719373684     -0.57287820157227     -1.70221077410060
  H   0.91095424941212      1.14343934164720     -0.94270346756424
  N   -0.86134336581483     -1.31654466330531      0.44258529689922
  H   -0.52796651617487     -1.08850107119373      1.37227317221298
  H   -1.83747062286236     -1.58253956478019      0.44669288845893
  N   -1.65039472935755      0.91893485950029     -0.17197403572782
  O   -2.81027943234230      0.57132216742771      0.02439444630601
  O   -1.24812328591220      2.07912720866690     -0.23515909168432
  N   1.78392496214710     -0.70090771823151     -0.60028379119872
  H   1.51634594619031     -1.58751501880815     -0.18649744328178
  H   1.80358473017465     -0.82478801677655     -1.60434634579161
  N   0.98544353318835      0.65572881914031      1.14976673374706
  H   0.64142237356262      1.59323403330166      1.31935874500487
  H   1.98094240968398      0.63893379861934      1.33475268221451
