16
Coordinates from ORCA-job run
  C   -0.67324197878557     -0.32787924690284     -0.42325456273899
  C   0.73914545249259      0.23865968201906     -0.37694590219088
  F   -0.96710934911264     -0.87644523061683     -1.63187382061682
  H   0.81053141745870      0.97765654263902     -1.17633490067754
  N   -0.88882541777609     -1.26855123565821      0.59404063243179
  H   -0.77670205341709     -0.80436443757795      1.48716018242175
  H   -1.82720496773304     -1.64444776058217      0.53627472427072
  N   -1.65845103696253      0.87909061614398     -0.33817986296989
  O   -2.64475983210838      0.74610117429389      0.37845117620229
  O   -1.39837002845244      1.85509010037627     -1.03367705325101
  N   1.65051982785715     -0.83887686935154     -0.65356462977858
  H   1.49854562259676     -1.60816603073484     -0.01368167017112
  H   2.61078055160402     -0.52553045728681     -0.61250612760022
  N   0.85162780182463      0.89975244054954      0.93414740872214
  H   1.12204908200003      1.86901985562707      0.83705591356921
  H   1.55046490851390      0.42889085706237      1.49388849237715
