16
Coordinates from ORCA-job run
  C   -0.68339196411808     -0.44400992786125     -0.11044887099552
  C   0.57941848792249      0.36415349147018      0.19508194295796
  F   -0.27592347122568     -1.57117153734432     -0.77431966578390
  H   0.24989990382186      1.27844970053058      0.69514816971158
  N   -1.49900776563412     -0.80255116353157      0.98387752672298
  H   -2.11381088999057     -0.03531865351422      1.22149356772002
  H   -0.89245377256463     -1.01388725916495      1.76836479655728
  N   -1.53083111000259      0.36620177533511     -1.07812398864359
  O   -1.61771730319980     -0.01293971560906     -2.23321822332470
  O   -2.04592250976464      1.36858962335400     -0.58867840098951
  N   1.19299293492770      0.73882489225780     -1.06008721760108
  H   1.99749936375968      1.33337825510790     -0.91057829509517
  H   1.48012200043764     -0.08217991415615     -1.57905852888161
  N   1.33130152315096     -0.42386158481030      1.16637526875016
  H   1.78077276630971     -1.20432265400036      0.70149718962221
  H   2.04805180617007      0.14164467193660      1.60267472927286
