16
Coordinates from ORCA-job run
  C   -0.66761945579438     -0.28695527470434     -0.42248472247600
  C   0.79056352037544      0.18922438702467     -0.31981514696624
  F   -0.89194432485387     -0.67477378468886     -1.74137895309208
  H   0.98097916021944      0.78342027873543     -1.22082709706700
  N   -1.00272316150557     -1.26869489017091      0.48455638931210
  H   -1.85308823824516     -1.12946092366359      1.00271074709316
  H   -0.21193911552263     -1.64682872973974      0.98243897077139
  N   -1.56877611347632      0.94454907256671     -0.27317207246673
  O   -2.41554686994608      0.94699262802356      0.61608953265248
  O   -1.35131570525605      1.85847267308339     -1.06073660266064
  N   1.60452108550337     -1.00729894333128     -0.19141402854024
  H   1.56187249868552     -1.55873047737077     -1.04084736552019
  H   2.56118065612769     -0.71542160835557     -0.03459280008030
  N   1.06984572912177      1.01953392557616      0.82559432841238
  H   0.68077911518402      1.94630618627556      0.71715166750759
  H   0.71421121938278      0.59766548073955      1.67472715312032
