16
Coordinates from ORCA-job run
  C   -0.66751769871889     -0.21388704555201     -0.26642307468750
  C   0.80571499309828      0.19505556125582     -0.31818528793595
  F   -0.95670764037965     -0.88817119356074     -1.46324684076007
  H   0.95249335165891      0.75679327673823     -1.24641416940587
  N   -0.96706381619609     -0.93201160830382      0.88316474366391
  H   -1.92662637406277     -1.24733211487292      0.90924695957951
  H   -0.29540358443640     -1.68252622104828      0.98875955045612
  N   -1.60218638609642      0.98392196135297     -0.34121129175417
  O   -1.14336679526891      2.04374873984690     -0.75966400494306
  O   -2.76942398258700      0.77897323333214     -0.02697030905213
  N   1.55109323255782     -1.05859485781025     -0.25495469714277
  H   1.50725340200905     -1.53877708564475     -1.14561889854610
  H   2.51547193437075     -0.82256348007431     -0.05639173375995
  N   1.23603124405197      1.01938355538260      0.78356851601829
  H   0.89383750190780      1.96320168248553      0.66481475283928
  H   0.86840061809156      0.64478559647291      1.65052578543046
