16
Coordinates from ORCA-job run
  C   -0.74425675008921     -0.46130523355425     -0.07749786366240
  C   0.76570467041471     -0.25224280088621      0.06204188365687
  F   -0.94570369308187     -1.49424367727974     -0.95951331713445
  H   1.14316001098151     -1.26200507692524      0.28692027419213
  N   -1.40356242218195     -0.66350714467452      1.13331448050445
  H   -2.06216970602225     -1.42517627126234      1.11009612137319
  H   -0.77578251079060     -0.65956846773493      1.92255935933055
  N   -1.33085734631346      0.78323153145409     -0.78393866785205
  O   -1.82071207514529      0.65836586791766     -1.89678044922098
  O   -1.23720682195127      1.81760306983012     -0.13629696335435
  N   1.05150556226486      0.56691463666089      1.21246508501170
  H   0.77508474493334      1.52281218755396      1.01951166286072
  H   2.03898874719803      0.54094877035186      1.43058529403409
  N   1.26025212994916      0.29061576449656     -1.19507978725000
  H   2.26981028727507      0.36093854623337     -1.16196046696175
  H   1.01674517255919     -0.32238170218129     -1.96642664552773
