16
Coordinates from ORCA-job run
  C   -0.61769784618364     -0.44426777060562     -0.12650425230252
  C   0.88245525168217     -0.17473776162491      0.08082906529696
  F   -0.77099632192890     -1.31643718542365     -1.19736013847657
  H   1.26426837005900     -1.10657423402329      0.53641340540740
  N   -1.21302016690531     -0.89817302584741      1.05983889592299
  H   -0.88629414305820     -1.82973180115501      1.27964242879800
  H   -2.22321890763842     -0.86755546703300      1.02566066350030
  N   -1.32380309570620      0.82635335945831     -0.57458968478382
  O   -0.93715105900129      1.29622391781942     -1.63806392979110
  O   -2.21939687595224      1.27582570776098      0.13083915263959
  N   0.96858824577587      0.99330260235501      0.92906897752571
  H   0.52752620638771      0.81806866399618      1.82270842600104
  H   1.94496021993805      1.21997897635177      1.06707398024751
  N   1.67461079809139      0.07031300170909     -1.09478730098881
  H   1.63741287838875     -0.72993612895161     -1.71307349721023
  H   1.29075644605126      0.86734714521373     -1.58869619178647
