16
Coordinates from ORCA-job run
  C   -0.54873491478497     -0.49942283242510     -0.09052944760808
  C   0.66026427379040      0.40497362273247      0.13548629436361
  F   -0.19063186940642     -1.61994140187644     -0.75420056746805
  H   0.27691141156620      1.31952299617391      0.60882370222966
  N   -1.19233262076684     -0.87000988440094      1.11788348841168
  H   -1.88110341509514     -1.59220076402151      0.94050617421619
  H   -1.64560379275991     -0.06285097774591      1.52813273834275
  N   -1.50175154572364      0.26871410927256     -1.02738149578868
  O   -1.72331319406041     -0.17014677585153     -2.14327175967634
  O   -1.98410059278924      1.28071987479834     -0.52276541066664
  N   1.17374083468632      0.77828566723067     -1.16058972146866
  H   1.72068314337363      0.00516435278491     -1.52201294525110
  H   1.77226751350076      1.58990459483966     -1.08976967430700
  N   1.61013352458060     -0.34296332695273      0.94518850616328
  H   1.13255984723165     -0.77372289998720      1.72884107956135
  H   2.31901139665700      0.28497364542884      1.30365903894603
