16
Coordinates from ORCA-job run
  C   -0.61903662532246     -0.31219568109839     -0.16590697712223
  C   0.66524752339386      0.40336721872685      0.28542826777402
  F   -0.25832484015130     -1.33709445806065     -1.05038034769975
  H   0.35690010880432      1.35966563067350      0.70985888151858
  N   -1.39453122863664     -0.73500082648320      0.90403634618465
  H   -0.80337845381575     -1.22996479029789      1.55985044907876
  H   -2.20305162832849     -1.26415199609505      0.60674834609745
  N   -1.50319165937598      0.57955331870602     -1.02842789495788
  O   -2.55568889914906      0.07676620015818     -1.40444056057855
  O   -1.11428549112467      1.71551667238249     -1.29135793903455
  N   1.60549131272486      0.66485708549505     -0.78521731085488
  H   1.69658048524046     -0.16898233258387     -1.35557736450843
  H   1.24125477920020      1.39607043916323     -1.38319121170184
  N   1.25348210738431     -0.44103588254233      1.32662203055646
  H   1.52305110564733      0.13792482061248      2.11082121801170
  H   2.10748140350900     -0.84529541875642      0.96213406723647
