16
Coordinates from ORCA-job run
  C   -0.57932579207167     -0.36360702355552     -0.04035190903022
  C   0.72866808721618      0.40021973455188      0.18452751398792
  F   -0.32659532390872     -1.50803125191465     -0.73350655440045
  H   0.47402246963980      1.29910772076175      0.75482949173925
  N   -1.23024726056349     -0.70226787757526      1.16896205283879
  H   -2.00665476646757     -1.32848294938627      0.98833505915680
  H   -1.57424331481101      0.13658892291888      1.61943186951815
  N   -1.46835912085752      0.50146563890183     -0.94983739081652
  O   -1.89040385070591      1.51605874505339     -0.39953139951515
  O   -1.68576056806480      0.14256114633914     -2.09613303312794
  N   1.21277688101554      0.81020342637202     -1.11096701944790
  H   1.39511480180399     -0.00343423228218     -1.68820295625774
  H   2.08623649207646      1.30680468341751     -0.98855439644249
  N   1.69106444823809     -0.36555586813205      0.95731646301385
  H   1.88257476291013     -1.23759922646295      0.47468512523846
  H   1.29313205455050     -0.60603158900753      1.85899708354518
