16
Coordinates from ORCA-job run
  C   -0.67135695410784     -0.28852375860488     -0.41454485835591
  C   0.79462958527053      0.16500182966687     -0.32303119527194
  F   -0.89922592798226     -0.71538800038859     -1.72079946780381
  H   0.99796282299066      0.72713076206047     -1.24157582531806
  N   -1.02636780082354     -1.23411768329478      0.52304404634532
  H   -0.24327523300049     -1.60965932958742      1.03492731074325
  H   -1.87415603430915     -1.06055224319124      1.03512777083716
  N   -1.55125429421087      0.96267892998503     -0.30834890059058
  O   -1.31423867295404      1.84725009355835     -1.12332493661359
  O   -2.40236808102216      1.00775909802163      0.57557787157303
  N   1.58689583907709     -1.04114767031863     -0.15487955165477
  H   2.54836995031880     -0.76193568638162     -0.00475091764651
  H   1.53576018708697     -1.61819491075643     -0.98665206848660
  N   1.08555584428783      1.02597011522504      0.79668711619965
  H   0.71486906823761      1.95599961764375      0.65630327491341
  H   0.71819970114086      0.63872883636246      1.65724033112996
