16
Coordinates from ORCA-job run
  C   -0.53323917937787     -0.42748792081445     -0.04748979092568
  C   0.67024538409091      0.48751678328983      0.19610947899401
  F   -0.12210166618894     -1.56687758342248     -0.66949938969006
  H   0.29032386126505      1.37773822454935      0.70723283184568
  N   -1.20257272898767     -0.78150278433796      1.14726520272743
  H   -1.89608471323825     -1.49778899114747      0.96407957038280
  H   -1.65789631535687      0.03325540738462      1.53937521219192
  N   -1.46538302643958      0.28999945464039     -1.03846253087457
  O   -2.02263288662984      1.27536362834893     -0.55993593393787
  O   -1.58548778059303     -0.14350630757359     -2.17324348130091
  N   1.17057326603158      0.88879393675254     -1.09590448072835
  H   1.97643313069868      1.48612753588104     -0.96081564253531
  H   1.46998075882006      0.07513172004640     -1.62192048056718
  N   1.67087583978141     -0.12917305773256      1.04938286717498
  H   1.25720692147662     -0.37097147744541      1.94360455761632
  H   1.98075913464773     -0.99561856841919      0.62122200962681
