16
Coordinates from ORCA-job run
  C   -0.67950123975303     -0.30258815077022     -0.46620460605712
  C   0.72753083080125      0.24120531522972     -0.23361501087330
  F   -0.72725004417078     -0.77583547261577     -1.77389896456753
  H   0.95376450365533      0.88710323917815     -1.08904146993496
  N   -1.09128589059645     -1.26160352194176      0.44564566005276
  H   -0.34047480736078     -1.60075632198642      1.02619346827635
  H   -1.94084542175581     -1.02749817372386      0.93369667706568
  N   -1.63687917088328      0.89186852566547     -0.48222676038551
  O   -2.56303758833708      0.90639751907742      0.32081348986929
  O   -1.39308226218326      1.74878242901250     -1.32045561522306
  N   1.60487251065381     -0.91923591991687     -0.09979728171368
  H   2.56088284439568     -0.60308904617792      0.01300334418220
  H   1.56207230858203     -1.48515592985243     -0.94148442979945
  N   0.70562158249165      1.05940670938098      0.95356223740245
  H   0.82173691818809      0.48192272619789      1.77686886182822
  H   1.43487492627263      1.75807607324312      0.93494039987767
