16
Coordinates from ORCA-job run
  C   -0.57904780430513     -0.24384360679251     -0.40468988289001
  C   0.87199022831732      0.26182327363492     -0.28546508611327
  F   -0.74788228894335     -0.86753263806910     -1.60133308002125
  H   1.03011277041172      0.91461186544594     -1.15263574434744
  N   -0.93188828129927     -1.12701193357861      0.62856208922923
  H   -1.86380738999229     -1.49940690783251      0.49536689604373
  H   -0.87449977203579     -0.66909702114092      1.52661075802058
  N   -1.49188193853323      1.00382213113916     -0.48281221145479
  O   -1.97711415618764      1.38501656203514      0.58379579339511
  O   -1.59967439170676      1.55839770207596     -1.56844111028094
  N   1.79585914540763     -0.84615799170021     -0.36677685765792
  H   1.38107352500930     -1.66451624589341      0.06536695900978
  H   1.99903203750463     -1.06613306458885     -1.33184767371002
  N   1.11076809093438      0.99240705103520      0.94213793331819
  H   0.30264393094719      1.45780402151041      1.33009978938599
  H   1.57531629447129      0.40881680271940      1.62106142807304
