16
Coordinates from ORCA-job run
  C   -0.65377167762116     -0.20366416993288     -0.30743888200890
  C   0.81724566403455      0.21498880822206     -0.27139247880118
  F   -0.88437137940299     -0.81670750021775     -1.54910827398242
  H   1.00114632387441      0.82413515205235     -1.16241469186980
  N   -0.99895208566084     -0.98165233982492      0.78880608702165
  H   -1.95566170735635     -1.30457751007376      0.75714762621196
  H   -0.32504601646909     -1.73071579864840      0.88973341256207
  N   -1.59257884300474      0.99205307141735     -0.36278771721372
  O   -1.12407094113398      2.07354432104345     -0.70907969438102
  O   -2.77053349368215      0.76581017177660     -0.10858540734374
  N   1.56912293521848     -1.03547255110390     -0.23697453960873
  H   1.56495020280894     -1.47285307526449     -1.15051792425981
  H   2.52296256499593     -0.80393212384161      0.01155624558029
  N   1.19167762768582      0.98533711533614      0.88835417760457
  H   0.79271101385361      0.56347802725066      1.71892392073322
  H   0.84516981185955      1.93122840180910      0.80377813975557
