16
Coordinates from ORCA-job run
  C   -0.64469384940824     -0.47896590056613     -0.19830108990894
  C   0.83414169744601     -0.27679447728166      0.16742317676701
  F   -0.69094426195818     -1.44578952068469     -1.18091586664934
  H   1.17912404368694     -1.30530115451913      0.32645669815571
  N   -1.46582258431293     -0.76348522340105      0.88899308274892
  H   -0.95155026369619     -0.97464719113957      1.72990903130278
  H   -2.22477304284065     -1.39228225143683      0.67504217889820
  N   -1.22097546945338      0.76796266184897     -0.89228297440541
  O   -2.07115842431204      0.60565552157682     -1.75503251419617
  O   -0.82428834334748      1.84927130405118     -0.46065611077103
  N   0.93999856209667      0.41578497501075      1.42935538592312
  H   0.59835818795869      1.36356895140412      1.32434016658696
  H   1.91808586132928      0.45577371296313      1.68844855178601
  N   1.65701268774292      0.27123797299428     -0.89368487184034
  H   1.60558074168545     -0.30402096899970     -1.72629913751708
  H   1.36090445738315      1.21203158817950     -1.12279570688040
