16
Coordinates from ORCA-job run
  C   -0.68362311875318     -0.23477508958166     -0.26672166847018
  C   0.77673777328977      0.26251455615785     -0.28029022304817
  F   -0.87628317050078     -1.03574905888556     -1.37329256179055
  H   0.84425756047701      1.01175550471694     -1.07987776997848
  N   -1.05237859264372     -0.84902700872917      0.92238554441139
  H   -0.28653055062200     -1.00500317980911      1.55866529880038
  H   -1.72508001557860     -1.59276751267610      0.82979062439200
  N   -1.66141113091210      0.93064828014240     -0.50776830105606
  O   -1.27415907750103      2.04823828676467     -0.17108787848117
  O   -2.77050806028000      0.64955611072085     -0.93886910233428
  N   1.71912982709919     -0.78823159522741     -0.59275642103238
  H   1.64074722570879     -1.53439581597171      0.08861513449528
  H   1.53193240787306     -1.17072825027684     -1.51024490238136
  N   1.12100432365882      0.74894988802311      1.03936921017068
  H   2.10838956108038      0.97372632161536      1.03616483376270
  H   0.59077503760439      1.58628856301637      1.24691818254020
