16
Coordinates from ORCA-job run
  C   -0.64918804142104     -0.17420000337502     -0.39981442783651
  C   0.80496928630124      0.19882973946013     -0.12996201643393
  F   -0.70389680220073     -0.64004741392723     -1.71414475469855
  H   1.07173138064451      0.94057700560476     -0.89365083283475
  N   -1.15703000101256     -1.05162006565918      0.54782995131046
  H   -2.07046790033763     -1.40012854295135      0.28961536388573
  H   -0.48673694667678     -1.79769958504647      0.69000861911657
  N   -1.57421799599461      1.03660322510463     -0.45601538154591
  O   -2.76854125652988      0.78413971102063     -0.56686772117591
  O   -1.07203341004401      2.15747147347872     -0.42352280507355
  N   1.56491512180301     -1.04180558021475     -0.27414976201682
  H   1.99545130447152     -1.11660893256536     -1.18545237397925
  H   2.26965328410420     -1.06306097391504      0.44969778626651
  N   0.98149167126412      0.68332665539558      1.22542166606247
  H   1.67080080766020      1.42382789561387      1.23291852606684
  H   0.12509949796843      1.05839539197610      1.60708816288660
