16
Coordinates from ORCA-job run
  C   -0.67341136376128     -0.56024789030479     -0.23557647960522
  C   0.78819058784383     -0.25341479504719      0.11362874710131
  F   -0.70261627364218     -1.60361813790300     -1.11904656155412
  H   1.21626085829724     -1.25002086759052      0.26349487448315
  N   -1.48833439077424     -0.77239929052583      0.87895619005217
  H   -0.95973871273415     -0.89656613758106      1.72876573375935
  H   -2.20883327606303     -1.45965179177397      0.71830150364649
  N   -1.27397986834417      0.62094852247227     -1.01828933885411
  O   -2.07097361454690      0.38462467804637     -1.91146506904088
  O   -0.94959594829924      1.73512328445811     -0.60946275933445
  N   0.85874218938464      0.43654344914600      1.39097661902289
  H   0.48086850528648      1.37145537038365      1.29089615193599
  H   1.82273110423225      0.50410439769352      1.69204898342699
  N   1.43838053956542      0.30992817091748     -1.05400492000144
  H   1.29196347227935      1.31047077340130     -1.09552872109930
  H   2.43134619127599      0.12272026420765     -1.03369495393881
