16
Coordinates from ORCA-job run
  C   -0.61517611395748     -0.24357373759113     -0.34324579932762
  C   0.80688267452629      0.31055278828923     -0.32737446829538
  F   -0.78499497186065     -0.98108474712810     -1.50568941180728
  H   0.94493223151064      0.85364674696968     -1.26495036775370
  N   -0.92044458709511     -0.98352523327947      0.81858451009640
  H   -1.90439095214596     -0.91284410209477      1.04541777890249
  H   -0.65918023038302     -1.95107524734122      0.68644324027609
  N   -1.58977066586915      0.92007592722591     -0.47859316474377
  O   -2.49213037406543      1.02776760866346      0.34545276736308
  O   -1.39543837214933      1.64687385739681     -1.44283912570385
  N   1.81863454887318     -0.73092998988412     -0.26117351124323
  H   1.71115888394945     -1.27668785024237      0.58604929677109
  H   1.76979832345366     -1.34499845028402     -1.06590137771474
  N   0.85433946580012      1.24288017851999      0.76743479106193
  H   1.76975257196210      1.67221768815282      0.80524876235184
  H   0.68402756745068      0.75070456262731      1.63713607976665
