16
Coordinates from ORCA-job run
  C   -0.62446478253641     -0.38883916294191     -0.16258793657602
  C   0.64285002273397      0.40843301939688      0.18100402842212
  F   -0.23338244154922     -1.48544148700137     -0.87652057748939
  H   0.31373255073781      1.29137226223665      0.73650876148824
  N   -1.46806799070288     -0.81824127809225      0.89437738743165
  H   -0.93187620190977     -1.31834801428722      1.59079273550551
  H   -1.93563930525511     -0.02454327149623      1.31224137177305
  N   -1.48266080286657      0.47663272496287     -1.06731282212211
  O   -1.98781108870009      1.44429815818706     -0.50303931554690
  O   -1.59022090507593      0.16861378548188     -2.24131851849121
  N   1.22757282143760      0.84504788525058     -1.06336619793400
  H   1.45840093130687      0.04376071928317     -1.63963912783939
  H   2.08564695247696      1.34327204084796     -0.86261660590328
  N   1.55956825386237     -0.33260384968200      1.03397985242869
  H   1.72114969650779     -1.26547020652808      0.67323882686573
  H   1.24220228953260     -0.38794332561798      1.99325813798729
