16
Coordinates from ORCA-job run
  C   -0.66986529557959     -0.54122914851644     -0.18151981444810
  C   0.77570449862912     -0.16344573420894      0.15198358516789
  F   -0.63662190569127     -1.55802179777014     -1.10317910055396
  H   1.23995832524209     -1.12986324040434      0.40336855837613
  N   -1.44544745044642     -0.86385217983052      0.93165367084437
  H   -0.92441961721924     -0.80751626348831      1.79354385609718
  H   -1.98425350929028     -1.70641370588583      0.81117676210687
  N   -1.30993163715349      0.65150303501424     -0.92786992169465
  O   -1.41970604153122      1.66554191689597     -0.25116589292930
  O   -1.64275634456481      0.51120850750911     -2.09556789228001
  N   0.81744749802012      0.64310719492037      1.34521716988024
  H   0.45762359604656      1.56763999593477      1.13768870439121
  H   1.76574839198141      0.72118477662536      1.68863740083585
  N   1.35318477807437      0.47646170830331     -1.02124427302903
  H   1.28663947343452     -0.13504390346755     -1.82841619109218
  H   2.33369524004814      0.66773883836894     -0.85630662167250
