16
Coordinates from ORCA-job run
  C   -0.71604498867310     -0.57042354593450     -0.13979649355884
  C   0.79458945379688     -0.36270691650420     -0.00893162359467
  F   -0.97853899078741     -1.51819560757629     -1.07519707809530
  H   1.15482124969177     -1.37534132840159      0.19459301087432
  N   -1.29799751540134     -0.92669586812203      1.07865510913542
  H   -0.90734284495178     -0.38342726725854      1.83632026058941
  H   -2.30813881591634     -0.93487052479598      1.05151970686772
  N   -1.38291800812375      0.70376050448152     -0.72286898512992
  O   -2.49984100183876      0.56921867554687     -1.20330895405192
  O   -0.79043503833237      1.77457498752680     -0.57382679604594
  N   1.06707480464641      0.43910756302015      1.17928931158706
  H   2.02067639650801      0.29586303444914      1.48528718870041
  H   0.93971269022555      1.41912412015175      0.95869884339434
  N   1.34008632868804      0.04148784774384     -1.28706729136661
  H   2.31530157139272     -0.21366554553443     -1.35532503399943
  H   1.24799470907547      1.04018987120749     -1.41704117530602
