16
Coordinates from ORCA-job run
  C   -0.72561681141719     -0.26423510969391     -0.00570485919521
  C   0.64387396275172      0.39239031707424      0.10910801660795
  F   -0.53037412018479     -1.52060649035362     -0.57076326492881
  H   0.47380502078211      1.41628005084994      0.44280889684147
  N   -1.41506222908061     -0.29569076869410      1.20486526403198
  H   -0.77751347716244     -0.56902298662380      1.94236180771871
  H   -2.23069488666789     -0.89281546891405      1.16623986156865
  N   -1.56368588890861      0.51295572823963     -1.01738173579758
  O   -1.62657823022607      1.71885139643744     -0.82406038888824
  O   -2.12620861376939     -0.11960295375201     -1.90136231298481
  N   1.21112237531859      0.43547584163617     -1.22047105089628
  H   1.41230481347657     -0.49750224291194     -1.55779497851575
  H   2.05856547370848      0.98628962942585     -1.23745829774600
  N   1.35491857425326     -0.31536828086308      1.17147024485493
  H   1.68409962044801     -1.20952809817290      0.82476751860298
  H   2.15804441667826      0.22112943631612      1.47337527872600
