16
Coordinates from ORCA-job run
  C   -0.69066886810588     -0.33056842257023     -0.09989498742937
  C   0.58920067248692      0.43303690549112      0.21385362112639
  F   -0.32513092170397     -1.46188178989588     -0.82249557284399
  H   0.28788707961629      1.37295281388981      0.67692801018285
  N   -1.44648995112136     -0.61209586881964      1.03664233057707
  H   -0.82967290632742     -0.93230019705904      1.77296561546399
  H   -2.18814215847380     -1.27381652519693      0.84817947795228
  N   -1.54410466737876      0.50397447822645     -1.05132956473690
  O   -1.97637381485660     -0.03934498267248     -2.05923479690327
  O   -1.75130576219469      1.65412015058067     -0.69109693647659
  N   1.22984429657369      0.73203352468753     -1.04780021294182
  H   1.54905535334590     -0.11556570346906     -1.50000387174400
  H   2.01417051295431      1.35663700832588     -0.91894604677632
  N   1.30596765126984     -0.35316936531773      1.21545662273389
  H   2.02159293690626      0.20995989464443      1.65669134121523
  H   1.75617054700927     -1.14497192084490      0.77008497060055
