16
Coordinates from ORCA-job run
  C   -0.62261981148517     -0.25746455421521     -0.31889643456700
  C   0.78996703059149      0.31946330777261     -0.35948923836015
  F   -0.82123131964882     -1.01154725661918     -1.46572323194397
  H   0.88622743192450      0.85344770529649     -1.30747981077286
  N   -0.87444617320606     -0.98820972450865      0.86150833414693
  H   -0.60461019142315     -1.95357203122476      0.73083893288801
  H   -1.85004823143512     -0.92804500788099      1.12446632139958
  N   -1.62032497908379      0.88902601717987     -0.43283314334513
  O   -2.49501262345527      0.99164069870835      0.42119740033075
  O   -1.47195807120337      1.60692077713586     -1.41186802243117
  N   1.82027703690168     -0.70512626690082     -0.31733814822038
  H   1.75107515051254     -1.24161117352026      0.53981092874097
  H   1.75174946188409     -1.33037341073697     -1.11202652602733
  N   0.86041732728242      1.26490261420469      0.72261073173779
  H   0.72987504525191      0.77978164982251      1.60308955577804
  H   1.76866291659212      1.71076665548645      0.72313235064593
