16
Coordinates from ORCA-job run
  C   -0.64114494751497     -0.60180508126804     -0.19796705826689
  C   0.81570927247454     -0.23993749774576      0.10158291168105
  F   -0.66848964857812     -1.49913705729952     -1.22790643237273
  H   1.28837421849721     -1.21189023397006      0.30310506706664
  N   -1.28574575009688     -1.11185903475079      0.92658752908152
  H   -1.02031470979762     -0.57265990528844      1.74061415812481
  H   -2.28830835558529     -1.17752963775815      0.81964841860930
  N   -1.32820660143808      0.66494920034087     -0.77554581251340
  O   -1.57752505096236      0.71663414174418     -1.97058791756006
  O   -1.55470362707581      1.54033954663096      0.05635084975064
  N   0.89209712326805      0.53514090587888      1.31830707032868
  H   0.66198201726668      1.50052393888436      1.11110937376166
  H   1.82472343371732      0.49423162430830      1.70710841346512
  N   1.34886466771013      0.46048684167040     -1.05750504410255
  H   1.18439506280233     -0.07273115900967     -1.90479224803396
  H   2.34929289531287      0.57624340763249     -0.95210927901985
