16
Coordinates from ORCA-job run
  C   -0.77019523111479     -0.46922931617676     -0.09608888384294
  C   0.75664806000378     -0.35528075518267     -0.00541485784021
  F   -1.08274729638531     -1.51905870501457     -0.91503120640518
  H   1.07162043672389     -1.39702474502518      0.11508012681028
  N   -1.40655713493144     -0.54213655836381      1.14496292624500
  H   -0.76470889048320     -0.72235670251324      1.90156279154090
  H   -2.23070851892763     -1.12350333508840      1.13474802569367
  N   -1.33487824110574      0.76432156762434     -0.82343505102696
  O   -0.80638814592610      1.83360551417403     -0.52172892389072
  O   -2.29177906035477      0.61711046106176     -1.56608612307584
  N   1.13059805935638      0.34585190104732      1.21140216982376
  H   2.13232366032138      0.29025635809124      1.34546920841455
  H   0.86449413448622      1.32065139037001      1.13497925566636
  N   1.26781519203655      0.08979441329062     -1.28771403958311
  H   2.21613368252350     -0.23181177230642     -1.42409423089600
  H   1.24932929377728      1.09981028401173     -1.34861118763357
