17

C	-0.542533	-0.005005	-1.427418
C	0.0	0.0	0.0
Br	0.030683	1.679201	-2.27843
H	1.088405	0.0	0.0
C	0.12728	-1.079904	-2.163908
N	0.577293	-1.979185	-2.774628
C	-2.054662	-0.165778	-1.588373
H	-2.573284	0.648844	-1.090715
H	-2.295767	-0.167034	-2.652475
H	-2.37362	-1.116146	-1.152795
N	-0.454878	-1.234812	0.707896
O	-1.533256	-1.195634	1.30568
O	0.224105	-2.249197	0.536656
N	-0.456666	1.131496	0.850164
O	-1.421539	1.832909	0.492297
O	0.255825	1.361013	1.823903
Br	3.161698	0.0	0.0
