17

C	-0.443717	-0.018393	-1.464379
C	0.0	0.0	0.0
Br	-2.374145	-0.401146	-1.647134
H	1.091404	0.0	0.0
C	-0.207395	1.291208	-2.070549
N	0.014911	2.284256	-2.659431
C	0.345498	-1.06353	-2.256661
H	0.10833	-0.958913	-3.316191
H	1.411797	-0.888271	-2.082178
H	0.092881	-2.066659	-1.921437
N	-0.473643	-1.220177	0.726765
O	-1.384529	-1.093627	1.539468
O	0.083152	-2.268793	0.420885
N	-0.465399	1.179397	0.788087
O	-1.302387	1.932217	0.294331
O	0.046753	1.288212	1.896375
Br	3.311147	0.0	0.0
