17

C	0.010701	0.037463	-0.013715
C	-0.375994	0.058903	-1.526598
Br	1.981261	-0.303454	0.098405
H	0.272217	0.821552	-1.9888
C	-0.164357	1.382962	0.52626
N	-0.314416	2.480396	0.921295
C	-0.720245	-1.012348	0.798734
H	-0.414154	-0.967389	1.845507
H	-0.499267	-1.993603	0.382478
H	-1.801462	-0.848761	0.728038
N	-1.740039	0.439036	-1.766515
H	-2.426674	-0.149146	-1.283214
H	-1.910718	1.396822	-1.488543
N	-0.181145	-1.272803	-2.073273
H	0.790336	-1.421975	-2.311937
H	-0.745329	-1.324382	-2.91227
Cl	-4.230614	-0.888188	-0.016743
