17

C	-0.003055	0.030524	-0.019254
C	-0.381609	0.108339	-1.531124
Br	1.978872	-0.252296	0.094149
H	0.265073	0.890094	-1.962401
C	-0.221305	1.34481	0.578374
N	-0.394052	2.421205	1.019229
C	-0.701425	-1.08198	0.737965
H	-0.475622	-1.021769	1.803932
H	-0.372109	-2.039507	0.33823
H	-1.785147	-1.007243	0.590395
N	-1.745855	0.495129	-1.762597
H	-1.905172	1.45473	-1.483613
H	-2.430227	-0.079132	-1.261203
N	-0.180859	-1.202046	-2.125555
H	-0.707087	-1.207753	-2.990391
H	0.798871	-1.354354	-2.327428
Cl	-4.233738	-0.690538	0.097841
