19

C	-0.317867	-0.068396	-1.507042
C	0.0	0.0	0.0
Br	0.178876	1.694072	-2.287514
H	1.096262	0.0	0.0
C	0.621647	-1.090408	-2.14075
H	1.6198	-0.915889	-1.720737
H	0.289092	-2.101506	-1.881545
H	0.625362	-1.002916	-3.229692
C	-1.783857	-0.284587	-1.851439
H	-1.935931	-0.275171	-2.934181
H	-2.110647	-1.256754	-1.468304
H	-2.405956	0.496388	-1.406334
C	-0.363168	-1.295198	0.74378
H	-0.115716	-1.163411	1.799304
H	0.263527	-2.10648	0.372701
H	-1.418646	-1.577138	0.672226
C	-0.62372	1.129094	0.65942
N	-1.168757	1.997325	1.237514
F	2.614149	0.0	0.0
