17
Coordinates from ORCA-job run
  C   0.76592853898876      0.30856809862554     -0.36975584650365
  C   -0.60070132810629      0.39821467467560      0.31486515452687
  Cl  1.56904974086537      1.97459171557379     -0.22385768476528
  H   -1.11745508162368      1.26545055464434     -0.10730414072931
  N   1.51721062033469     -0.74291308170748      0.12857067298358
  H   1.49654750567990     -0.71781827485318      1.14102653366704
  H   2.44916339198374     -0.79902517974928     -0.25566614383957
  N   0.63183522056461      0.15813013320136     -1.87999232030085
  O   -0.34649578237790      0.67510249442939     -2.40653990172583
  O   1.53659867066396     -0.43574387983479     -2.45304293609369
  N   -0.32539689992449      0.52107511933349      1.74752402479813
  H   -0.07982451753888      1.47680204100349      1.97642327734190
  H   -1.15515545842803      0.27842742177063      2.27388653667933
  C   -1.42339123906885     -0.85892530512688      0.06952452947626
  H   -2.40183655442892     -0.74678390931773      0.54525435654461
  H   -1.59410280230641     -1.02417192084843     -0.99365233535940
  H   -0.92197402527757     -1.72998070181987      0.49173622329985
