17
Coordinates from ORCA-job run
  C   0.74643127053743      0.33159085498749     -0.39010428458465
  C   -0.60493773358307      0.38062689215079      0.32787428618566
  Cl  1.50000764690362      2.02127937279996     -0.27173207384257
  H   -1.16008632415849      1.22819966570702     -0.08525794277720
  N   1.54294233764369     -0.69389223196299      0.09361558542896
  H   2.46700894873312     -0.71888349383712     -0.31256011378816
  H   1.54747300677143     -0.66188977542104      1.10616788209001
  N   0.57851141372239      0.16847038424791     -1.89570059814449
  O   -0.42862913034111      0.65183447464027     -2.39948915738649
  O   1.48557634205235     -0.40128914262792     -2.48926262683910
  N   -0.29897573286061      0.52075442425409      1.75284921210652
  H   -1.10616579560451      0.25079876628647      2.30055864151267
  H   -0.08323695173947      1.48591328110017      1.97162102076115
  C   -1.39184407947245     -0.90406808008044      0.10903056133766
  H   -2.36432563008202     -0.81852617451388      0.60212065695842
  H   -1.57702028467037     -1.08536950864524     -0.94908331872348
  H   -0.85472930385193     -1.75454970908556      0.52935226970509
