17
Coordinates from ORCA-job run
  C   0.54008838493968      0.15681757555589     -0.65001988584968
  C   -0.37645963982227     -0.12567039085158      0.54377741636575
  Cl  -0.20227478961423     -0.33805848512686     -2.17316902378424
  H   0.18961187681477      0.23123321708872      1.41173636885941
  N   0.89718032791520      1.52852460720665     -0.72281156339068
  H   1.43180237917188      1.72540512149476     -1.56045428051252
  H   1.44527871838723      1.77308565177192      0.09416499577845
  N   1.79922768058480     -0.73859849592468     -0.41286466207485
  O   2.05086241450051     -1.68283029947397     -1.13865888251433
  O   2.45968479348493     -0.36423371479711      0.55405667846367
  N   -0.49613282123127     -1.56777313680025      0.68842733171309
  H   -0.82814765719150     -1.79817318160986      1.61574729686324
  H   -1.16234294081197     -1.93424786152730      0.01817284046599
  C   -1.68765549337541      0.64570075823241      0.44660256570333
  H   -2.24811080548250      0.51870416811995      1.37631591421870
  H   -1.51483310164979      1.70943161293277      0.27976798714247
  H   -2.29877932662008      0.26168285370855     -0.37279109744780
