17
Coordinates from ORCA-job run
  C   0.57171513255635      0.07695789768280     -0.59784667234051
  C   -0.38783600991889     -0.22282632404237      0.56207310374671
  Cl  -0.21882912368438     -0.26156028363193     -2.19146589768725
  H   0.25836197109812     -0.17094172889927      1.45094992152429
  N   1.13579452585339      1.36979076722584     -0.50105715141221
  H   1.86907858469722      1.47384544830891     -1.19355230793574
  H   0.43054151277843      2.07655312967578     -0.66114238130165
  N   1.78220281188442     -0.87074902499209     -0.56080771559316
  O   1.74227496279506     -1.83444189498929      0.19621030058399
  O   2.71526131246861     -0.57957559627589     -1.29746690112920
  N   -1.04776586838359     -1.50292472165223      0.39242518484428
  H   -0.40732151242031     -2.25669010657144      0.59902324768352
  H   -1.83311502455927     -1.56500441293515      1.02633963009596
  C   -1.44530039568650      0.86959609382826      0.66322906140387
  H   -2.13513437163451      0.62599965363495      1.47500915783044
  H   -1.00819061035019      1.83973630411866      0.90071104392937
  H   -2.02173789749397      0.93223479951438     -0.26163162424268
