17
Coordinates from ORCA-job run
  C   0.57191884853966      0.18397847896954     -0.62442124169615
  C   -0.38348075877256     -0.19064598547162      0.53779807554132
  Cl  -0.22815734497078     -0.01746953853839     -2.18225473163412
  H   0.21110669949484     -0.00211983476407      1.43978698662819
  N   1.18346198535794      1.47781693568689     -0.58198763284641
  H   1.50604991579113      1.68364768981903      0.35548773058592
  H   0.53981162765736      2.18880137079798     -0.89908491108605
  N   1.73282743897008     -0.81830275277605     -0.51568280955255
  O   2.44882385060469     -0.61108029304333      0.46154430812029
  O   1.84436983895179     -1.73695107084422     -1.31204472319853
  N   -0.79167212810340     -1.57896406059577      0.57592002778988
  H   -1.22886925431238     -1.85161999738036     -0.29613548998986
  H   -0.01158820227840     -2.19909949865698      0.75184341027411
  C   -1.61176308331092      0.70675620711392      0.56037531031740
  H   -2.16777377163428      0.50409832580697      1.47594760087903
  H   -2.26592669125643      0.49441084297766     -0.28732005384276
  H   -1.34813897072831      1.76574318089872      0.53922814371027
