17
Coordinates from ORCA-job run
  C   0.53832613365473      0.16711567954875     -0.64898881174458
  C   -0.37488327680451     -0.13137148253671      0.54329347364098
  Cl  -0.16918542982918     -0.38870969006067     -2.16784810913612
  H   0.16843318028096      0.26623397899854      1.40813815899200
  N   0.83621104107696      1.55143405447196     -0.74601132092561
  H   1.37015978945691      1.75494110355306     -1.58252522145427
  H   1.36526275543062      1.83552734905156      0.07075441002408
  N   1.83296161195019     -0.66828096723577     -0.38505831143062
  O   2.46930084769936     -0.24692269070418      0.57869245674674
  O   2.13010266730827     -1.61508999887476     -1.09004727494540
  N   -0.43413048235629     -1.57424053403155      0.71545000607847
  H   -0.76503048014449     -1.80035518763416      1.64425708215176
  H   -1.07802714511152     -1.98165442861411      0.04697681629112
  C   -1.71704184907760      0.58097752967796      0.42177160025520
  H   -2.30352008558303      0.15775735462123     -0.39631456829411
  H   -2.28008376672417      0.44525894688744      1.34870033994782
  H   -1.58885551122723      1.64837898288141      0.23875927380255
