17
Coordinates from ORCA-job run
  C   0.50762322997066      0.06555891122343     -0.76196934850614
  C   -0.23956153079533     -0.14052578921317      0.56392390693608
  Cl  -0.51097372241936     -0.40597022605302     -2.12446837737341
  H   0.48667371323613      0.16073977053907      1.32673774740839
  N   1.04537633114724      1.36723446161053     -1.02093975037075
  H   0.31910401556125      2.01156212627460     -1.29979884834763
  H   1.53522553027812      1.71047668547865     -0.20385667260336
  N   1.73196429530407     -0.86482008994006     -0.68923023287595
  O   1.84377889386284     -1.81186330112629     -1.44376564947139
  O   2.52528334746685     -0.52230045055866      0.18366569415919
  N   -0.46725799659975     -1.56501870313059      0.74214382339024
  H   -1.25538553268478     -1.87305742861363      0.18473707602625
  H   -0.66583875941735     -1.77184646498513      1.71230192691367
  C   -1.47577894630944      0.74628440559141      0.67742104203571
  H   -1.90946439405779      0.62945570957569      1.67333395673123
  H   -1.24076836446649      1.80478777740359      0.54072347927037
  H   -2.23100011007689      0.45930260592355     -0.05695977332248
