17
Coordinates from ORCA-job run
  C   0.52472339736605      0.23123569942860     -0.65049579024839
  C   -0.42223859308494     -0.12815758724342      0.50407590611212
  Cl  -0.15563827636593     -0.15343656547847     -2.22206289623973
  H   0.03672383226021      0.32775101685063      1.39185708058456
  N   0.88361252417690      1.60500367932670     -0.60703530724049
  H   1.38777597186616      1.80155423769089      0.24972777295983
  H   1.44355413047716      1.87075843104931     -1.40788332278607
  N   1.78712292886192     -0.66653152841219     -0.43949991368243
  O   2.30652111299731     -0.49056526683888      0.66439668083645
  O   2.19457143349864     -1.41349324840327     -1.31149019277527
  N   -0.49920190369795     -1.57569098302975      0.61229666287767
  H   -1.42851854702247     -1.87019370476464      0.87713966775277
  H   0.15678442584326     -1.92658493782413      1.29728679003861
  C   -1.79615496853255      0.48618155144107      0.29561588366479
  H   -2.36796130525144      0.42282707587616      1.22486888723206
  H   -1.71338785259687      1.53268190380682      0.00374440820349
  H   -2.33728831079546     -0.05333977347542     -0.48354231728997
