17
Coordinates from ORCA-job run
  C   0.56347491678767      0.31617028434241     -0.57834176960023
  C   -0.44129292568064     -0.19297048402368      0.46584494339678
  Cl  -0.18966732685971      0.66311601989328     -2.12517325682935
  H   0.11503358240499     -0.18480285394226      1.41347758135956
  N   1.24471506523575      1.47028843971112     -0.10761729323794
  H   1.78324872324173      1.23787989748221      0.71871231202875
  H   1.85115435775504      1.86194372508282     -0.81779931279597
  N   1.57008692947954     -0.86208906600509     -0.78651347232113
  O   2.12464539264797     -1.19383175754910      0.26334689180208
  O   1.76831869367508     -1.34903826177847     -1.88562720923329
  N   -0.87049357684310     -1.53032152070328      0.09118540049408
  H   -0.29252474846503     -2.23463503618959      0.53092437835835
  H   -1.82990361113192     -1.68932436346412      0.36558452283424
  C   -1.62622441792514      0.75015023796006      0.58766268211310
  H   -2.28288908316877      0.64474346458189     -0.27744617613018
  H   -2.19466780411132      0.50622621497393      1.48881000882031
  H   -1.29301416704221      1.78549505962785      0.65196976894085
