17
Coordinates from ORCA-job run
  C   0.66769951913384      0.34521790530778     -0.52725212871361
  C   -0.39083571526656     -0.36679946162312      0.32773679150811
  Cl  -0.09842891786417      1.22083780974459     -1.85518268465475
  H   0.19382422827070     -0.88602965659436      1.09501545771814
  N   1.57211447020076      1.23038386102097      0.14298459851789
  H   1.94246380578563      0.78435803989691      0.97334647139899
  H   1.11925063256031      2.10241019335202      0.37761711572276
  N   1.55552678679422     -0.77677369797849     -1.09496557315807
  O   2.19038511828349     -1.35716149069949     -0.21822360416407
  O   1.58380884036848     -1.00803665459822     -2.28855322912988
  N   -1.01845853750185     -1.39452940833342     -0.48658569193686
  H   -1.70391602266809     -0.98511673383736     -1.11064096107609
  H   -1.48995843901787     -2.06988476790507      0.10093861618127
  C   -1.34311612863991      0.61242459038074      1.00754959046353
  H   -2.01063183794024      0.05895749809022      1.67215314138209
  H   -0.81396446263868      1.35296078488541      1.61252512183580
  H   -1.95576333986009      1.13678118889092      0.27153696810476
