17
Coordinates from ORCA-job run
  C   0.61043534582641      0.62393851542679     -0.35262193114850
  C   -0.60209317338085      0.30317466077760      0.56572330316351
  Cl  0.31121463358044      2.09360422762178     -1.28079608369227
  H   -0.82322940169313      1.26794588374042      1.03304686683759
  N   1.80038797417362      0.78063921064149      0.40435486301782
  H   2.54404675317581      1.16735932548436     -0.16447257314411
  H   2.08980204376387     -0.12175542339946      0.76035491734782
  N   0.72421925934785     -0.56122659995011     -1.35351093530258
  O   1.23664048493957     -1.56701532509294     -0.85616582726278
  O   0.24850642074747     -0.48315621055058     -2.47542037524029
  N   -0.31757521425203     -0.63203257363522      1.63160555042938
  H   -0.02707563014157     -1.53214102651790      1.26982798955650
  H   0.38936238343276     -0.27235258744304      2.25889618286834
  C   -1.81435689079178     -0.17032291694060     -0.22130987429245
  H   -2.04410318614601      0.48716983921318     -1.05991640444778
  H   -1.65483711834700     -1.17973765166475     -0.61098703050162
  H   -2.67034468423542     -0.20609134771103      0.45239136181142
