17
Coordinates from ORCA-job run
  C   0.79047295864652      0.46434766235342     -0.29548537575626
  C   -0.58255644856096      0.49546759796445      0.38121466573705
  Cl  1.60645078631102      2.02630268642766     -0.18067303606804
  H   -1.12820110115663      1.33150482903422     -0.06334081341799
  N   1.62186620683775     -0.54709380840609      0.24182860268834
  H   2.58377244024834     -0.41505948198237     -0.04413368004816
  H   1.31862630847564     -1.45658358171373     -0.08494266546757
  N   0.51124822579850      0.25210391600835     -1.81918641543733
  O   -0.21154194856042      1.07077577918925     -2.36958298545975
  O   0.99145378585850     -0.75360922727805     -2.33427388645665
  N   -0.36559936877940      0.79419160085383      1.78466692487729
  H   0.14734591496111      0.03595046856236      2.21806607275641
  H   -1.25488751679844      0.90139566536435      2.25549319254824
  C   -1.34884972412505     -0.80429104057170      0.11372188252906
  H   -1.50036314650681     -1.00673919544771     -0.94964609910945
  H   -2.33653597730448     -0.72905855545180      0.57441521757571
  H   -0.84270139534516     -1.65860531490642      0.57185839850911
