17
Coordinates from ORCA-job run
  C   0.46813028647453      0.12491567009089     -0.77850764721327
  C   -0.26812515479942     -0.12929177732626      0.54989793405153
  Cl  -0.60294591626482     -0.04640344258244     -2.15750962576589
  H   0.45890211909815      0.16205077783236      1.32129267735207
  N   1.17615007372964      1.36657169021693     -0.87590819804482
  H   1.55086650969440      1.64203101473814      0.02289019241324
  H   0.59750950194189      2.09555934559118     -1.26549412874509
  N   1.56704929386788     -0.95833746505629     -0.85531622569632
  O   2.30815647229345     -0.94293589936094      0.12748966815678
  O   1.65956924963441     -1.69828126526371     -1.81697254004212
  N   -0.62696949680412     -1.53467854823695      0.63263511458334
  H   0.11560722823370     -2.07103845437883      1.06260662646500
  H   -1.46803721020193     -1.66278686089623      1.17838203867374
  C   -1.50005628026781      0.75010196946279      0.68265139470218
  H   -2.28995114985926      0.40016415440775      0.01670504568425
  H   -1.27890633110564      1.79151444440057      0.44385460789366
  H   -1.86694919566505      0.71184464636101      1.71130306553173
