17
Coordinates from ORCA-job run
  C   0.73327396249091      0.29564113903201     -0.43977261523742
  C   -0.57243279872406      0.40866606109813      0.35140991676224
  Cl  1.54747411285649      1.96159094764760     -0.40762446340694
  H   -1.12160764249954      1.26492105102903     -0.05182314197267
  N   1.52206502172340     -0.74428486063913      0.02498970277855
  H   1.58305075657744     -0.69049441365205      1.03478403361644
  H   2.42085487555518     -0.81041723472827     -0.43021078137220
  N   0.47522811068780      0.10243128423943     -1.92901120973886
  O   -0.54392385593262      0.60493541989759     -2.38801296586739
  O   1.33008283643904     -0.50887003280000     -2.55769646105524
  N   -0.18038866749637      0.57161960899292      1.75259143217462
  H   0.08424105142503      1.53272251064615      1.93272333801458
  H   -0.96485486566514      0.34765367575296      2.35163252669997
  C   -1.41312168366995     -0.85266858124050      0.21051105007957
  H   -1.67175180492769     -1.04669836702076     -0.82983453644295
  H   -2.34854202539070     -0.72473427720753      0.76262101661026
  H   -0.87864738344920     -1.71301393104769      0.61372315835744
