17
Coordinates from ORCA-job run
  C   0.70403072103639      0.18550341719657     -0.27041859509395
  C   -0.59094239663489     -0.41121210531569      0.32207152541571
  Cl  0.37392661615402      0.80062812242161     -1.96665905300790
  H   -0.24731732465678     -0.96929368569371      1.19895256686133
  N   1.30876161936839      1.13189611085338      0.57186945837556
  H   0.71741447562571      1.94015001858405      0.70404895570608
  H   2.21022322253905      1.41638399405178      0.20688647096530
  N   1.77665917586425     -0.89290658082255     -0.48214905894374
  O   1.44344907454902     -2.06835428974225     -0.38041903790044
  O   2.90360432901052     -0.48759321267051     -0.73594120343493
  N   -1.33737238547892     -1.32358894203917     -0.51440683859568
  H   -1.68785406828808     -0.84731469561425     -1.33575107127334
  H   -0.75318294719327     -2.09336026188347     -0.80902429047788
  C   -1.51879247000887      0.70693514429260      0.78552286830749
  H   -1.09905934484028      1.27679393037824      1.61536379068955
  H   -1.75895465716754      1.38812891437917     -0.03576953779101
  H   -2.44659363987875      0.24720412162418      1.12582305019789
