17
Coordinates from ORCA-job run
  C   0.76713040268626      0.44668225374987     -0.38683307616795
  C   -0.63452109906159      0.45750521576492      0.28808105710760
  Cl  1.41996104116161      2.10437299572704     -0.34240589385420
  H   -1.20127480271055      1.25108667016705     -0.20714499461914
  N   1.75836323485892     -0.43544342800007      0.11870360710732
  H   1.52469056614888     -1.40240241584399     -0.05930423942414
  H   1.92306159942091     -0.26243871348379      1.10025877873603
  N   0.51579538985357      0.07723730004067     -1.84750056608617
  O   0.86145457186973     -1.04627784704431     -2.20092909819494
  O   -0.11343955009873      0.88531456531002     -2.51769468141424
  N   -0.58780318736327      0.75959631771819      1.70276818616221
  H   -0.10717984880602      1.63082313672477      1.88666512779172
  H   -0.14711788632367      0.01372292854266      2.22675310691703
  C   -1.35082662356205     -0.87019184652296      0.08591872468006
  H   -0.77380047439746     -1.70143670000306      0.50258244543536
  H   -2.30357441815576     -0.82546561884632      0.61410307964721
  H   -1.54891891552080     -1.08268481400072     -0.96502156382379
