15
Coordinates from ORCA-job run
  C   -0.61592212082679      0.18411769974622     -0.20451376334517
  C   0.47005677783467     -0.58210887491117      0.52901840003092
  Br  -1.74702355962264      1.20081278748219      1.02290940866667
  H   0.93524934800767     -1.24571468700075     -0.21323483935746
  H   -0.00684531624409     -1.22595833333313      1.26766270340914
  N   -0.10339328071917      1.05523054098182     -1.17938511048976
  H   -0.83955090711027      1.49144564581975     -1.71940388770812
  H   0.52167073839236      0.55956218384931     -1.80484682591650
  N   -1.60101080137789     -0.87645963244444     -0.80910546619081
  O   -1.94059791693969     -0.69961195380834     -1.97474002467754
  O   -1.94776421109632     -1.80127286808040     -0.08747253879152
  C   1.51966426936795      0.31782019062706      1.16775080597762
  H   2.00695094779455      0.95116486646861      0.42674773458657
  H   1.06932515040316      0.96512508360169      1.92118895301012
  H   2.28019088213650     -0.29415264899840      1.65742445079586
