15
Coordinates from ORCA-job run
  C   -0.61357071974938      0.18687973909932     -0.20883608320909
  C   0.46419225385871     -0.58086894086431      0.53512303266989
  Br  -1.74145969927038      1.22145364345995      1.00609791553517
  H   -0.02003543420573     -1.21714696998406      1.27557349319727
  H   0.92923279866229     -1.25187955711540     -0.20056684085685
  N   -0.09067222372278      1.04670989392072     -1.18894242604997
  H   0.53119298113676      0.53950600043611     -1.80848625847325
  H   -0.82270493567593      1.48220722935154     -1.73530421907895
  N   -1.60345717581270     -0.87090052129706     -0.80893386512565
  O   -1.95949766946089     -1.78818853739105     -0.08212500130523
  O   -1.93870972464592     -0.69958952725405     -1.97677699475657
  C   1.51632260148665      0.31661181114458      1.17322718985349
  H   2.27440132344714     -0.29726608968008      1.66429525590505
  H   2.00601474960944      0.94692621195018      0.43122010802723
  H   1.06775087434273      0.96654561422360      1.92543469366746
