15
Coordinates from ORCA-job run
  C   -0.61869452198718      0.01120838641026     -0.24642788799724
  C   0.54380595200548     -0.59572862672070      0.51149141224957
  Br  -1.88588329899551      0.86280669678852      1.09515112273464
  H   0.14846674151635     -1.21413522916272      1.31586692745476
  H   1.05170260464876     -1.26042119257997     -0.19482430817712
  N   -0.23301097404041      0.85772849521599     -1.28552638677629
  H   -1.02277525398344      1.16626714535139     -1.83794754159237
  H   0.30615600106421      1.64441649352283     -0.95286372485117
  N   -1.49739256466081     -1.07981427687206     -0.86190987162704
  O   -2.19715783819245     -0.74542976462634     -1.81021297501232
  O   -1.44897594095937     -2.19158000140784     -0.35306162119055
  C   1.51947051061702      0.44558844878089      1.04772373572675
  H   2.04330822970782      0.96198402808862      0.24024672405442
  H   1.01287169863971      1.18231387377912      1.67368594326276
  H   2.27910865461977     -0.04520447656799      1.65860845174120
