15
Coordinates from ORCA-job run
  C   -0.58852538467082      0.03287112764519     -0.30802543565342
  C   0.43424445617325     -0.57325097164831      0.63043126705745
  Br  -1.88916943338660      1.14259534283417      0.78885685171254
  H   0.94002553175929     -1.35889763445644      0.05985980877726
  H   -0.09142115197476     -1.05361648300279      1.45426144265469
  N   -0.02711602901925      0.71325215840091     -1.38951647657096
  H   0.53582459637154      1.49726775083855     -1.09122317093988
  H   -0.73003392975832      1.00643375984950     -2.05624235058274
  N   -1.50383831256130     -1.04771871414671     -0.88766880722530
  O   -2.07721426973974     -0.77263391899260     -1.93480755767717
  O   -1.61095302427638     -2.08948683737655     -0.25480737939886
  C   1.45094586685247      0.44048337765125      1.14274647547453
  H   2.10284113423295     -0.03434186571923      1.87805141710252
  H   0.96143276396852      1.28657974091138      1.62834034770577
  H   2.09095718602912      0.81046316721172      0.33874356756353
