15
Coordinates from ORCA-job run
  C   -0.71673592487283      0.31845615078535     -0.18606812260206
  C   0.61043168002258      0.52670459858601      0.53017734468980
  Br  -2.15885978843066     -0.05156918024296      1.05361496257382
  H   1.31918067321961      0.87333074312054     -0.23099504528574
  H   0.45057415821921      1.35179072919927      1.22791735485871
  N   -1.06379322219355      1.45196042536555     -0.95702805615431
  H   -1.96477553871446      1.34394998360175     -1.40608381621796
  H   -0.35065359758867      1.62545990991480     -1.65521943380969
  N   -0.50743716950295     -0.95131901229070     -1.07713449214674
  O   0.14321302865032     -0.71636974197763     -2.09464392765460
  O   -0.89550425175038     -2.04914568678576     -0.70901539825086
  C   1.16911340992006     -0.70041355822249      1.23802098339303
  H   1.45125336102996     -1.48212415428813      0.53048145160007
  H   0.44720448817419     -1.11933021321266      1.94019197711528
  H   2.06478869381758     -0.42238099355292      1.79678421789123
