15
Coordinates from ORCA-job run
  C   -0.84375260530968      0.29192765215813     -0.24017642596654
  C   0.06870951253461      0.27195860967280      0.98605440821850
  Br  -2.62309259696188      0.87924210711599      0.32022118396591
  H   -0.41668120416107     -0.31170784054977      1.77078499905354
  H   0.14055914818257      1.30434186597964      1.34188978306224
  N   -0.45496031279942      1.06873604741459     -1.36399757785080
  H   -0.25135475461491      2.01982434201348     -1.08818325914711
  H   0.32296509980014      0.64900625251309     -1.85457887552666
  N   -0.95113900114370     -1.16808798629604     -0.69951861667043
  O   -1.48039465273987     -1.95366985875740      0.07337125635814
  O   -0.40258876762815     -1.45435523846981     -1.75965703555610
  C   1.45292998571952     -0.29147043599653      0.67807904478979
  H   1.94677805485903      0.25973835060164     -0.12473101506488
  H   2.08455969755188     -0.21832999191670      1.56542779729869
  H   1.40646239671093     -1.34515387548307      0.39501433303566
