15
Coordinates from ORCA-job run
  C   -0.72618696584666      0.30755600094255     -0.23896973370873
  C   0.71695057324376      0.46882694101982      0.23934593226282
  Br  -1.96503021545317      0.65261432266599      1.20934962800536
  H   1.33849650958970      0.40530928216734     -0.66082613849043
  H   0.80672628398357      1.48706351439300      0.62921155660646
  N   -1.13031128514401      1.10381480910158     -1.36093088474875
  H   -0.46637144559664      0.98056322638788     -2.11690937483390
  H   -1.17632833142456      2.07918650216474     -1.09641370652782
  N   -0.85071107117386     -1.15045408039603     -0.70121042701443
  O   -1.40909166610002     -1.98137833250351     -0.00345196894080
  O   -0.25732343537430     -1.36670284954963     -1.75604243583116
  C   1.18345620216890     -0.55318019272495      1.26860987326094
  H   0.53663765132379     -0.55964103184010      2.14662281868756
  H   1.20132054690616     -1.56083849964441      0.84856947039299
  H   2.19776664889731     -0.31373961218429      1.59404539087989
