19

C	-0.574906	0.036384	-1.423216
C	0.0	0.0	0.0
Br	0.283878	1.467974	-2.442724
H	1.094582	0.0	0.0
N	-0.202675	-1.278355	-2.100707
O	-1.105598	-2.116256	-2.187597
O	0.958249	-1.451542	-2.438507
C	-2.073081	0.241239	-1.49197
H	-2.304072	1.201605	-1.036385
H	-2.587353	-0.54767	-0.943976
H	-2.41182	0.222666	-2.52858
C	-0.460364	-1.237211	0.760759
H	0.031007	-1.229474	1.736971
H	-0.154139	-2.15819	0.264216
H	-1.542386	-1.248736	0.913334
N	-0.491983	1.203861	0.700012
H	-0.282954	1.063968	1.685625
H	0.107212	1.971698	0.410511
Cl	3.479559	0.0	0.0
