19

C	-0.517229	0.026931	-1.463643
C	0.0	0.0	0.0
Br	0.378988	1.447518	-2.457853
H	1.093393	0.0	0.0
N	-0.132359	-1.294607	-2.11563
O	-1.035555	-2.131813	-2.206156
O	1.035108	-1.474456	-2.425393
C	-2.013959	0.227027	-1.613724
H	-2.56226	-0.515156	-1.033845
H	-2.280407	1.228933	-1.278885
H	-2.304645	0.13085	-2.660024
C	-0.462651	-1.257821	0.729405
H	-0.04347	-1.203271	1.734237
H	-1.553101	-1.321453	0.811566
H	-0.091568	-2.168155	0.257092
N	-0.396401	1.174134	0.761018
H	0.148232	1.973465	0.463895
H	-1.382172	1.383054	0.665837
Cl	3.476007	0.0	0.0
