19

C	-0.381569	0.019341	-1.487794
C	0.0	0.0	0.0
Br	-0.327606	-1.762523	-2.309767
H	1.096228	0.0	0.0
N	-1.835358	0.454392	-1.657385
O	-2.64055	0.096715	-0.800142
O	-2.125695	1.11613	-2.649998
C	0.527653	0.94145	-2.266689
H	0.287366	0.938674	-3.328051
H	0.40571	1.947387	-1.862648
H	1.557024	0.619008	-2.096501
C	-0.457312	-1.173134	0.856906
H	-0.081987	-0.999036	1.869223
H	-1.54443	-1.261132	0.88619
H	-0.027757	-2.112586	0.508707
N	-0.416835	1.312396	0.511065
H	-1.27694	1.220332	1.038527
H	0.309555	1.659912	1.125211
Cl	3.445448	0.0	0.0
