19

C	-0.352738	-0.096319	-1.483487
C	0.0	0.0	0.0
Br	-2.281131	-0.365653	-1.761235
H	1.096893	0.0	0.0
N	-0.011004	1.209752	-2.215235
O	0.614678	2.066135	-1.599759
O	-0.32747	1.283119	-3.398708
C	0.435784	-1.173438	-2.204132
H	1.498916	-1.008945	-1.990519
H	0.148426	-2.159593	-1.842273
H	0.243938	-1.122699	-3.275616
C	-0.431221	-1.245992	0.764337
H	0.037523	-1.210883	1.75044
H	-1.516542	-1.273794	0.883828
H	-0.100068	-2.167351	0.287785
N	-0.603	1.172545	0.629346
H	0.051773	1.94159	0.554637
H	-0.728538	0.974506	1.615866
Cl	3.45801	0.0	0.0
