15

C	-0.287335	0.043749	-1.505332
C	0.0	0.0	0.0
Cl	-2.006698	0.646743	-1.827664
H	1.091874	0.0	0.0
N	0.664581	0.866271	-2.157165
H	0.802935	0.573097	-3.115088
H	1.549933	0.817244	-1.63094
C	-0.295136	-1.334893	-2.029064
N	-0.246074	-2.391933	-2.543424
C	-0.563933	-1.149588	0.664271
N	-0.933402	-2.130596	1.198709
N	-0.359567	1.242406	0.70187
O	0.011728	2.291714	0.178899
O	-0.911218	1.149023	1.803478
H	2.459753	0.0	0.0
