15

C	-0.270313	0.073707	-1.510123
C	0.0	0.0	0.0
Cl	-1.966821	0.752142	-1.838512
H	1.094347	0.0	0.0
N	0.720604	0.865797	-2.134315
H	0.862157	0.596796	-3.098145
H	1.594393	0.792848	-1.591075
C	-0.333738	-1.293107	-2.0581
N	-0.322332	-2.345092	-2.585085
C	-0.579196	-1.154071	0.640503
N	-0.970922	-2.145795	1.138213
N	-0.359999	1.236389	0.712946
O	-0.969735	1.137123	1.78328
O	0.058134	2.285788	0.22761
H	2.464729	0.0	0.0
