15

C	-0.233503	0.062017	-1.52336
C	0.0	0.0	0.0
Cl	-1.954881	0.495028	-1.896228
H	1.093049	0.0	0.0
N	0.64545	0.960067	-2.226737
H	1.582966	0.730123	-1.869927
H	0.439408	1.886005	-1.866842
C	-0.017751	-1.291719	-2.061881
N	0.19879	-2.335357	-2.55539
C	-0.551708	-1.165616	0.640623
N	-0.946467	-2.145763	1.156209
N	-0.361704	1.209342	0.722471
O	-0.24824	2.291506	0.127383
O	-0.620389	1.102809	1.927554
H	2.414672	0.0	0.0
