15

C	-0.273126	0.162557	-1.501373
C	0.0	0.0	0.0
Cl	-1.967683	0.855284	-1.790367
H	1.094494	0.0	0.0
N	0.717147	0.992131	-2.079968
H	0.850559	0.78143	-3.059552
H	1.592178	0.873005	-1.548844
C	-0.331479	-1.171769	-2.127528
N	-0.313567	-2.189828	-2.71783
C	-0.570486	-1.194037	0.570727
N	-0.944768	-2.214416	1.020461
N	-0.356935	1.187407	0.792597
O	0.016387	2.271407	0.348019
O	-0.916699	1.014176	1.880763
H	2.46026	0.0	0.0
