15

C	-0.407071	0.016215	-1.469286
C	0.0	0.0	0.0
Cl	-2.190392	0.465431	-1.641372
H	1.096412	0.0	0.0
N	0.395542	0.922426	-2.208861
H	0.395777	0.689234	-3.193148
H	1.341647	0.916794	-1.820288
C	-0.336802	-1.362996	-1.992073
N	-0.235578	-2.416686	-2.505516
C	-0.514339	-1.156981	0.698064
N	-0.859934	-2.144063	1.236886
N	-0.344976	1.231079	0.729674
O	-0.755471	1.115414	1.889018
O	-0.084645	2.296499	0.173077
H	2.45077	0.0	0.0
