14
Coordinates from ORCA-job run
  C   1.05231387936427     -0.10969599911173     -0.16688927659453
  C   -0.40715378061051     -0.53523132477089     -0.30753396620463
  Cl  2.02724750836150     -1.61857356412261      0.16624065747592
  H   -0.47781794434110     -1.43795233161236     -0.91385256581310
  H   1.42180297337549      0.25316045356948     -1.12302486299190
  N   1.16293955180052      0.89421723337667      0.82542841540646
  H   1.01458006901589      0.49931604323004      1.74640324176944
  H   2.06764175900841      1.34444145512584      0.80246454959342
  N   -1.07226201292355      0.55153316091621     -1.18145562843557
  O   -0.63029822187364      0.66794198578367     -2.32033007677313
  O   -1.98203255260201      1.20921612503885     -0.68953267758380
  N   -1.03409779669616     -0.69774710351620      0.94854883794586
  H   -1.88899619029442     -1.22998009672053      0.87104898151290
  H   -1.25686724158470      0.20835396281355      1.34148437069265
