14
Coordinates from ORCA-job run
  C   0.74908907244640      0.42095204437396      0.47150680306081
  C   -0.34975339530716     -0.03280433649667     -0.48418162934080
  Cl  1.12764330958120      2.16307775905441      0.00725873430951
  H   -0.13574150182751      0.27799673550243     -1.50744977365605
  H   0.34606604105734      0.50762738396281      1.47957983808704
  N   1.84822616477500     -0.45817417115387      0.46090292114077
  H   2.20182356244835     -0.63394643151442     -0.46989603275257
  H   2.59395097820786     -0.13498141340109      1.06174646445538
  N   -1.60761423352735      0.76363618571371     -0.12598546738145
  O   -2.00177826869304      0.67437887687434      1.03497450115883
  O   -2.17077028462490      1.36330304136254     -1.03749530608654
  N   -0.56336561777878     -1.43473591322147     -0.42021830098423
  H   -0.69751474313430     -1.75343400556640      0.53016256376338
  H   -1.34026108362310     -1.72289575549028     -1.00090531577409
