14
Coordinates from ORCA-job run
  C   0.73140044105812      0.29833383862676      0.52369435415654
  C   -0.45565173886848      0.06358118583339     -0.39766715775760
  Cl  1.21073591652926      2.04502828494749      0.36545293858063
  H   -0.23579745666938      0.42790332342642     -1.40804026772740
  H   0.40126896419700      0.17464286900238      1.55323998568780
  N   1.77214966467355     -0.62354478798526      0.22132712355612
  H   2.49033538499851     -0.61079584324353      0.93318745152561
  H   2.20043265060880     -0.41233674179913     -0.67242371978240
  N   -1.61054461737364      0.93737648594450      0.04919185897850
  O   -2.29498460786954      1.41935563020270     -0.85101601555044
  O   -1.81341629932523      1.04783998096035      1.25160288355416
  N   -0.89244145818885     -1.29534918858329     -0.29224927859203
  H   -0.08740755830349     -1.89489212818215     -0.16592142115474
  H   -1.41407928546667     -1.57914290915063     -1.11037873547477
