14
Coordinates from ORCA-job run
  C   1.04008233780269     -0.22690144133824     -0.23529109449227
  C   -0.46970978063684     -0.43179752150509     -0.29966080126310
  Cl  1.71048451670974     -1.84458560679452      0.38529918829612
  H   -0.69964901408026     -1.28463871017739     -0.94756158035946
  H   1.46405895756753     -0.13729243003536     -1.23197595353145
  N   1.32429926825369      0.89022402262066      0.55546895317255
  H   0.88607767813019      0.81142163823961      1.46442489706930
  H   2.31019784718362      1.09355119404338      0.62801412250245
  N   -1.03163559343639      0.76274448653839     -1.04266315440346
  O   -0.56950736304253      0.94524889805854     -2.16290196708214
  O   -1.91597452313016      1.42488925236946     -0.51179764635030
  N   -1.02611244187234     -0.48292366975817      1.02646724863285
  H   -1.06976224822713     -1.44187638404852      1.34312124434872
  H   -1.95284964122180     -0.07706372821278      1.02905654346017
