14
Coordinates from ORCA-job run
  C   0.83805519543089      0.41515390690801      0.50135244931306
  C   -0.37814137063932      0.12036983602243     -0.37143577859933
  Cl  1.36078948085457      2.08777034034017      0.11496707047309
  H   -0.17641113825195      0.39421902574859     -1.41403071501284
  H   0.51740862628149      0.41279041424429      1.54168668213972
  N   1.93260840843350     -0.48676474097543      0.33831997457151
  H   2.17430163668666     -0.66996845091402     -0.62546243288758
  H   1.81733289432320     -1.33527561890498      0.87196392705690
  N   -1.53677075334290      1.00117238839153      0.02210364146015
  O   -1.66871403965615      1.28971268796962      1.20544830697142
  O   -2.30837708665808      1.30026442644986     -0.88792834136973
  N   -0.83018147437984     -1.23336580302411     -0.14715077344004
  H   -0.10066492658213     -1.87638190500484     -0.42634873066373
  H   -1.64323545249996     -1.42169650725110     -0.72348528001259
