14
Coordinates from ORCA-job run
  C   0.80217714026564      0.42623514100441      0.55214216087045
  C   -0.30969296188764      0.01177664515780     -0.41950126206961
  Cl  1.09892790295166      2.17130747676403      0.37382916035721
  H   -0.02349702775965      0.23932936116812     -1.44700967897950
  H   0.44028511676901      0.26775792681382      1.57123362197948
  N   2.03458898936504     -0.28831506612034      0.36351565635198
  H   1.83234018567237     -1.28167933500605      0.39123566188659
  H   2.42381301922770     -0.06936061298402     -0.54694822408728
  N   -1.53778657921363      0.86033757651093     -0.15134578974244
  O   -2.04827770783297      0.71858583765302      0.95964877584474
  O   -1.93337368842528      1.60639223506366     -1.04165755107991
  N   -0.57771770589284     -1.38133637817708     -0.25073936715157
  H   -1.16613172680412     -1.73924537862950     -0.99208898503358
  H   -1.03565495643530     -1.54078542921878      0.63968582085344
