14
Coordinates from ORCA-job run
  C   0.95728914083388     -0.20341707491678      0.31993587987795
  C   -0.38342985628931     -0.40716969349722     -0.38052136694130
  Cl  0.57991683411344      0.37393741692385      2.04167519021396
  H   -0.18037619815836     -0.56154404953848     -1.44298784249211
  H   1.37723964122779     -1.19536629898152      0.47667002118602
  N   1.85670896725698      0.60323900883303     -0.39722319106969
  H   2.75950886237505      0.65107078075033      0.05397299672519
  H   1.48963940081403      1.52978569818511     -0.56632537671711
  N   -1.17425165422716      0.91888801392100     -0.34993454061041
  O   -0.62520179288365      1.89864628282439     -0.84969910483906
  O   -2.29397775722137      0.90283630268839      0.14425221503162
  N   -1.09227618271952     -1.49981247064567      0.16397552489898
  H   -1.32678125480044     -1.33169752517071      1.13413228447288
  H   -1.94500815032137     -1.67839639137570     -0.34792268973691
