14
Coordinates from ORCA-job run
  C   0.95262352726980     -0.19886258849202      0.33774914358452
  C   -0.38036546907744     -0.41634962242133     -0.37380613647820
  Cl  0.55771842057452      0.42780500253050      2.03776269506477
  H   -0.16413022798196     -0.59993502512170     -1.42896080015218
  H   1.36571415041337     -1.18802127974636      0.52698690016814
  N   1.86405297896027      0.58386119350321     -0.39099829329262
  H   2.75975082474298      0.64626882135481      0.07246772049787
  H   1.50028157140917      1.50474067718013     -0.59487165214971
  N   -1.16547685548763      0.91323943706202     -0.38902469268544
  O   -2.28783099567090      0.91777323825244      0.09929196090419
  O   -0.60861498942897      1.87465207105349     -0.91528048701545
  N   -1.10051894281326     -1.49066619993322      0.19160550568212
  H   -1.34719571006053     -1.29435507682564      1.15341660225779
  H   -1.94700828284942     -1.68115064839631     -0.32633846638580
