14
Coordinates from ORCA-job run
  C   0.89119505999243     -0.23756281208724      0.35543697701663
  C   -0.43582996809913     -0.35822597644114     -0.39703209684675
  Cl  0.61622045631665     -0.14995181154153      2.16966988286254
  H   -0.18544087984279     -0.66264436135892     -1.41452870007890
  H   1.39385070243355     -1.19777891569440      0.22904582177080
  N   1.69969865573843      0.79218523930302     -0.17629704619340
  H   2.65603486049897      0.71535384646739      0.14116220180237
  H   1.33506811827160      1.70390567030155      0.06870106510267
  N   -1.06401188526754      1.01400614272836     -0.60468838635484
  O   -1.73629065989416      1.14456589902660     -1.61983562354475
  O   -0.90040458024495      1.86769462220340      0.26585317479717
  N   -1.43019365659897     -1.21427229937283      0.14691858984428
  H   -1.47823149904964     -2.10851133417165     -0.31248852997202
  H   -1.36166472425446     -1.30876390936262      1.14908266979424
