14
Coordinates from ORCA-job run
  C   0.87412474599743      0.49797326545851      0.34329154288719
  C   -0.35047833841803     -0.07777151686185     -0.37864697661007
  Cl  1.23185551119244      2.10706530153538     -0.32600025274296
  H   -0.16141809999043     -0.15352043437596     -1.45012264502139
  H   0.61280154628878      0.64188295015048      1.39480573072697
  N   2.04582870223527     -0.32854754680201      0.24859763481879
  H   2.34840995418735     -0.38797819688110     -0.71747914895113
  H   1.80161874792833     -1.26156163668989      0.56213935320133
  N   -1.50312775141305      0.89932850995190     -0.24535153243853
  O   -1.90644400072682      1.08936849718831      0.90197431917905
  O   -1.95246659474880      1.41025832158075     -1.26633489544165
  N   -0.66422447291126     -1.35216825885212      0.18524807625242
  H   -1.34347914586958     -1.85021960008705     -0.37553757842098
  H   -1.03300080375159     -1.23510965531535      1.12241637256101
