14
Coordinates from ORCA-job run
  C   0.92356476317663     -0.11659933450765      0.51070619153695
  C   -0.31695902412617     -0.44756782670934     -0.31792714822172
  Cl  0.40872865814210      0.25088674390587      2.22887078768507
  H   0.02327393485195     -0.72989754122150     -1.31716839529079
  H   1.46530628241896     -1.05923627591565      0.61591257148067
  N   1.67742548800694      0.94474094447011     -0.02916996712993
  H   2.67040408370077      0.86533882245498      0.10657105624150
  H   1.41283530819028      1.25555307035871     -0.94911756447797
  N   -1.10422758701602      0.84818589297280     -0.56837363768036
  O   -2.07774582048292      1.06961764636186      0.14099353810616
  O   -0.69549002789111      1.56682494661265     -1.48129313787946
  N   -1.08508925274202     -1.48216421336409      0.25730723844959
  H   -1.84225378888860     -1.76259912623106     -0.35082056418500
  H   -1.46077301734078     -1.20108374918768      1.15350903136529
