14
Coordinates from ORCA-job run
  C   0.76572966198056      0.43393305297502      0.42828955908602
  C   -0.35604772373221     -0.06892671917341     -0.47489398255211
  Cl  1.17899365109509      2.12274978311047     -0.17982800788605
  H   -0.14045778739184      0.13948275581728     -1.52359706694999
  H   0.37828995177031      0.60989719239548      1.43091637760049
  N   1.84470167370167     -0.46893410065468      0.47602709197223
  H   2.60070053334222     -0.11837648658248      1.04811445856626
  H   2.19005572615788     -0.71546883404371     -0.44181713819713
  N   -1.58334825607090      0.79779130737590     -0.18295048271073
  O   -1.97178699200014      0.82286023866058      0.98322183743994
  O   -2.13187597160419      1.33766663770609     -1.13954767268443
  N   -0.61392454089960     -1.45126346110700     -0.28159389100424
  H   -1.40073726748008     -1.76614486274406     -0.83434561489589
  H   -0.75829265886877     -1.67526650373546      0.69400453221565
