14
Coordinates from ORCA-job run
  C   0.87149065308516     -0.18626892790585      0.46867968452425
  C   -0.43092680484720     -0.30838148666213     -0.36489671470122
  Cl  0.41416457289419      0.23116505706968      2.15826909550108
  H   -0.12632249352388     -0.48027670984383     -1.40020189269023
  H   1.28341573709457     -1.19730747856003      0.51813362781943
  N   1.88600516689707      0.69979516678522      0.00016897464732
  H   2.40752059985164      0.27974795309124     -0.75761635866885
  H   1.49530642650221      1.58153933932861     -0.30630474735766
  N   -1.10863872337822      1.03989476954261     -0.38221679932902
  O   -0.57114253462233      1.90342400854239     -1.07965613784638
  O   -2.10003201833008      1.19612368535597      0.31635904371069
  N   -1.38012102777152     -1.29493290959876      0.02840046843609
  H   -1.58077012169858     -1.24428836648530      1.01819360090106
  H   -1.05994943215301     -2.22123410065980     -0.21731184494656
