14
Coordinates from ORCA-job run
  C   0.95104068486192     -0.15991549552808      0.47398410599873
  C   -0.33867176434792     -0.37693735528744     -0.33821461513911
  Cl  0.45420606641074      0.30241923770532      2.15047649070681
  H   -0.05253658131003     -0.50675794507085     -1.38525958922564
  H   1.40107153196243     -1.14871017597046      0.56724603556361
  N   1.91335240887901      0.75660410746740     -0.02882623207002
  H   1.48158087385974      1.58059852654721     -0.42321306438449
  H   2.52611269417216      0.31546113040131     -0.69936370072986
  N   -1.14698521655850      0.93230704436032     -0.34944844128246
  O   -0.61979335005117      1.89492432058853     -0.90661009334134
  O   -2.24788992490136      0.93184211704293      0.18652378404757
  N   -1.06841557123562     -1.49381098315010      0.12428689908472
  H   -1.87962772201489     -1.67309153887663     -0.45167697970937
  H   -1.37344412972649     -1.35493299022946      1.07909540048085
