14
Coordinates from ORCA-job run
  C   0.96136387122348     -0.14159611955590      0.48975794301161
  C   -0.38364648840697     -0.31109205651977     -0.25487938486562
  Cl  0.61490073327938      0.51350999607057      2.11524052184647
  H   -0.15593918156387     -0.43053435697574     -1.32358940095267
  H   1.32234661681965     -1.15964886291984      0.65399557410602
  N   1.99288426827481      0.62846792993373     -0.13402129822221
  H   1.63828295880594      1.53659507390400     -0.40428834332307
  H   2.35012547617354      0.14880795483455     -0.95089422590196
  N   -1.15555044470511      0.98746635607113     -0.21589184397791
  O   -2.29946967464016      0.98433095296245      0.22196263522466
  O   -0.56070836604791      1.97040920620214     -0.64971441039120
  N   -1.16228440162197     -1.36668805848528      0.32609049902758
  H   -2.14617738989524     -1.13196181100777      0.31035269376244
  H   -1.01612797769554     -2.22806620451429     -0.18212095934415
