14
Coordinates from ORCA-job run
  C   0.86017471885267      0.44287025470226      0.42879679123620
  C   -0.38838034722904      0.08831547837425     -0.37317237762731
  Cl  1.41141444268910      2.04863754877549     -0.15443433807490
  H   -0.20861685696144      0.23749766678638     -1.44475165959048
  H   0.57162457051099      0.56419882596227      1.47141465945494
  N   1.92617477624277     -0.50163309598522      0.33636999878663
  H   2.12607714465552     -0.80888934074499     -0.60495049460949
  H   1.82216590997162     -1.27245711476833      0.97863753391616
  N   -1.51156438318086      1.04259704381799     -0.05287163864273
  O   -2.30172497646469      1.25733627090547     -0.97068361980299
  O   -1.59400644916771      1.47848931349815      1.08898573030638
  N   -0.87248518480949     -1.21613531745318      0.01251053552111
  H   -0.15536746258756     -1.90513961106611     -0.17251648992539
  H   -1.68548590252188     -1.45768792280444     -0.54333463094816
