14
Coordinates from ORCA-job run
  C   0.98629320876898     -0.17768530658618     -0.10736801423197
  C   -0.48784909326738     -0.42961406453215     -0.45722656189236
  Cl  1.76369340440063     -1.76967460872071      0.13577615822881
  H   -0.55392648158019     -1.12501985843311     -1.29223750119955
  H   1.49361256394405      0.26091029532737     -0.97511812287208
  N   1.07668779488672      0.56918987078051      1.12026836832795
  H   0.62814086386881      1.47200781587910      1.00812276504518
  H   2.04354193467231      0.70393601166243      1.38622257860097
  N   -0.98113026346345      0.88919668472624     -1.04624192162453
  O   -1.23930762349169      1.79440011160012     -0.25728858220052
  O   -1.02449678329690      0.96678893269133     -2.27148010085502
  N   -1.31027203238957     -0.81058590302460      0.63002358892467
  H   -1.51058072431326     -1.79822915364511      0.61529446681443
  H   -0.88440676873910     -0.54562082772525      1.50925287893398
