14
Coordinates from ORCA-job run
  C   0.77497838706228      0.41873055565290      0.47293609531093
  C   -0.38428929016446      0.06187168434305     -0.46907863610283
  Cl  1.32931686745478      2.07121531388650      0.07095910379582
  H   -0.06930967598791      0.16351061385835     -1.50882431823000
  H   0.38994344236336      0.45098483169657      1.49446318661362
  N   1.88796733365938     -0.48127742826199      0.41659789577690
  H   2.21453484440700     -0.62397210175508     -0.53076353510975
  H   1.67183458093350     -1.36555781010561      0.85509051035006
  N   -1.48869206698545      1.06081924549900     -0.27374970542873
  O   -1.97138141177528      1.08783285509135      0.85733230812954
  O   -1.83071981027426      1.74885700874552     -1.22753934808232
  N   -0.97102162545882     -1.22918425039884     -0.24934210764028
  H   -0.40616324603957     -1.96773737426736     -0.64128706643121
  H   -1.14699832919454     -1.39609314398434      0.73320561704828
