14
Coordinates from ORCA-job run
  C   0.91864028764966     -0.12011705045352      0.51318550569138
  C   -0.31646065920145     -0.45242284681320     -0.32327367781026
  Cl  0.43649582470833      0.19015247610626      2.23376985701620
  H   0.03320739418094     -0.74016345799610     -1.31805228981196
  H   1.49072117294708     -1.05029205874133      0.57465980764765
  N   1.62064635978817      1.00607898757814      0.00206047404340
  H   1.47016145589743      1.17221596031246     -0.98179900180679
  H   2.60206244701563      0.98643689066027      0.23201135978827
  N   -1.09838375577093      0.84059956566137     -0.58482633441061
  O   -0.72836549505556      1.51744134043890     -1.54360494617510
  O   -2.02736408137916      1.10268687496546      0.17000374476108
  N   -1.08827008293645     -1.48803172925635      0.24782433245158
  H   -1.46839055051773     -1.20369179207139      1.14141990279516
  H   -1.84570031732596     -1.76189316039099     -0.36337873418002
