14
Coordinates from ORCA-job run
  C   1.03248303394510     -0.32191749170031     -0.07418842510708
  C   -0.47150990883271     -0.49529277734070     -0.40613127562140
  Cl  1.56730983407766     -1.90030353418247      0.59821586801935
  H   -0.58003043064974     -1.30337563702658     -1.13007492338478
  H   1.57813105542863     -0.18527475748992     -1.00962539700671
  N   1.37671987644999      0.72842419524362      0.82423676558494
  H   1.35229083526799      1.63462063273891      0.37729003296096
  H   0.80588875589811      0.72901476294336      1.65843423838674
  N   -0.83274096724997      0.76465963024493     -1.14397783324300
  O   -0.49147316419714      0.82271694076856     -2.32303699212084
  O   -1.35203158136617      1.67057163750735     -0.49712026222049
  N   -1.39403692918142     -0.67377153169555      0.66674533670189
  H   -1.23285715636521     -1.55716449150099      1.13042321381493
  H   -1.35714325322509      0.08809242148979      1.32980965323552
