14
Coordinates from ORCA-job run
  C   0.87814293793967     -0.20685508701891      0.30426395285473
  C   -0.48937606895290     -0.33329123728887     -0.38697861092926
  Cl  0.57308698251524      0.36401249105168      2.03594932075535
  H   -0.28935327288614     -0.52229521356033     -1.44387989679465
  H   1.25466589368527     -1.22083423091984      0.44390768331540
  N   1.80864633243959      0.55252078212719     -0.42729985163788
  H   2.71374738028016      0.58068347247034      0.02124929071444
  H   1.47571542912356      1.48781123490838     -0.61985325405798
  N   -1.16473678106084      1.02417969963334     -0.35196649766221
  O   -2.15109608740334      1.16512168343747      0.35409827954261
  O   -0.62668828000517      1.90401560421822     -1.02628329999554
  N   -1.38962747576354     -1.30836368557828      0.12265424270618
  H   -1.10818333505734     -2.23851723590215     -0.15242279085858
  H   -1.48394365485421     -1.24818827757823      1.12756143204740
