14
Coordinates from ORCA-job run
  C   0.95940026159517     -0.15152270438135      0.45953475663052
  C   -0.34315728531743     -0.38207519224203     -0.32793869764745
  Cl  0.48996361058432      0.32630148952003      2.13973654348196
  H   -0.07370575004024     -0.52286911284210     -1.37797867977562
  H   1.41535939621409     -1.13739965348396      0.55501414735325
  N   1.90896816686146      0.76318347383160     -0.06964636814750
  H   1.46821378730684      1.58103508905139     -0.46678380316322
  H   2.51382661520942      0.31712495042968     -0.74403656475408
  N   -1.15576422632162      0.92457530258962     -0.34039516613107
  O   -2.24602192645539      0.92768899111589      0.21686856931247
  O   -0.64250485483665      1.88142234346050     -0.92006585154723
  N   -1.06135380052024     -1.49578592661589      0.15946144718906
  H   -1.35044678800791     -1.34696313697455      1.11773111918329
  H   -1.88177720627182     -1.68371591345885     -0.40050145198438
