12
Coordinates from ORCA-job run
  C   0.75914597961147      0.18197068214018     -0.28910836647899
  C   -0.66019365750412     -0.32569318671417     -0.49491011221530
  Br  1.23100976940636      1.16755285149818     -2.02132170152249
  H   -0.64007428840249     -1.01399220221126     -1.35021694680782
  H   1.49186758557227     -0.62528065218638     -0.31153828557138
  H   -1.29335868761911      0.51971223885588     -0.78002484574342
  N   0.90975676418023      0.94144376998842      0.87535780022090
  H   1.82377305693333      1.36027870350394      0.96853219889090
  H   0.17990666989904      1.62934331135412      0.99663582734508
  N   -1.18588040656259     -0.89227673139762      0.74559009059504
  H   -0.54811349939410     -1.59006309754335      1.10916848467613
  H   -2.06683928612027     -1.35399568728795      0.55383585661134
