12
Coordinates from ORCA-job run
  C   0.68821379092289      0.36172232397340     -0.54261472631142
  C   -0.74778721737512     -0.11476685524000     -0.33047127839077
  Br  0.67641123136321      1.76377161927339     -1.90251575089715
  H   -1.19557614112799     -0.39902040826127     -1.29111694732401
  H   1.28513568406702     -0.44865401385580     -0.96956156758476
  H   -1.32680686918850      0.72146616815522      0.07159642459467
  N   1.35971858720464      0.85109647399855      0.63566426203414
  H   0.87309521350828      1.67183413861859      0.98138051155564
  H   1.26828667643445      0.12246435940157      1.33813795924376
  N   -0.71588282889029     -1.19414058323533      0.65852263863453
  H   -0.56698195183553     -2.08390387297692      0.19955580814848
  H   -1.59682617508305     -1.25186934985136      1.15142266629690
