12
Coordinates from ORCA-job run
  C   0.71454065643456      0.20437928824891     -0.34627052169758
  C   -0.58038276026005     -0.55467424910413     -0.61749965087525
  Br  1.42253823885242      0.87311182475476     -2.04039781313684
  H   -1.26569011182463      0.12388579021172     -1.12971961917697
  H   1.49115967079133     -0.48483925419917      0.01292387971260
  H   -0.36993630445442     -1.39051416248673     -1.28979843792450
  N   0.46764959317728      1.33734938573668      0.52459725589380
  H   1.29103866746627      1.92468241041472      0.57619131284137
  H   0.28504386606212      0.98980206626763      1.45953973798354
  N   -1.24132606792345     -1.06219426559871      0.57457169943805
  H   -0.63115181546979     -1.65429789485211      1.12306288305576
  H   -1.58548363285164     -0.30669093939358      1.15079927388602
