14
Coordinates from ORCA-job run
  C   -0.72313418703965     -0.33570435570181      0.02399369062810
  C   0.40449794093369      0.51031340560277     -0.56896177296853
  H   -0.69902956723524     -1.32384945627633     -0.44863233768546
  H   0.17411774434998      0.62879390597311     -1.63111454514675
  H   0.36406828954344      1.50813044921216     -0.11707995566501
  N   -2.01750017579998      0.26526380077578     -0.28197541867643
  H   -2.76744214106243     -0.32222553434380      0.06393264009368
  H   -2.09404194075067      1.15975903028817      0.18934213883361
  C   -0.49902063363243     -0.53962074296976      1.47263339432499
  N   -0.35287455861893     -0.66503921298834      2.63174074919083
  C   1.78479682647850     -0.10410801947382     -0.36887972056940
  H   1.83756958545797     -1.10142199873578     -0.81381745838401
  H   2.55252191184825      0.51128295115335     -0.84206599214400
  H   2.03347090552749     -0.19257422251569      0.69088458816836
