14
Coordinates from ORCA-job run
  C   -0.76373454960406     -0.18405007997316      0.00430290902777
  C   0.50456733098922      0.67245293249197     -0.02443229563297
  H   -0.95491924421491     -0.55393615076693     -1.01649441478772
  H   0.28655898040036      1.55863255158913     -0.63221621986624
  H   0.69024377303894      1.02046449758138      0.99531788759542
  N   -1.87196700517360      0.59057484135024      0.56306729764830
  H   -2.04838479512596      1.38707954716342     -0.03833964705456
  H   -2.71604291208148      0.03030413903100      0.58639990236904
  C   -0.54913884311411     -1.37184548753830      0.84359374796698
  N   -0.36851054633647     -2.32635582322423      1.50214200388608
  C   1.71337400944258     -0.06538770616180     -0.58729667619290
  H   1.52345486939696     -0.41953446972130     -1.60427207246565
  H   1.97143864005434     -0.92894150531257      0.02963876823157
  H   2.58406029232818      0.59254271349116     -0.62141119072512
