14
Coordinates from ORCA-job run
  C   -0.73838120837493     -0.37031297856292     -0.05169905750013
  C   0.79123220430036     -0.44847969927941     -0.00988288732204
  H   -1.05207077521519     -0.28868184150448     -1.10582514064466
  H   1.10824672692258     -1.31227925027333     -0.60239417628439
  H   1.08697856869763     -0.62859850945505      1.02707104386244
  N   -1.21505633324326      0.73729458612372      0.78043502495796
  H   -2.22222491425784      0.68663563363814      0.88114283730256
  H   -1.00431678260027      1.61212511891385      0.31529946784434
  C   -1.31076476889188     -1.62273392059513      0.45971302318265
  N   -1.76393719106211     -2.62892503074045      0.85912462995936
  C   1.44786353582057      0.82284953319877     -0.53703160777383
  H   1.25721619163818      1.67093442964340      0.12331324329722
  H   2.53082524380199      0.69880649927436     -0.59868180386619
  H   1.08638950246417      1.07136542961852     -1.53958459701528
