17

C	0.0	0.0	0.0
C	-0.396104	-0.009867	-1.516513
Cl	1.774444	0.0	0.0
H	0.266876	0.720603	-1.988923
N	-0.363295	1.378585	0.560258
O	-0.334571	2.323333	-0.224032
O	-0.586031	1.455014	1.761368
C	-0.635947	-1.073724	0.831124
H	-0.310331	-1.006733	1.86743
H	-1.72279	-0.932386	0.787199
H	-0.375318	-2.051444	0.423988
N	-1.739284	0.306939	-1.896916
H	-2.464741	-0.185761	-1.371421
H	-1.911609	1.290473	-1.735127
C	-0.016909	-1.330872	-2.051136
N	0.280814	-2.375503	-2.496774
Cl	-4.217175	0.0	0.0
