17

C	0.0	0.0	0.0
C	-0.629447	0.287799	-1.370677
Cl	1.762931	0.0	0.0
H	-1.678308	0.520932	-1.120716
N	-0.361692	1.159779	0.941433
O	-0.655381	2.230744	0.423199
O	-0.271713	0.951192	2.144825
C	-0.512079	-1.289259	0.592428
H	-0.202329	-2.106041	-0.055645
H	-0.100696	-1.416118	1.592683
H	-1.603365	-1.239369	0.632873
N	-0.600552	-0.915052	-2.199955
H	-1.537302	-1.093446	-2.537922
H	0.026011	-0.800394	-2.984367
C	-0.016579	1.421775	-2.065876
N	0.502664	2.233397	-2.738342
Cl	-3.693219	0.0	0.0
