17

C	0.0	0.0	0.0
C	-0.640173	0.176051	-1.380838
Cl	1.764764	0.0	0.0
H	-1.694783	0.399843	-1.139423
N	-0.359614	1.230086	0.855558
O	-0.736264	2.238184	0.268531
O	-0.201642	1.125223	2.065399
C	-0.515656	-1.232055	0.699878
H	-0.088213	-1.288079	1.699778
H	-1.605876	-1.162591	0.753386
H	-0.230879	-2.102202	0.111804
N	-0.585404	-1.080498	-2.123043
H	0.057931	-1.018698	-2.89959
H	-1.512313	-1.288773	-2.471328
C	-0.057562	1.276235	-2.155083
N	0.441378	2.061674	-2.872734
Cl	-3.715357	0.0	0.0
