17

C	0.0	0.0	0.0
C	-0.627305	-0.102546	-1.418627
Cl	1.761165	0.0	0.0
H	-1.589705	0.417499	-1.326206
N	-0.347665	1.396488	0.554396
O	-0.424468	1.522468	1.769734
O	-0.449056	2.297415	-0.271609
C	-0.512198	-1.046187	0.955259
H	-0.10571	-0.863155	1.94762
H	-1.602832	-0.986139	0.972366
H	-0.189134	-2.030928	0.618708
N	-0.954117	-1.439744	-1.873136
H	-1.819484	-1.702428	-1.41163
H	-0.223226	-2.105593	-1.661851
C	0.193022	0.574933	-2.432264
N	0.847787	1.059023	-3.277595
Cl	-3.616459	0.0	0.0
