17

C	0.0	0.0	0.0
C	-0.402351	0.007051	-1.514247
Cl	1.774261	0.0	0.0
H	0.243802	0.7547	-1.981906
N	-0.372255	1.36899	0.580346
O	-0.331774	2.32486	-0.188441
O	-0.621791	1.423403	1.777061
C	-0.626538	-1.090774	0.815874
H	-0.36765	-2.058296	0.383516
H	-0.282307	-1.050216	1.847815
H	-1.714692	-0.953758	0.79152
N	-1.754746	0.302256	-1.874091
H	-1.945553	1.284026	-1.723645
H	-2.46848	-0.199297	-1.340587
C	-0.007481	-1.30171	-2.068978
N	0.289422	-2.340124	-2.52908
Cl	-4.244969	0.0	0.0
