17

C	0.0	0.0	0.0
C	-0.356025	0.157829	-1.505713
Cl	1.787997	0.0	0.0
H	0.408257	-0.474162	-1.969388
N	-0.436001	1.132341	0.918826
O	-0.947119	2.132271	0.435928
O	-0.213919	0.947904	2.11024
C	-0.509068	-1.304641	0.56222
H	-1.601798	-1.245595	0.601765
H	-0.206813	-2.11915	-0.100571
H	-0.093427	-1.468907	1.555088
N	-0.120762	1.496585	-2.023501
H	-0.880744	2.095711	-1.727245
H	-0.138398	1.438994	-3.035016
C	-1.595845	-0.475604	-2.023974
N	-2.229245	-1.02992	-2.849066
Cl	-3.618819	0.0	0.0
