17

C	0.0	0.0	0.0
C	-0.425411	-0.409739	-1.454705
Cl	1.779011	0.0	0.0
H	0.309369	0.072569	-2.105466
N	-0.393926	1.480951	0.112971
O	-1.128742	1.808203	1.035522
O	0.057873	2.231089	-0.748851
C	-0.620724	-0.795598	1.108721
H	-1.709292	-0.706235	1.023295
H	-0.306982	-0.411304	2.079855
H	-0.318773	-1.838924	1.016696
N	-1.727647	-0.033984	-1.91721
H	-1.751912	0.964234	-2.082461
H	-2.501106	-0.249967	-1.275835
C	-0.238826	-1.86392	-1.586857
N	-0.101594	-3.023758	-1.708395
Cl	-4.213484	0.0	0.0
