17

C	0.0	0.0	0.0
C	-0.408202	0.197973	-1.498285
Cl	1.777605	0.0	0.0
H	0.251906	0.985221	-1.871681
N	-0.374805	1.285928	0.741676
O	-0.287025	2.334102	0.107452
O	-0.675551	1.189949	1.924428
C	-0.615089	-1.188078	0.679581
H	-0.28181	-1.255198	1.713814
H	-1.704763	-1.067164	0.66063
H	-0.331978	-2.095593	0.144551
N	-1.754807	0.567464	-1.813358
H	-2.478982	0.012559	-1.350347
H	-1.922054	1.521705	-1.522978
C	-0.036961	-1.038259	-2.21103
N	0.269703	-2.018967	-2.779846
Cl	-4.24503	0.0	0.0
