14

C	0.0	0.0	0.0
C	-0.384754	0.049035	-1.477413
Br	1.943882	0.0	0.0
H	0.427506	0.497434	-2.051427
H	-0.312882	0.943472	0.43671
C	-0.478895	-1.100784	0.822423
N	-0.569049	-1.970124	1.611175
N	-1.546418	0.956487	-1.796708
O	-2.370488	0.572251	-2.610496
O	-1.393489	2.104326	-1.398837
N	-0.59038	-1.273578	-2.148414
O	-0.204098	-1.309952	-3.319728
O	-1.109126	-2.194937	-1.538799
F	-2.291057	0.0	0.0
