14

C	0.0	0.0	0.0
C	-0.286757	0.134549	-1.50584
Br	1.945213	0.0	0.0
H	0.192244	-0.673758	-2.054516
H	-0.351999	0.86739	0.542638
C	-0.483952	-1.246653	0.568646
N	-0.590861	-2.306117	1.070102
N	0.325624	1.401102	-2.043722
O	0.734362	1.340879	-3.2026
O	0.320797	2.398567	-1.333956
N	-1.70313	0.183621	-2.060925
O	-2.108522	-0.885243	-2.496196
O	-2.198386	1.2845	-2.244595
F	-2.295042	0.0	0.0
