15

C	-0.399003	-0.080902	-1.454917
C	0.0	0.0	0.0
F	-1.707934	-0.670688	-1.585853
H	1.095104	0.0	0.0
H	0.27035	-0.785854	-1.95345
N	-0.356374	1.167804	-2.11962
H	-0.948423	1.83982	-1.646718
H	-0.663722	1.064499	-3.077404
C	-0.352445	-1.278791	0.761054
H	0.128546	-2.119495	0.253615
H	-1.426959	-1.466661	0.82663
H	0.074767	-1.222227	1.764452
C	-0.563897	1.171578	0.637665
N	-1.032448	2.131815	1.132268
F	2.565926	0.0	0.0
