15

C	-0.418882	-0.112144	-1.445766
C	0.0	0.0	0.0
F	-1.744868	-0.671329	-1.542008
H	1.095037	0.0	0.0
H	0.221126	-0.850607	-1.933814
N	-0.355608	1.115729	-2.147046
H	-0.905788	1.82258	-1.673095
H	-0.704589	0.994363	-3.088323
C	-0.343149	-1.259561	0.794611
H	0.133122	-2.11083	0.301609
H	0.095178	-1.179665	1.791977
H	-1.415611	-1.447648	0.875993
C	-0.555418	1.186469	0.618051
N	-1.01961	2.159247	1.092143
F	2.561028	0.0	0.0
