15

C	-0.422858	0.055639	-1.455794
C	0.0	0.0	0.0
F	0.076352	-1.103991	-2.091098
H	1.095093	0.0	0.0
H	0.071553	0.893846	-1.952886
N	-1.835522	0.149051	-1.654506
H	-2.286569	-0.632694	-1.194274
H	-2.042104	0.089084	-2.645221
C	-0.430967	-1.282291	0.711935
H	-0.058063	-2.132847	0.140689
H	0.046156	-1.309622	1.693708
H	-1.514664	-1.380191	0.853579
C	-0.480608	1.179963	0.694984
N	-0.853578	2.123617	1.290594
F	2.579642	0.0	0.0
