15

C	-0.406909	0.017018	-1.461114
C	0.0	0.0	0.0
F	0.060854	-1.183516	-2.048663
H	1.095964	0.0	0.0
H	0.124375	0.817232	-1.982579
N	-1.813645	0.152708	-1.681351
H	-2.012026	0.047864	-2.668355
H	-2.302791	-0.580844	-1.182434
C	-0.441885	-1.259439	0.743822
H	-1.528527	-1.356661	0.863743
H	-0.056128	-2.127625	0.209013
H	0.011636	-1.252856	1.73705
C	-0.477917	1.201338	0.658498
N	-0.842178	2.167476	1.222062
F	2.576968	0.0	0.0
