15

C	-0.235408	-0.139361	-1.520393
C	0.0	0.0	0.0
F	-0.652341	1.106452	-2.043196
H	1.096393	0.0	0.0
H	-1.069548	-0.818317	-1.74808
N	0.963017	-0.560548	-2.144268
H	1.781773	-0.44483	-1.521285
H	0.904826	-1.468582	-2.571967
C	-0.405807	-1.289721	0.712539
H	0.123439	-2.121023	0.239432
H	-1.485198	-1.477503	0.666987
H	-0.097047	-1.257853	1.759571
C	-0.614902	1.160839	0.604281
N	-1.133441	2.064717	1.149329
F	2.668112	0.0	0.0
