15

C	-0.152951	0.029292	-1.517812
C	0.0	0.0	0.0
F	-1.426613	0.465166	-1.933341
H	1.097187	0.0	0.0
H	-0.099497	-1.0068	-1.890513
N	0.855749	0.895743	-2.039232
H	1.708264	0.733642	-1.478094
H	1.041684	0.680715	-3.010805
C	-0.589608	-1.243205	0.651326
H	-0.448107	-1.213892	1.734047
H	-0.068537	-2.126574	0.273132
H	-1.659663	-1.344176	0.442572
C	-0.516024	1.219885	0.586184
N	-0.955537	2.187073	1.089124
F	2.655332	0.0	0.0
