15

C	-0.573196	0.036377	-1.402619
C	0.0	0.0	0.0
F	-0.025609	1.087322	-2.126837
H	1.094883	0.0	0.0
H	-1.654395	0.265323	-1.376499
N	-0.281581	-1.169677	-2.143924
H	-0.642662	-1.041964	-3.082504
H	-0.776911	-1.944584	-1.723903
C	-0.337858	-1.306828	0.722448
H	-1.407308	-1.556866	0.727533
H	0.003908	-1.236813	1.756016
H	0.235101	-2.10702	0.250537
C	-0.516932	1.135833	0.744335
N	-0.955744	2.040617	1.355876
F	2.5657	0.0	0.0
