15

C	-0.410439	-0.08373	-1.45013
C	0.0	0.0	0.0
F	-1.740817	-0.628042	-1.56267
H	1.095068	0.0	0.0
H	0.227388	-0.818275	-1.947352
N	-0.328998	1.154513	-2.130832
H	-0.872681	1.860432	-1.649525
H	-0.670597	1.054733	-3.076781
C	-0.353016	-1.274035	0.768203
H	0.074233	-1.21191	1.770985
H	-1.427166	-1.461247	0.835623
H	0.128306	-2.117037	0.265355
C	-0.559341	1.17507	0.635932
N	-1.031137	2.129954	1.137318
F	2.565893	0.0	0.0
