15

C	-0.234726	-0.200961	-1.51334
C	0.0	0.0	0.0
F	-0.631108	1.026493	-2.088992
H	1.097638	0.0	0.0
H	-1.077645	-0.878124	-1.714107
N	0.958765	-0.665708	-2.118976
H	0.890742	-1.602285	-2.480218
H	1.778113	-0.519728	-1.503533
C	-0.405306	-1.260488	0.763366
H	-1.485362	-1.448261	0.72846
H	-0.093016	-1.188312	1.807296
H	0.121011	-2.11109	0.321594
C	-0.617507	1.183279	0.555918
N	-1.148355	2.108462	1.051379
F	2.666359	0.0	0.0
