15

C	-0.074544	0.008199	-1.524812
C	0.0	0.0	0.0
F	-1.368473	0.249609	-2.001603
H	1.096734	0.0	0.0
H	0.209381	-0.99437	-1.863963
N	0.841525	0.954508	-2.114141
H	1.72916	0.755411	-1.624854
H	0.559976	1.880704	-1.801377
C	-0.606614	-1.22635	0.663857
H	-0.116341	-2.119897	0.270483
H	-1.683117	-1.30559	0.481719
H	-0.436409	-1.206008	1.74267
C	-0.50263	1.245992	0.544294
N	-0.907187	2.258432	0.985711
F	2.635599	0.0	0.0
