15

C	-0.401028	0.025376	-1.46314
C	0.0	0.0	0.0
F	0.051426	-1.181444	-2.049237
H	1.095143	0.0	0.0
H	0.146175	0.816563	-1.980297
N	-1.803085	0.182945	-1.689789
H	-2.000803	0.084625	-2.678402
H	-2.306979	-0.541078	-1.192464
C	-0.445883	-1.26275	0.736181
H	-1.533736	-1.36635	0.839929
H	-0.046696	-2.127876	0.205979
H	-0.00798	-1.254368	1.736105
C	-0.47821	1.198379	0.664746
N	-0.849772	2.154031	1.241674
F	2.580356	0.0	0.0
