15

C	-0.393057	-0.039864	-1.470346
C	0.0	0.0	0.0
F	-0.059151	-1.289554	-1.989326
H	1.09542	0.0	0.0
H	0.241118	0.668288	-2.018514
N	-1.809324	0.137443	-1.692607
H	-2.162833	0.857603	-1.076199
H	-1.98235	0.422441	-2.64869
C	-0.495729	-1.212628	0.784189
H	-0.048656	-2.103324	0.342553
H	-0.146865	-1.139692	1.81674
H	-1.585025	-1.317288	0.775689
C	-0.477939	1.242718	0.573666
N	-0.896265	2.249006	1.020366
F	2.577916	0.0	0.0
