12
Coordinates from ORCA-job run
  C   -0.43610363988271      0.26794897541745      0.25662871791151
  C   0.97016651105538      0.09475647742252     -0.30759759169651
  F   -0.32235499039804      0.40043710083551      1.63678901198060
  H   1.42104931040905     -0.79912666750785      0.13335765349051
  H   -0.87481876916949      1.19904911131258     -0.11443109314811
  H   0.92210004208213     -0.05353112939483     -1.39040931295489
  C   -1.32804569507377     -0.91374136270748     -0.04579738530728
  H   -0.88758056215032     -1.82961789447464      0.35368261972438
  H   -1.47175404655646     -1.02902140250277     -1.12229793862345
  H   -2.30370546516210     -0.77001694520959      0.42033723635296
  C   1.82050263453412      1.24870784914919     -0.02081978614760
  N   2.49054467031220      2.18515588765990      0.20155786841789
