12
Coordinates from ORCA-job run
  C   -0.53423832804701      0.42469092649686      0.41224016261954
  C   0.76300870245052      0.86137325671468     -0.26416800683948
  F   -0.27582732006834      0.29096800773494      1.77321793296056
  H   1.13080040520498      1.76937618017315      0.22070408998617
  H   -1.26362118367591      1.23471082970919      0.30774488817006
  H   0.57044787501156      1.09880366924699     -1.31477964567729
  C   -1.09199255345435     -0.87818296365800     -0.10862104554688
  H   -2.01331013391937     -1.12356243481134      0.42122608054778
  H   -1.31328353922162     -0.80481395371773     -1.17604616419271
  H   -0.37519627123471     -1.68566961266002      0.04916825691920
  C   1.79579908999556     -0.17089774921208     -0.18855095065224
  N   2.60841325695869     -1.01479615601665     -0.13313559829472
