12
Coordinates from ORCA-job run
  C   -0.54367187207187      0.43693516975429      0.32602565368924
  C   0.97967117680179      0.55400301428547      0.29728395641927
  F   -0.93044955040407      0.73801076226747      1.63090924079158
  H   1.40739093829178     -0.18028657428478      0.98597222122219
  H   -0.98490471217446      1.20180770097302     -0.32004033912849
  H   1.27106361723378      1.54739101035187      0.64796175878450
  C   -1.05257387236450     -0.93819765288562     -0.03219285173565
  H   -0.62018280157783     -1.68390990661176      0.63859892026350
  H   -0.79188612853492     -1.19339793461181     -1.06109968631240
  H   -2.13814204907273     -0.96902009552359      0.07039760594886
  C   1.50734799680603      0.33406444659012     -1.04587913133889
  N   1.89633725706699      0.15360005969533     -2.13793734860371
