12
Coordinates from ORCA-job run
  C   -0.54730952163728      0.42038179352748      0.39865540508249
  C   0.78094130676099      0.85911353882342     -0.21287868825052
  F   -0.34769401876568      0.25518529694819      1.76606408300655
  H   1.13593038216744      1.75231849910591      0.30772343582298
  H   -1.26446305519221      1.23948566010849      0.28126065131945
  H   0.63484265031417      1.12222728316221     -1.26483721928505
  C   -1.09460571704799     -0.86543014683457     -0.17304499779593
  H   -1.27534982994512     -0.76548948168929     -1.24605630089676
  H   -2.03717317787886     -1.11433390533967      0.31645155514822
  H   -0.39070015558544     -1.68280862879495     -0.00768687680999
  C   1.80107354458126     -0.18399475900140     -0.11782077545243
  N   2.60450759222873     -1.03565515001582     -0.04783027188901
