12
Coordinates from ORCA-job run
  C   -0.54710022531564      0.44718888800669      0.30525825349025
  C   0.97372367322755      0.58664425104668      0.25074901895552
  F   -0.92401213932676      0.82096432658161      1.59425200493710
  H   1.25225846783085      1.60404724911859      0.53716131416967
  H   -1.00834353932863      1.16429050587198     -0.38037076004998
  H   1.42160067198153     -0.09769808266854      0.97710635612049
  C   -1.03715219849674     -0.95516755843847      0.03829346153951
  H   -2.12168586455531     -0.99561384814495      0.14761568326721
  H   -0.59126445717751     -1.64879027948046      0.75436979651057
  H   -0.77645706111555     -1.27303959815153     -0.97282102081898
  C   1.48934090720960      0.29425662101311     -1.08334665551811
  N   1.86909176506659      0.05491752524528     -2.16726745260324
