15

C	-0.485709	-0.075272	-1.44487
C	0.0	0.0	0.0
F	-1.848375	-0.529553	-1.403415
H	1.092302	0.0	0.0
H	-0.324872	-0.911392	0.509438
N	-0.413324	1.18708	-2.082512
H	-0.754748	1.120343	-3.032316
H	-0.950523	1.881724	-1.578621
C	0.301193	-1.114842	-2.209747
H	0.15716	-2.095545	-1.753213
H	-0.048594	-1.161025	-3.245284
H	1.36115	-0.859446	-2.176758
C	-0.550409	1.150945	0.702715
N	-0.99704	2.09876	1.2328
Cl	3.407722	0.0	0.0
