15

C	-0.41586	0.121381	-1.477165
C	0.0	0.0	0.0
F	-0.228748	1.454646	-1.836085
H	1.092074	0.0	0.0
H	-0.305026	-0.985361	0.370981
N	0.43839	-0.654176	-2.335646
H	0.25471	-1.642891	-2.196921
H	1.404992	-0.489048	-2.056105
C	-1.874886	-0.199717	-1.726004
H	-2.097309	-1.235837	-1.45521
H	-2.091071	-0.052338	-2.783646
H	-2.503222	0.464133	-1.132711
C	-0.5846	1.025419	0.85061
N	-1.104618	1.83303	1.525936
Cl	3.380169	0.0	0.0
