15

C	-0.405022	0.236207	-1.470772
C	0.0	0.0	0.0
F	-0.215153	1.607447	-1.670093
H	1.092679	0.0	0.0
H	-0.374909	0.803268	0.639998
N	0.450078	-0.44527	-2.402499
H	0.203732	-1.426071	-2.441116
H	1.416329	-0.374201	-2.085301
C	-1.858608	-0.057531	-1.773538
H	-2.502768	0.524572	-1.114741
H	-2.082514	-1.114172	-1.629035
H	-2.061049	0.216858	-2.809752
C	-0.483184	-1.28937	0.477572
N	-0.903344	-2.327529	0.835
Cl	3.383318	0.0	0.0
