13
Coordinates from ORCA-job run
  C   0.46370152470780     -0.69993696166049     -0.23152442006331
  C   -0.39146279171311      0.39269302059722      0.44392551233861
  F   0.18877387022060     -0.65560339543203     -1.58820680107533
  H   -0.19793555259392      0.32692871876135      1.51507776025937
  H   0.10177400983828     -1.66296685388250      0.14703326012354
  N   1.85412767822208     -0.45726706109970     -0.01139427396259
  H   2.27437723907389     -1.16341954160876      0.56644704855008
  H   2.32852163420462     -0.41449794396346     -0.89225930729364
  N   -1.84316861364674      0.03060514890522      0.22826846770220
  O   -2.25537203927828     -0.93837997070334      0.86638845881296
  O   -2.48664403941895      0.68354861259979     -0.58633007999426
  C   -0.12327479503653      1.72528047644802     -0.06363507393128
  N   0.08558187542025      2.83101575103868     -0.39579055146633
