13
Coordinates from ORCA-job run
  C   0.91911201592059     -0.12739025311381     -0.04124230707110
  C   -0.48459970017758      0.07459690717503      0.54104331338222
  F   1.70966355786284     -0.52158580676606      1.04510909072724
  H   -0.87185922471765     -0.87370658662807      0.91940548300550
  H   1.31404477836028      0.82377481522417     -0.39945637723716
  N   0.86972902184362     -1.05805814487214     -1.09159304079227
  H   0.60916310979906     -1.98407580678720     -0.77866723993087
  H   1.73439862429044     -1.09719687862107     -1.61183258306767
  N   -1.38946099155773      0.49305446370372     -0.58795675142404
  O   -1.14833615454114      1.58307595389124     -1.09204323314550
  O   -2.25641084462299     -0.30414981382791     -0.92159385760800
  C   -0.49951680629743      1.08936055090759      1.58615593817630
  N   -0.50392738616232      1.90230059971449      2.43267156498536
