13
Coordinates from ORCA-job run
  C   0.89712861395777     -0.22448908510909      0.07971388242513
  C   -0.54846455555609      0.10386843516832      0.47056150461675
  F   1.47772400770230     -0.74721834616937      1.24165572899551
  H   -1.08111873112669     -0.81189274839756      0.73514611688050
  H   1.43396870135846      0.69252597188052     -0.16506662278923
  N   0.90691648203182     -1.09972715184513     -1.01855766780365
  H   0.51171166236619     -2.00438141924839     -0.79722715888442
  H   1.83026103140095     -1.21138858609634     -1.41227172727744
  N   -1.23247755643512      0.66707270545349     -0.74715804790868
  O   -0.81124850932388      1.74538226902631     -1.14773292639217
  O   -2.11833731340568     -0.01566216799055     -1.24481228712162
  C   -0.61080594105959      1.06804960319722      1.56087532312204
  N   -0.65525789191042      1.83886052013058      2.44487388213729
