13
Coordinates from ORCA-job run
  C   0.91097104308153     -0.18023582953286      0.05393952318993
  C   -0.52247508760580      0.09788363139695      0.51443365430387
  F   1.59230405360495     -0.57299044289552      1.20049208993231
  H   -0.96244962084797     -0.82765242043601      0.88637415173959
  H   1.37216342953851      0.73811968522025     -0.31986926618357
  N   0.89343498379644     -1.23057632675505     -0.91709227682041
  H   1.37242010208737     -2.04670490383646     -0.56314543440766
  H   1.31432390461639     -0.94322741060282     -1.78922344636427
  N   -1.34895839835128      0.49997110742698     -0.67938600661792
  O   -2.51026324649655      0.11565553778090     -0.69862121133995
  O   -0.79067370737087      1.19501487412757     -1.52285341841813
  C   -0.61921481758076      1.15495761171043      1.51247153652055
  N   -0.69958263847197      2.00078488639563      2.32348010446566
