13
Coordinates from ORCA-job run
  C   0.91071398857380     -0.17807086660282     -0.03210430352675
  C   -0.48910105933531      0.08700867910488      0.53359918265596
  F   1.65905521824259     -0.64505804044767      1.05556057968312
  H   -0.93595253846419     -0.84834465615539      0.87691561218796
  H   1.36521095639354      0.75819113229491     -0.35756301280219
  N   0.82718106709032     -1.07682580722328     -1.10793600614531
  H   1.69930391133569     -1.15467149132069     -1.61164542142925
  H   0.50739117809635     -1.99342172429673     -0.82308968184723
  N   -1.34928059960341      0.59032899941038     -0.59517476568540
  O   -1.03897503011053      1.68030965699659     -1.06024792122138
  O   -2.25405814307844     -0.14559749683575     -0.96739076254091
  C   -0.46359166769906      1.06949383131245      1.60897227206689
  N   -0.43589728144136      1.85665778376312      2.47910422860450
