16

C	0.0	0.0	0.0
C	-0.320802	-0.278956	-1.573871
Cl	1.795173	0.0	0.0
H	0.622295	-0.042197	-2.069067
C	-0.478946	1.328019	0.367459
N	-0.538736	2.485895	0.598317
C	-0.491667	-1.016887	0.916988
N	-0.577273	-1.917748	1.678226
N	-1.319822	0.537904	-2.225977
H	-2.140135	0.475497	-1.61456
H	-1.015718	1.506837	-2.188241
C	-0.61876	-1.753514	-1.773092
H	0.164189	-2.382028	-1.339416
H	-0.688972	-1.951977	-2.845149
H	-1.569909	-1.999286	-1.297693
H	-2.165749	0.0	0.0
