16

C	0.0	0.0	0.0
C	-0.321075	0.094436	-1.549772
Cl	1.786871	0.0	0.0
H	-1.396512	0.279844	-1.573587
C	-0.434708	1.243884	0.65397
N	-0.500759	2.306255	1.163396
C	-0.797782	-1.122674	0.554406
N	-0.794981	-2.220749	1.027724
N	0.04365	-1.183182	-2.16291
H	-0.276902	-1.160076	-3.1258
H	-0.480119	-1.919014	-1.694724
C	0.38057	1.232826	-2.271806
H	-0.097605	1.374808	-3.247829
H	1.43558	1.012744	-2.436641
H	0.288326	2.168849	-1.715647
H	-2.150874	0.0	0.0
