16

C	0.0	0.0	0.0
C	-0.21714	-0.054624	-1.583727
Cl	1.798306	0.0	0.0
H	0.502379	-0.834896	-1.878997
C	-0.466424	1.238709	0.617111
N	-0.520071	2.273485	1.186229
C	-0.689756	-1.152063	0.588558
N	-0.70584	-2.253799	1.043845
N	0.120692	1.25553	-2.138264
H	1.092628	1.466117	-1.943623
H	0.016171	1.205636	-3.145684
C	-1.549588	-0.482868	-2.175804
H	-1.911847	-1.405189	-1.724281
H	-1.373251	-0.667897	-3.249911
H	-2.306373	0.289433	-2.06113
H	-1.992394	0.0	0.0
