14
Coordinates from ORCA-job run
  C   1.03779141427076      0.28843921107037     -0.23670299686327
  C   -0.39135697451576      0.52686600251926      0.25465047298260
  H   1.70436430317301      1.09584252045239      0.07014460939700
  H   -0.35361958139070      0.65899539737802      1.34055953453742
  H   1.08202492697693      0.14151203022221     -1.31478650502174
  N   1.55425567826283     -0.96080550982164      0.39495863693866
  O   1.90343462471532     -1.87452797560301     -0.34761831712733
  O   1.56922992950003     -0.98282063587668      1.62352980608848
  C   -1.32059446921667     -0.64044429214408     -0.08975604795642
  H   -0.98693651249004     -1.54967330962456      0.41344537635141
  H   -1.33409222541178     -0.81937500696898     -1.16690200816247
  H   -2.33847145779368     -0.42580144461354      0.23800790395926
  C   -0.87243550519285      1.77512158068416     -0.34060281154383
  N   -1.25459415088740      2.76667143232607     -0.83992765357978
