14
Coordinates from ORCA-job run
  C   1.04460328781669      0.31580555546141     -0.16062283475301
  C   -0.41919406077998      0.51324860895584      0.23855532356151
  H   1.67116225879019      1.12973734299858      0.20714224546285
  H   -0.45663675461922      0.62264208112356      1.32701784272285
  H   1.16369197269671      0.19391755506351     -1.23615318892944
  N   1.54548710873443     -0.93633359071184      0.47794494688765
  O   1.47834276998644     -0.98565440829906      1.70397995400601
  O   1.96422599161555     -1.82542570645449     -0.25856695079413
  C   -1.29652887488124     -0.66622486224077     -0.19013527712719
  H   -0.97699910807117     -1.57806641095556      0.31746777140516
  H   -2.33870875357161     -0.47986570967831      0.07189941781229
  H   -1.23330701610516     -0.82372207623156     -1.26890077476085
  C   -0.88755816150705      1.76351757775223     -0.36239782205656
  N   -1.25758066010458      2.75742404321646     -0.86623065343714
