14
Coordinates from ORCA-job run
  C   0.78867885042571     -0.58209242158415      0.05564962125449
  C   -0.43655555258290      0.31318780020525      0.19292120734026
  H   0.82299742564670     -1.09676795235313     -0.90369524697750
  H   -0.35318766994874      0.85806544373823      1.13686413890737
  H   0.81949992093069     -1.31008453271928      0.86999352219009
  N   2.05746218297660      0.20598343377605      0.15930373525000
  O   2.09210584069155      1.09194133103649      1.00912384332715
  O   2.97685714480937     -0.11827156506318     -0.58543117590823
  C   -1.71806091821468     -0.52675110751468      0.18295195470516
  H   -2.59475919150377      0.11455644766015      0.28099419501743
  H   -1.80857154099516     -1.08899551668336     -0.74855061167919
  H   -1.71121699389289     -1.23009709651856      1.01860336221781
  C   -0.45431721049835      1.30033691416975     -0.89043088322784
  N   -0.48293228784412      2.06798882185044     -1.77829766241701
