14
Coordinates from ORCA-job run
  C   1.03644920147684      0.34715748170894     -0.13862708005595
  C   -0.42721124358446      0.47905957752048      0.28581867261556
  H   1.65014854710081      1.13838645371915      0.29454401091998
  H   -0.45786587492772      0.48337403906308      1.37998552395101
  H   1.14957587794387      0.32161079399394     -1.22134527909187
  N   1.56740493782957     -0.94515681691308      0.38525175763897
  O   1.51104239979793     -1.10249130072834      1.60274622864698
  O   2.00073883655518     -1.75708844068743     -0.42793912369415
  C   -1.28660208598882     -0.67018241612085     -0.24859872778818
  H   -2.33076259078246     -0.52766989129948      0.03246531157015
  H   -0.94907213344572     -1.62002473205432      0.17024765955757
  H   -1.22540479282594     -0.72452253796586     -1.33760454377777
  C   -0.92323958807249      1.77257991670417     -0.18830842459747
  N   -1.31620149107659      2.80396787305962     -0.58863598589483
