14
Coordinates from ORCA-job run
  C   0.85793889089378     -0.15722090674826      0.81433297772292
  C   -0.56602907722821      0.30414277110350      0.48658793951340
  H   1.39872287338562      0.58555747712541      1.40066869891662
  H   -1.11758124564264      0.27318001896207      1.43404253237305
  H   0.83496151446596     -1.11923496998583      1.32413545115650
  N   1.62305654198808     -0.36500534217565     -0.44760825655895
  O   1.77081485283900     -1.52431416110463     -0.83091399183174
  O   2.00429974513588      0.64546777143318     -1.03318288015407
  C   -1.25822584375273     -0.61690085796913     -0.52386077745662
  H   -2.30526394616335     -0.33250428882897     -0.63518403406557
  H   -1.20815304851686     -1.65392525885765     -0.18583601410737
  H   -0.78144476858715     -0.55015046366042     -1.50276275332311
  C   -0.59390881581965      1.69663596967269      0.02791105671758
  N   -0.66018767299773      2.81327224103368     -0.32832994890263
