14
Coordinates from ORCA-job run
  C   1.03331145569411      0.37562543530960     -0.08600001147289
  C   -0.43549422927195      0.43866237842968      0.33770241159854
  H   1.63357708698026      1.11540249902595      0.44569070478069
  H   -0.47489924599368      0.31845813558109      1.42494808150583
  H   1.15485071438464      0.48301858219677     -1.16279325131637
  N   1.57554351864795     -0.96491577293067      0.28202202851888
  O   1.51379095489007     -1.26849983824315      1.47122331051619
  O   2.01963548166055     -1.66925206004667     -0.62079790061259
  C   -1.27459498362950     -0.65362399515876     -0.33150464906574
  H   -0.92638643701159     -1.64034638150020     -0.02097123984047
  H   -1.20560625842206     -0.58250997155125     -1.41903801567306
  H   -2.32238707966596     -0.55799675277109     -0.04417178486201
  C   -0.94507686158283      1.77071473529878      0.00638472702127
  N   -1.34726411668000      2.83526300635993     -0.28269441109825
