16

C	-0.499341	-0.011938	-1.444955
C	0.0	0.0	0.0
Br	0.562199	-1.200504	-2.616966
H	1.089564	0.0	0.0
N	-1.850021	-0.542806	-1.482779
H	-2.44216	0.05219	-0.910524
H	-2.190603	-0.528585	-2.437873
N	-0.27421	1.316098	-1.986769
H	-0.898688	1.97679	-1.536741
H	-0.45427	1.307422	-2.980941
N	-0.387031	-1.188269	0.756148
O	-0.929337	-1.041487	1.863796
O	-0.035087	-2.270916	0.287526
C	-0.496028	1.185333	0.664676
N	-0.886499	2.202792	1.112715
H	2.401542	0.0	0.0
