16

C	-0.174644	-0.001027	-1.513625
C	0.0	0.0	0.0
Br	-2.100633	0.104753	-2.085441
H	1.094689	0.0	0.0
N	0.444992	1.235518	-1.923599
H	0.451643	1.293243	-2.936287
H	1.414695	1.178141	-1.584132
N	0.340191	-1.23547	-2.033069
H	0.450998	-1.142189	-3.036482
H	1.262146	-1.367476	-1.60876
N	-0.474233	-1.227029	0.677345
O	-1.48341	-1.154848	1.384316
O	0.202969	-2.240468	0.514711
C	-0.534232	1.181014	0.640488
N	-0.914456	2.13529	1.211422
H	2.561336	0.0	0.0
