16

C	-0.493596	0.109465	-1.435447
C	0.0	0.0	0.0
Br	0.774032	-0.94047	-2.657838
H	1.097831	0.0	0.0
N	-1.827673	-0.366536	-1.592608
H	-1.875779	-1.319354	-1.245242
H	-2.067641	-0.364594	-2.578699
N	-0.314422	1.473624	-1.874141
H	-0.351988	1.513935	-2.885098
H	-1.075702	2.022513	-1.485211
N	-0.341566	-1.202278	0.696065
O	-0.558563	-2.243514	0.03183
O	-0.183942	-1.194645	1.932904
C	-0.398651	1.152109	0.775763
N	-0.699402	2.134396	1.350501
H	2.281634	0.0	0.0
