16

C	-0.490952	-0.063589	-1.422831
C	0.0	0.0	0.0
Br	0.386132	1.834855	-2.298492
H	1.089839	0.0	0.0
N	0.060211	-1.125433	-2.101005
H	-0.146477	-1.120133	-3.090269
H	1.057852	-1.19312	-1.912319
N	-1.874398	0.098452	-1.576777
H	-2.1866	0.908313	-1.053987
H	-2.123813	0.232564	-2.550284
N	-0.396503	-1.260661	0.691095
O	-1.344571	-1.234474	1.486799
O	0.286191	-2.252546	0.433359
C	-0.544829	1.130824	0.722625
N	-0.943621	2.06579	1.315189
H	2.487266	0.0	0.0
