16

C	-0.266445	0.114747	-1.476489
C	0.0	0.0	0.0
Br	-2.395361	0.469088	-1.787798
H	1.107887	0.0	0.0
N	0.347643	1.334222	-1.870472
H	0.290902	1.456466	-2.874349
H	1.330922	1.25075	-1.583415
N	0.097589	-1.007024	-2.221036
H	-0.336369	-1.849957	-1.869974
H	-0.081648	-0.867165	-3.206094
N	-0.407086	-1.203999	0.701027
O	-0.61679	-2.244953	0.057877
O	-0.390016	-1.156763	1.936167
C	-0.406031	1.172665	0.740875
N	-0.672405	2.131529	1.366365
H	2.372822	0.0	0.0
