12

C	0.0	0.0	0.0
C	-0.650767	-0.133895	-1.364016
F	1.374069	0.0	0.0
H	-1.634898	-0.592501	-1.10417
H	-0.316257	-0.838289	0.624434
H	-0.361715	0.924356	0.445964
C	0.133229	-0.943528	-2.28782
N	0.701649	-1.631263	-3.05331
N	-0.945089	1.220605	-1.90276
H	-1.143453	1.140052	-2.894631
H	-1.833625	1.382965	-1.443227
F	-2.807586	0.0	0.0
