12

C	0.0	0.0	0.0
C	-0.301717	0.148343	-1.525253
F	1.380979	0.0	0.0
H	0.472485	-0.481555	-1.984958
H	-0.394698	0.818589	0.595416
H	-0.382637	-0.949027	0.37194
C	0.066964	1.530199	-1.909469
N	0.34298	2.625841	-2.231171
N	-1.590418	-0.189683	-2.08596
H	-2.298693	-0.001468	-1.289417
H	-1.59912	-1.199546	-2.182003
F	-2.899476	0.0	0.0
