12

C	0.0	0.0	0.0
C	-0.545445	-0.014535	-1.412093
F	1.374064	0.0	0.0
H	-1.618823	-0.272781	-1.206734
H	-0.360943	-0.8805	0.529549
H	-0.378126	0.883677	0.509441
C	0.160862	-0.998068	-2.228499
N	0.699882	-1.803366	-2.893677
N	-0.398762	1.335592	-2.01452
H	-1.126106	1.87854	-1.553843
H	-0.685332	1.275079	-2.987411
F	-2.699291	0.0	0.0
