12

C	0.0	0.0	0.0
C	-0.43412	-0.01697	-1.479635
F	1.381016	0.0	0.0
H	0.498597	-0.124897	-2.048798
H	-0.36452	0.873287	0.531987
H	-0.3647	-0.903615	0.4804
C	-0.985993	1.298684	-1.881261
N	-1.329948	2.337536	-2.309553
N	-1.306504	-1.147385	-1.763799
H	-2.112805	-0.904723	-1.124132
H	-1.615601	-1.072725	-2.72852
F	-2.652907	0.0	0.0
