12

C	0.0	0.0	0.0
C	-0.592901	0.239851	-1.357893
F	1.386603	0.0	0.0
H	-1.71322	0.165584	-1.023018
H	-0.352044	0.798835	0.649258
H	-0.349733	-0.956694	0.386052
C	-0.231719	-0.816817	-2.303938
N	0.057829	-1.626858	-3.108306
N	-0.250679	1.578333	-1.849165
H	-0.876145	1.820806	-2.607249
H	0.694486	1.58153	-2.218137
F	-2.761151	0.0	0.0
