12

C	0.0	0.0	0.0
C	-0.239668	0.165616	-1.542917
F	1.38183	0.0	0.0
H	0.42007	-0.60537	-1.969958
H	-0.389704	0.828779	0.587805
H	-0.401206	-0.944074	0.365404
C	0.39188	1.448778	-1.956331
N	0.878671	2.453314	-2.323288
N	-1.558322	0.087772	-2.130343
H	-1.674735	-0.869916	-2.437073
H	-2.227376	0.188324	-1.289839
F	-2.805904	0.0	0.0
