12

C	0.0	0.0	0.0
C	-0.417929	0.025656	-1.455434
F	1.389023	0.0	0.0
H	0.02772	0.942537	-1.88562
H	-0.353638	-0.906409	0.480429
H	-0.350472	0.877382	0.535003
C	-1.878283	0.097602	-1.753088
N	-2.6178	0.180786	-2.682425
N	0.121776	-1.180646	-2.11405
H	-0.228065	-1.177132	-3.064582
H	1.130638	-1.098953	-2.14634
F	-2.481396	0.0	0.0
