12

C	0.0	0.0	0.0
C	-0.597019	0.070145	-1.37507
F	1.386793	0.0	0.0
H	-1.717442	0.034875	-1.029108
H	-0.351265	0.873032	0.546308
H	-0.349258	-0.901694	0.502092
C	-0.237177	-1.092735	-2.18674
N	0.051133	-1.992381	-2.889831
N	-0.264419	1.339729	-2.028465
H	-0.901881	1.488905	-2.800742
H	0.675132	1.299488	-2.409268
F	-2.765429	0.0	0.0
