12

C	0.0	0.0	0.0
C	-0.562823	0.021322	-1.402938
F	1.38508	0.0	0.0
H	-1.666086	-0.103654	-1.133177
H	-0.364251	0.879853	0.528039
H	-0.34844	-0.888892	0.524581
C	-0.047097	-1.092683	-2.194687
N	0.352504	-2.002446	-2.823491
N	-0.3526	1.283853	-2.11886
H	-1.026593	1.938874	-1.738379
H	0.576228	1.634726	-1.904354
F	-2.719116	0.0	0.0
