12

C	0.0	0.0	0.0
C	-0.376934	0.132229	-1.508831
F	1.381018	0.0	0.0
H	0.554198	-0.130284	-2.028626
H	-0.369573	-0.947279	0.387375
H	-0.383377	0.813954	0.60727
C	-0.600432	1.551763	-1.829203
N	-0.695403	2.691977	-2.091003
N	-1.458689	-0.669267	-2.056931
H	-2.213173	-0.501231	-1.322828
H	-1.161634	-1.637912	-1.970365
F	-2.682431	0.0	0.0
