15

C	0.0	0.0	0.0
C	-0.643785	0.089413	-1.384339
Cl	1.748345	0.0	0.0
H	-1.773983	-0.049007	-1.028222
N	-0.509245	1.02923	0.801338
H	-0.181738	0.907896	1.751954
H	-1.538827	0.891159	0.746865
N	-0.360833	-1.413702	0.602707
O	-0.611462	-2.336774	-0.157723
O	-0.328867	-1.478198	1.825694
C	-0.186855	-0.870927	-2.371676
N	0.164326	-1.590763	-3.232378
C	-0.491529	1.436592	-1.913706
N	-0.414502	2.508486	-2.389609
F	-2.780153	0.0	0.0
