15

C	0.0	0.0	0.0
C	-0.37861	0.050077	-1.506969
Cl	1.804037	0.0	0.0
H	-0.05795	1.062253	-1.78386
N	-0.505627	1.086835	0.704929
H	-1.549109	0.905356	0.597012
H	-0.230083	0.995688	1.676217
N	-0.383815	-1.376589	0.595251
O	-0.590636	-2.300022	-0.178881
O	-0.406911	-1.434327	1.818428
C	-1.784438	-0.080507	-1.951186
N	-2.588639	-0.133143	-2.814457
C	0.416372	-0.869593	-2.335248
N	1.038888	-1.543838	-3.067002
F	-2.615595	0.0	0.0
