15

C	0.0	0.0	0.0
C	-0.408977	0.047982	-1.501306
Cl	1.766539	0.0	0.0
H	0.315027	-0.580086	-2.028524
N	-0.525076	1.024005	0.764046
H	-0.239861	0.906538	1.729434
H	-1.572488	0.837798	0.637514
N	-0.357562	-1.436065	0.513819
O	-0.350877	-2.348469	-0.304324
O	-0.54251	-1.544054	1.717303
C	-0.21002	1.418469	-1.987311
N	-0.039556	2.486156	-2.444724
C	-1.726739	-0.449541	-1.94435
N	-2.482337	-0.884947	-2.737834
F	-2.626947	0.0	0.0
