15

C	0.0	0.0	0.0
C	-0.391858	-0.084137	-1.522213
Cl	1.771018	0.0	0.0
H	0.328072	-0.751556	-2.004211
N	-0.492228	1.035693	0.79218
H	-0.149286	1.922864	0.444551
H	-1.532883	0.906598	0.660782
N	-0.408748	-1.355245	0.617285
O	-0.66052	-1.390298	1.806772
O	-0.353799	-2.316121	-0.145042
C	-0.194509	1.255915	-2.081203
N	-0.025261	2.331811	-2.520069
C	-1.721163	-0.58946	-1.916414
N	-2.499654	-1.0594	-2.667297
F	-2.583521	0.0	0.0
