15

C	0.0	0.0	0.0
C	-0.392277	-0.098712	-1.501407
Cl	1.76606	0.0	0.0
H	0.27344	-0.851245	-1.934799
N	-0.51509	1.111955	0.6446
H	-1.559349	0.919601	0.549081
H	-0.222306	1.105729	1.614606
N	-0.380287	-1.361214	0.662828
O	-0.534458	-1.338712	1.875085
O	-0.425102	-2.351916	-0.056142
C	-0.059189	1.180048	-2.142626
N	0.216405	2.164868	-2.719239
C	-1.749801	-0.505373	-1.918611
N	-2.535518	-0.883183	-2.713407
F	-2.617919	0.0	0.0
