15

C	0.0	0.0	0.0
C	-0.411859	-0.03048	-1.497448
Cl	1.766434	0.0	0.0
H	0.280185	-0.723533	-1.985246
N	-0.520536	1.069014	0.707756
H	-1.563859	0.887333	0.596367
H	-0.235572	1.003043	1.677493
N	-0.365647	-1.399401	0.593308
O	-0.375039	-2.355887	-0.17213
O	-0.542924	-1.439429	1.802226
C	-0.160365	1.296425	-2.070474
N	0.046458	2.326251	-2.594621
C	-1.756922	-0.495956	-1.896986
N	-2.512085	-0.922531	-2.697321
F	-2.629057	0.0	0.0
