12

C	-0.506806	0.038666	-1.413803
C	0.0	0.0	0.0
F	-0.106425	-1.045395	-2.119419
H	1.090419	0.0	0.0
H	-0.371345	0.86733	0.546801
H	-0.365031	-0.920748	0.462127
N	-2.05004	-0.008587	-1.377531
O	-2.600325	1.009211	-0.975149
O	-2.589136	-1.058734	-1.691484
C	-0.165054	1.260792	-2.15643
N	0.083168	2.239177	-2.756893
Cl	3.404959	0.0	0.0
