12

C	-0.547759	-0.024293	-1.390852
C	0.0	0.0	0.0
F	-1.925043	0.070729	-1.382999
H	1.089041	0.0	0.0
H	-0.363872	-0.883041	0.528742
H	-0.373094	0.901706	0.487513
N	-0.081597	1.216564	-2.160419
O	-0.484973	2.279739	-1.708314
O	0.625187	1.05414	-3.146326
C	-0.196248	-1.219082	-2.169144
N	-0.002247	-2.22565	-2.741454
Cl	3.399279	0.0	0.0
