12

C	-0.516253	0.025496	-1.409964
C	0.0	0.0	0.0
F	-0.107275	1.130293	-2.079361
H	1.091586	0.0	0.0
H	-0.372462	-0.88941	0.507649
H	-0.364609	0.893467	0.510785
N	0.005711	-1.200816	-2.175655
O	-0.377249	-2.275737	-1.729405
O	0.72486	-1.006135	-3.139014
C	-1.988169	-0.050661	-1.500949
N	-3.161408	-0.063905	-1.549814
Cl	3.423203	0.0	0.0
