14

C	-0.337417	-0.042593	-1.485796
C	0.0	0.0	0.0
Cl	-0.170905	1.616962	-2.205763
H	1.093442	0.0	0.0
H	-1.379221	-0.314828	-1.686435
H	-0.349312	-0.960046	0.407652
C	0.676066	-0.963116	-2.156347
H	0.636598	-0.89888	-3.246566
H	0.457107	-1.996637	-1.860103
H	1.670074	-0.701791	-1.764746
N	-0.68642	1.084561	0.715002
H	-0.099754	1.906558	0.632636
H	-0.685069	0.849833	1.699513
F	2.798535	0.0	0.0
