14

C	-0.226121	0.006874	-1.495945
C	0.0	0.0	0.0
Cl	-1.997733	0.194343	-1.954911
H	1.096021	0.0	0.0
H	0.039385	-0.977881	-1.889845
H	-0.372815	0.937895	0.42984
C	0.620922	1.076587	-2.150256
H	1.631195	0.912181	-1.750875
H	0.277398	2.070511	-1.848532
H	0.601818	1.014549	-3.241043
N	-0.541455	-1.137664	0.733034
H	-1.478288	-1.35044	0.40368
H	0.048084	-1.940379	0.541725
F	2.746184	0.0	0.0
