16
Coordinates from ORCA-job run
  C   -0.51103382699916     -0.33240731468728      0.20125071884809
  C   0.79293487273636      0.48493597443849      0.24128701986282
  Cl  -0.48577028208584     -1.30287448211470      1.77945431269740
  H   0.78450662803416      1.13351773664993      1.11842164246481
  C   -1.69890305480379      0.61016695914432      0.28833100972230
  H   -1.64554379475208      1.23096456038143      1.18299822716322
  H   -2.61976814244663      0.02556993739572      0.33782627898893
  H   -1.73019469822292      1.23914169694503     -0.60378718562452
  N   -0.59186753254530     -1.12378601875386     -0.95881574414570
  H   0.18732286441471     -1.75962692171640     -1.06464939930805
  H   -1.47045633458479     -1.62149751738195     -1.01162803207896
  C   0.96136517349506      1.26833366456090     -0.97800162540593
  N   1.08708399362172      1.93522867808451     -1.93636853948051
  N   2.01609989253089     -0.38723944139409      0.42365725977104
  O   2.72821172466584     -0.12934854100352      1.38485832084323
  O   2.19701251694176     -1.27207897054852     -0.40683426431816
