16
Coordinates from ORCA-job run
  C   -0.56889900090833     -0.16207626981822      0.15182601880208
  C   0.96051617564508      0.06323067794201      0.11063964907701
  Cl  -1.30112626161214      1.25135164326064      1.05399216158905
  H   1.38292213548269     -0.72058086040929     -0.52263869850667
  C   -1.19325285767951     -0.20116089146736     -1.23048443481465
  H   -1.07812771966307      0.74475085556733     -1.75352228743152
  H   -2.26065789916558     -0.40675251748072     -1.12544287955311
  H   -0.73178272421026     -0.99789586771374     -1.81742120583890
  N   -0.76311298236465     -1.40807040357791      0.81043429151809
  H   -0.50306045920647     -1.36801579486518      1.78965120932551
  H   -1.72942920262144     -1.70253133932529      0.74278935555735
  C   1.54716433350165     -0.00072444537150      1.44266449665529
  N   1.99300928886776     -0.12560770815285      2.52173734018534
  N   1.32991144099717      1.36694732065327     -0.55352155310078
  O   1.29022585053847      1.35074343304998     -1.78080267268396
  O   1.62469988239866      2.31739216770884      0.15909920921987
