16
Coordinates from ORCA-job run
  C   -0.52964545227035     -0.29228538828708      0.38072381220992
  C   0.90667203765980      0.26825854237847      0.47467460790242
  Cl  -1.19902593681255      0.01417051338892      2.07630667301210
  H   1.42455438255424     -0.20073166231849      1.31341940984895
  C   -1.42292023842129      0.44888049626666     -0.59217954032003
  H   -2.42935092742591      0.02790859702305     -0.54313290380749
  H   -1.03308445602352      0.33679838642426     -1.60397333467353
  H   -1.48462954304703      1.50678713524857     -0.34074947075607
  N   -0.44412743865404     -1.66198976603487      0.04757894993078
  H   -1.35843087434490     -2.07212264558786     -0.09002986124472
  H   0.07502608716408     -2.20597309331961      0.72592066438331
  C   0.94400491381884      1.71762836563197      0.60326022328467
  N   0.97363274829282      2.88647871675323      0.71061258407784
  N   1.67823596958453     -0.14847486288949     -0.75801191175957
  O   1.44427768892126      0.45986362164904     -1.79515560848923
  O   2.45481103900405     -1.08419695632677     -0.60926429359936
