16
Coordinates from ORCA-job run
  C   -0.50142600865119     -0.27640935200041      0.21336176126854
  C   0.94501947475576      0.09127730024593     -0.19133525921678
  Cl  -0.75893081756178      0.33409787043376      1.91882899095553
  H   1.05980143541699     -0.17288058290322     -1.24533116538921
  C   -1.54278604095499      0.37905688440005     -0.67433605313953
  H   -2.53230521333384      0.03687752070611     -0.36374825338311
  H   -1.37347328645591      0.08688156864505     -1.71258182987180
  H   -1.51700696203314      1.46285389716294     -0.59576668290615
  N   -0.58976089311009     -1.69218286372364      0.10599149886865
  H   -1.54865656331560     -2.00069183005575      0.20767398917759
  H   -0.02057659647423     -2.16493967344554      0.79910153163674
  C   1.92503814128257     -0.62627496304542      0.61312751587176
  N   2.68431056435733     -1.27034188072071      1.23552757850432
  N   1.20221056403155      1.57617386369288     -0.11282042068685
  O   0.76098489805670      2.22761259445326     -1.05569823087404
  O   1.80755730398988      2.00888964615470      0.85900502918439
