16
Coordinates from ORCA-job run
  C   -0.55405011652452     -0.17524618197851      0.19138073103623
  C   0.96724716401041     -0.00418272938845     -0.02577236407662
  Cl  -1.04320478230874      0.97342955455674      1.52871944013218
  H   1.23666282137207     -0.60672565822913     -0.89653782325226
  C   -1.36562529553306      0.17713293278894     -1.04110093985031
  H   -1.04993295935095     -0.44986056793330     -1.87737422960553
  H   -2.42039935463682     -0.01241039328591     -0.83087496625773
  H   -1.25498179713177      1.22374411832998     -1.31292710358721
  N   -0.74926349725809     -1.54353781905613      0.52958828041077
  H   -0.35257597206253     -1.77422419293496      1.43370088658569
  H   -1.73528218671956     -1.77309812658010      0.53959670811353
  C   1.72801207562116     -0.44141517846136      1.13726162462010
  N   2.32248848986131     -0.86643820598337      2.05635412905798
  N   1.33914412556644      1.41452439212731     -0.38098431069402
  O   1.80405881722162      2.12910552238510      0.49733433336112
  O   1.12670246787305      1.72720253364313     -1.54936439599395
