16
Coordinates from ORCA-job run
  C   -0.46603443429269     -0.37369002901291      0.33801347497342
  C   0.82526825859505      0.47864058124516      0.31334458951832
  Cl  -0.54766317311913     -1.18716943762998      1.93833269532362
  H   0.88271291935485      1.07021439920932      1.22867612786871
  C   -1.68009197135250      0.54493040955630      0.23848648176595
  H   -1.67166539464665      1.31424092750719      1.01425140322808
  H   -2.58545800249793     -0.05244544907394      0.36178949078338
  H   -1.70791432563147      1.02370835149275     -0.74305958033057
  N   -0.36538264945404     -1.40038299173894     -0.66214632827993
  H   -1.21432408656195     -1.95252375548961     -0.68368617792659
  H   -0.20233106643176     -1.00109867989065     -1.58053814171568
  C   0.85582874690439      1.33901112877359     -0.86442558179092
  N   0.82964033864845      2.04015625435867     -1.80656764740383
  N   2.05640165362292     -0.40048028465378      0.30139494633624
  O   2.52321133336499     -0.67818501365550      1.39900204382678
  O   2.46780185349750     -0.76492641099763     -0.79286779617694
