16
Coordinates from ORCA-job run
  C   -0.52483468958975     -0.20449316222889      0.23669533159474
  C   0.95511484230773      0.00349470470093     -0.16039841798182
  Cl  -0.80560406140403      0.72442140407945      1.78791202780445
  H   1.09132532000650     -0.45633059384936     -1.14215369304460
  C   -1.49124062393194      0.33047475272804     -0.80356488812500
  H   -1.40028106378609      1.40685798080640     -0.92463724797122
  H   -1.30451431236662     -0.15902938786900     -1.76149504324079
  H   -2.51046340724902      0.10743136235419     -0.48087273174159
  N   -0.69630259606773     -1.60865134090608      0.38589761413701
  H   -0.18430641641247     -1.97500815948009      1.18056637484418
  H   -1.67555978594583     -1.84145852288843      0.49414492232217
  C   1.85939585753952     -0.60563024608696      0.80604058953943
  N   2.55306568937882     -1.16582011833632      1.57011721861350
  N   1.30087172272234      1.46105301533858     -0.34191464458739
  O   0.93686374774898      1.94957318690236     -1.40822621340815
  O   1.89446977704950      2.03311512473514      0.56288880124507
