16
Coordinates from ORCA-job run
  C   -0.55236526762473     -0.11373173649978      0.23524504721839
  C   0.96650052931909     -0.04161121281191     -0.04566576524825
  Cl  -0.97169353025788      1.30226954856788      1.31527505459817
  H   1.19414576373028     -0.81914469952326     -0.77878948471633
  C   -1.38778586417786      0.00356889629653     -1.02583616438693
  H   -2.44119901280466     -0.10233935276401     -0.75791182364218
  H   -1.25508465118506      0.96718384034424     -1.51107193922746
  H   -1.11393007639156     -0.79284003566627     -1.72071124334916
  N   -0.77628917326897     -1.37541116737308      0.85344696382038
  H   -1.76754412465351     -1.56636414492116      0.93034273646587
  H   -0.36212442730214     -1.42784201633125      1.77738486131050
  C   1.74610817066174     -0.25490394372669      1.16656967912307
  N   2.34253500653146     -0.49471488835640      2.14919465693470
  N   1.36828232463607      1.26018309919307     -0.69423099866774
  O   1.13289968801241      1.33221140089265     -1.89737385838918
  O   1.87754464477533      2.12448641267947      0.00713227815612
