16
Coordinates from ORCA-job run
  C   -0.56006495180415     -0.13862441252738      0.24374220367681
  C   0.96175158675899      0.15262055906103      0.19744652520382
  Cl  -1.38108449118545      1.26759256079469      0.98623501010433
  H   1.44559319638242     -0.76467303870610     -0.14427843161312
  C   -1.14118234429763     -0.37006563578661     -1.14032286146053
  H   -2.19565359747326     -0.62951803233512     -1.03346084383307
  H   -0.61427485411958     -1.19347941072013     -1.63109407489616
  H   -1.06215396207435      0.51125486291476     -1.77481092239990
  N   -0.67954200635709     -1.29356521441632      1.11531824149218
  H   -1.36178786889793     -1.13916470259125      1.84381230408123
  H   -0.94569822286820     -2.11283860932382      0.58325146456284
  C   1.48742095616204      0.53733394152319      1.49899974128172
  N   1.92337707539000      0.84229176197506      2.54521627475282
  N   1.30354387538609      1.19573774600349     -0.83481778535144
  O   1.33786771212899      2.36838456688176     -0.48153783710374
  O   1.48088789686916      0.76571305725275     -1.97269900849778
