16
Coordinates from ORCA-job run
  C   -0.48824668368131     -0.36322374058104      0.32130963545312
  C   0.83953247624632      0.43103441169715      0.33668815920359
  Cl  -0.62893040133857     -1.21426736058987      1.89778178451949
  H   0.91201457766732      0.99010708311537      1.27120510265143
  C   -1.65848082510785      0.61140981459156      0.23022068073434
  H   -1.62745831834799      1.35854941110240      1.02668448199891
  H   -2.59129430729630      0.05225725008438      0.32427859109768
  H   -1.65025980872750      1.11691196969162     -0.73821141026048
  N   -0.41882401129157     -1.36706371508238     -0.70437868257870
  H   -0.22772602978789     -0.95234999930083     -1.61040260884380
  H   -1.28924736765372     -1.88304042776209     -0.74901145611743
  C   0.92365199270467      1.32840357568019     -0.81054464138727
  N   0.96883595626550      2.07664123444875     -1.71499364335462
  N   2.03010127898746     -0.50102741068291      0.30890291454695
  O   2.43653008608111     -0.84969622374093     -0.79229933511180
  O   2.47080138528035     -0.83464587267136      1.40177042744860
