16
Coordinates from ORCA-job run
  C   -0.55467907950404     -0.27495334064103      0.35786287695998
  C   0.88829478029050      0.25339414709854      0.51488464859752
  Cl  -1.29767984142680      0.06929481232944      2.01507514963260
  H   1.35371429103265     -0.21620528340998      1.38351709684230
  C   -1.38206330044096      0.47407677821443     -0.66601170021727
  H   -1.42882940517483      1.53666882743632     -0.43152182399220
  H   -0.94789801107356      0.33819545896081     -1.65660835274139
  H   -2.40005447296470      0.07884233753184     -0.65926894523509
  N   -0.48604886094216     -1.65056048868488      0.04564984143099
  H   -1.40227751922332     -2.04073300331079     -0.13162367422915
  H   -0.01420673629454     -2.19758057976688      0.75542475767476
  C   0.95433968356279      1.70305369887463      0.62794884217348
  N   1.01575198918697      2.87152471658926      0.72524019305348
  N   1.70832020125778     -0.19722307126792     -0.67382281225531
  O   1.53853130172638      0.40249192078412     -1.72834863600840
  O   2.45478497998787     -1.14828693073793     -0.47639746168631
