16
Coordinates from ORCA-job run
  C   -0.61194152606248     -0.25523709014107      0.44187031328526
  C   0.85250871159611      0.27908698799487      0.54166975076205
  Cl  -1.29962956970482      0.15802996395600      2.06095170604592
  H   1.32762186192838     -0.16239578010925      1.41937275223610
  C   -1.42582027792997      0.44780941863537     -0.62577185835730
  H   -0.99490201023647      0.26779610807651     -1.61330708230696
  H   -1.45679667923770      1.52262013086192     -0.45215932718647
  H   -2.44087886929449      0.05159608173465     -0.59598019699422
  N   -0.68329987176515     -1.66715722784871      0.26638704159551
  H   -0.03375256573485     -2.18126841338214      0.84686123921082
  H   -0.58116487621354     -1.93631316761274     -0.70277935341400
  C   0.94255894113974      1.73042924086314      0.58199315446436
  N   0.99903820888152      2.90297968875363      0.62249313319422
  N   1.62772850760159     -0.24259191007610     -0.64104721875937
  O   1.51966745333018      0.36166967794358     -1.70319057418340
  O   2.26006256170196     -1.27805370964972     -0.44936347959249
