16
Coordinates from ORCA-job run
  C   -0.64634383285510     -0.10130464434425      0.20513277251046
  C   0.89746525282875      0.10648243178179      0.11597618274242
  Cl  -1.33221174620005      1.34907318580680      0.99690352394717
  H   1.31078117778105     -0.74824894012641     -0.42710754174904
  C   -1.27189633461474     -0.27257964162484     -1.16629555437628
  H   -2.33343420464502     -0.47357605751839     -1.02373741090121
  H   -0.81258728725249     -1.11827679704958     -1.68694609509268
  H   -1.15095827599117      0.61557993431863     -1.78248497926441
  N   -0.97155168482719     -1.23681317082899      1.02240512060516
  H   -0.58001197142833     -1.16968435092097      1.95444468448727
  H   -0.68473056681038     -2.10232104275947      0.58122416275931
  C   1.50142180296549      0.18861211907823      1.43874755816658
  N   1.97443819117851      0.15739304244378      2.51318618248497
  N   1.28230649779884      1.31281545321509     -0.70493828539571
  O   1.54426993652122      2.35258476445907     -0.11366153201068
  O   1.27404304555053      1.13826371406951     -1.92084878891336
