16
Coordinates from ORCA-job run
  C   -0.56538743057754     -0.28027966907570      0.33621707587837
  C   0.86638530287647      0.25943736786275      0.54868964197473
  Cl  -1.37336483280814      0.05430879401105      1.96452621445190
  H   1.30211331028544     -0.20786826436451      1.43381119473812
  C   -1.35933307286992      0.46425041930329     -0.71705427047166
  H   -0.88619055443410      0.33490077479021     -1.69052854030495
  H   -1.42439373475201      1.52579523927662     -0.48216405228517
  H   -2.37336015807682      0.06026592526785     -0.75020735813336
  N   -0.47364061052508     -1.65445661363422      0.02400143534913
  H   -0.02473069350809     -2.19970755287064      0.74980306029859
  H   -1.37897553827329     -2.05175981541027     -0.18956947915931
  C   0.91583136355399      1.70940472304708      0.66654820288894
  N   0.96070104110085      2.87838168524106      0.76673731560218
  N   1.73453935562165     -0.18220302806508     -0.60852795634268
  O   1.60050614001543      0.41848720793280     -1.66767707850751
  O   2.48030011237114     -1.12795719331224     -0.38460540597732
