16
Coordinates from ORCA-job run
  C   -0.51510872106697     -0.33681370997314      0.18013780212830
  C   0.80677677573936      0.44744619339805      0.26946959149267
  Cl  -0.49061882828771     -1.43528376404518      1.67260687715655
  H   0.82275677498574      1.02018586803416      1.19776751658022
  C   -1.68126714848091      0.61911013366834      0.36250174680444
  H   -1.70925161312052      1.32204825531461     -0.47265757799688
  H   -2.61383484330291      0.05137125417029      0.37413892469816
  H   -1.60450051529312      1.16021518456624      1.30584333967204
  N   -0.62758806928388     -1.02750614543007     -1.03982709069348
  H   -1.51554410406168     -1.50448415534154     -1.11960400935812
  H   0.13856366063013     -1.66478855493853     -1.21105996858583
  C   0.97753325530858      1.32616563484299     -0.88251818553269
  N   1.09451734427181      2.06378201335340     -1.78873567292236
  N   2.01283913012271     -0.46225204236741      0.36196683318877
  O   2.74081197722623     -0.30182388916292      1.33230605579921
  O   2.16491492461311     -1.27737227608926     -0.54233618243098
