16
Coordinates from ORCA-job run
  C   -0.57498414850613     -0.36098751044308      0.22552224217014
  C   0.78927644355999      0.38935477313175      0.36183919533389
  Cl  -0.68455189397199     -1.38792960547579      1.69948250223345
  H   0.79001582123781      1.00802034408165      1.26060592394561
  C   -1.69362816057098      0.66613631594741      0.26312120415071
  H   -2.64521655328407      0.13489255107706      0.24177777196301
  H   -1.63606411561485      1.32360991235650     -0.60921204604693
  H   -1.64434905425875      1.27108751522976      1.16919753764638
  N   -0.72288741374184     -1.19368334058807     -0.92170525969636
  H   0.07276023632064     -1.80369810382612     -1.05832144041798
  H   -0.87443919432363     -0.63886544326239     -1.75502296218780
  C   1.02881155644826      1.18814012388799     -0.83229348448993
  N   1.15796857049321      1.83068852691421     -1.80737530734069
  N   1.93673506081223     -0.57119749841567      0.54189724191196
  O   2.54427198533597     -0.50604757562383      1.60291045854168
  O   2.15528086006414     -1.34952098499140     -0.38242357771714
