16
Coordinates from ORCA-job run
  C   -0.54931840146531     -0.26932651629785      0.42532612810646
  C   0.90094605111110      0.24674909641284      0.52139526294440
  Cl  -1.21468566280328      0.03986275313789      2.06717461545527
  H   1.36082202915856     -0.20147100108818      1.40321305048457
  C   -1.42477295474356      0.47014956001583     -0.57294016876138
  H   -2.43709133129423      0.06580368249608     -0.51713170237913
  H   -1.46731666612293      1.53834099228224     -0.35526526480664
  H   -1.03772108101693      0.32458062075317     -1.58160189901166
  N   -0.46234380641200     -1.70767074555714      0.25623956747841
  H   -1.28920848794492     -2.14843574885674      0.63975254227035
  H   -0.41261515592314     -1.92231185938318     -0.73369442268956
  C   1.00515156440934      1.70059304857182      0.57199677831873
  N   1.07221759364431      2.87280000001770      0.60149747917539
  N   1.76789490634596     -0.22935911756248     -0.63229605032474
  O   2.96648375321960     -0.28344176209671     -0.39435658803756
  O   1.22355764983743     -0.49786300284531     -1.69830932822297
