14

C	0.0	0.0	0.0
C	-0.519127	0.157523	-1.442712
F	1.369027	0.0	0.0
H	-1.629316	0.128759	-1.353015
N	-0.4739	1.092717	0.773136
H	-1.49982	1.077624	0.728681
H	-0.200414	0.95804	1.740456
C	-0.364834	-1.351246	0.519038
N	-0.544097	-2.408201	1.000731
C	-0.057282	-0.937767	-2.294952
N	0.312405	-1.81244	-2.985859
C	-0.091038	1.442474	-1.99626
N	0.238257	2.456962	-2.486961
Br	-3.579836	0.0	0.0
