13

C	-0.002622	-0.001507	-0.065583
C	-0.19973	-0.067347	-1.6131
F	1.404982	0.053375	0.1413
H	-0.227454	-1.128495	-1.87408
H	0.721859	0.360738	-2.021087
C	-0.538128	1.248768	0.487752
N	-0.738552	2.339662	0.876461
C	-0.455241	-1.196373	0.657985
N	-0.439859	-2.222846	1.235061
N	-1.354301	0.592776	-2.177877
H	-2.110441	0.309859	-1.534962
H	-1.237917	1.592887	-2.050594
F	-2.349788	-0.265874	0.052306
