13

C	-0.024177	-0.016663	-0.015161
C	-0.30434	-0.051975	-1.551153
F	1.380061	-0.20701	0.124635
H	-0.529136	-1.092977	-1.797695
H	0.657816	0.205601	-2.006151
C	-0.3072	1.309435	0.54797
N	-0.297739	2.41932	0.934427
C	-0.642233	-1.112016	0.742509
N	-0.775941	-2.125375	1.327529
N	-1.3509	0.79822	-2.068651
H	-1.055134	1.763115	-1.963232
H	-2.113689	0.655577	-1.388707
F	-2.373002	0.129857	0.214355
