13

C	-0.052825	-0.021997	-0.029154
C	-0.412808	-0.065733	-1.509409
F	1.37117	0.024352	0.026071
H	-0.187916	0.935268	-1.908716
H	-1.486394	-0.22614	-1.533112
C	-0.55245	1.190897	0.634888
N	-0.47543	2.259079	1.132256
C	-0.441985	-1.249327	0.67886
N	-0.561962	-2.270175	1.246735
N	0.317095	-1.151514	-2.156755
H	-0.047776	-1.284889	-3.090619
H	1.294608	-0.902701	-2.231831
F	-2.350069	0.225205	0.253747
