17

C	-0.417879	-0.043555	-1.461328
C	0.0	0.0	0.0
Br	-2.320867	-0.51423	-1.641705
H	1.09458	0.0	0.0
H	-0.314269	-0.951755	0.440282
N	-0.232872	1.357556	-2.042267
O	-1.177307	2.140651	-2.058122
O	0.916425	1.619423	-2.385461
C	0.413328	-1.025952	-2.258214
H	0.211764	-2.031771	-1.886621
H	0.163688	-0.982716	-3.320354
H	1.468463	-0.796009	-2.098481
C	-0.539038	1.171804	0.805212
H	-0.118994	2.115119	0.45063
H	-1.629296	1.238038	0.764007
H	-0.232294	1.055955	1.847058
Cl	3.51741	0.0	0.0
