17

C	-0.349583	-0.060421	-1.466806
C	0.0	0.0	0.0
Br	-2.315763	-0.022586	-1.76354
H	1.097869	0.0	0.0
H	-0.356693	0.940936	0.417982
N	0.122789	1.238695	-2.132421
O	-0.056326	2.279424	-1.512214
O	0.619297	1.154317	-3.25074
C	0.236723	-1.24899	-2.186327
H	0.037475	-1.202515	-3.254537
H	1.316575	-1.246778	-2.007307
H	-0.195991	-2.16343	-1.779604
C	-0.481422	-1.191689	0.816598
H	-1.566212	-1.318538	0.77083
H	-0.001037	-2.116485	0.492606
H	-0.196076	-1.03655	1.859382
Cl	3.473719	0.0	0.0
