17

C	-0.404436	-0.06086	-1.46667
C	0.0	0.0	0.0
Br	-2.28659	-0.62228	-1.663338
H	1.09455	0.0	0.0
H	-0.301379	-0.961476	0.429449
N	-0.314376	1.341651	-2.06874
O	0.719972	1.602447	-2.679133
O	-1.225883	2.133317	-1.846357
C	0.479353	-1.008692	-2.246635
H	0.23288	-0.999506	-3.309569
H	1.521281	-0.721581	-2.090038
H	0.334474	-2.015681	-1.852352
C	-0.561593	1.146936	0.824161
H	-0.273561	0.99862	1.867389
H	-1.650809	1.205449	0.763965
H	-0.146035	2.104009	0.506155
Cl	3.478491	0.0	0.0
