17

C	-0.43808	0.017353	-1.46325
C	0.0	0.0	0.0
Br	0.556336	-1.344544	-2.428999
H	1.093344	0.0	0.0
H	-0.311568	-0.957712	0.432556
N	-1.935342	-0.312358	-1.569414
O	-2.674898	0.481225	-0.983902
O	-2.326299	-1.286729	-2.200804
C	-0.228929	1.355243	-2.148941
H	0.821839	1.63245	-2.037867
H	-0.474541	1.28537	-3.210813
H	-0.861678	2.112101	-1.682169
C	-0.460563	1.163396	0.875766
H	-1.543619	1.226008	0.980252
H	-0.015506	1.027001	1.864502
H	-0.08457	2.114546	0.493927
Cl	3.505863	0.0	0.0
