14

C	-0.107714	0.256713	-1.486119
C	-0.136951	0.007089	0.022693
F	-1.333763	0.752937	-1.893984
H	0.892459	-0.293899	0.237968
H	-0.874509	-0.754978	0.277906
N	0.94011	1.034742	-1.978959
H	0.799414	1.976759	-1.628104
H	1.790263	0.618095	-1.482615
N	-0.041109	-1.144151	-2.143596
O	-0.94358	-1.91746	-1.820232
O	0.848629	-1.387878	-2.943914
C	-0.452867	1.247037	0.715603
N	-0.716481	2.24485	1.276343
F	2.52367	-0.202034	-0.395173
