14

C	-0.541823	-0.006439	-1.294451
C	-0.023891	0.00143	0.130168
F	-0.210905	-1.168809	-1.902542
H	1.039156	0.18697	-0.019781
H	-0.1714	-1.012991	0.510001
N	-1.96151	0.13815	-1.405307
H	-2.255491	0.986658	-0.937264
H	-2.210863	0.193037	-2.387131
N	0.12502	1.115548	-2.102095
O	0.142391	2.205928	-1.543041
O	0.356943	0.905307	-3.283993
C	-0.715008	0.94218	0.989378
N	-1.280095	1.686463	1.702986
F	2.163551	0.248128	-1.092465
