14

C	-0.152648	0.016716	-1.433908
C	0.104075	-0.156694	0.049605
F	-1.477791	0.40345	-1.650922
H	1.131867	-0.513341	0.147989
H	0.101489	0.853968	0.464873
N	0.755811	0.875427	-1.994245
H	1.731217	0.681779	-1.50981
H	0.744706	0.799218	-3.003236
N	-0.153254	-1.382751	-2.135039
O	0.105758	-2.388031	-1.478009
O	-0.374924	-1.367492	-3.345077
C	-0.89775	-0.957698	0.738564
N	-1.705933	-1.557431	1.34265
F	2.73541	0.224896	-0.634267
