14

C	-0.138121	0.101851	-1.446952
C	0.003703	-0.032647	0.055349
F	-1.441131	0.458264	-1.803254
H	1.070644	-0.202374	0.205702
H	-0.594681	-0.869154	0.414425
N	0.806419	0.927998	-1.985697
H	1.741368	0.647264	-1.510313
H	0.826377	0.836409	-2.99332
N	-0.113623	-1.362582	-2.067236
O	0.287862	-1.447825	-3.224656
O	-0.546154	-2.303514	-1.405716
C	-0.424648	1.190037	0.721223
N	-0.78253	2.143295	1.305414
F	2.674379	-0.032706	-0.600846
