14

C	-0.027404	0.023328	-1.500071
C	0.042015	0.069358	0.0127
F	-0.019999	1.343218	-1.982235
H	1.097632	0.277571	0.212913
H	-0.16716	-0.925503	0.405173
N	0.942231	-0.798255	-2.019894
H	1.852341	-0.627845	-1.441917
H	1.026445	-0.65635	-3.018284
N	-1.407618	-0.466296	-1.995227
O	-2.183463	-0.965758	-1.183181
O	-1.611148	-0.373893	-3.202849
C	-0.86825	1.040683	0.600351
N	-1.584452	1.820427	1.107266
F	2.745784	-0.229129	-0.378395
