14

C	-0.127153	0.400137	-1.432785
C	-0.092464	-0.014005	0.023942
F	-1.376571	0.915658	-1.785171
H	0.956259	-0.285847	0.195742
H	-0.762487	-0.856763	0.190189
N	0.90441	1.23282	-1.760178
H	0.985792	1.322651	-2.764781
H	1.784878	0.805165	-1.292563
N	-0.161172	-0.926368	-2.311278
O	-0.702608	-1.933097	-1.860373
O	0.312901	-0.833806	-3.440428
C	-0.487124	1.094696	0.881753
N	-0.825217	1.948852	1.612682
F	2.611855	-0.085626	-0.461303
