14

C	-0.229365	-0.081913	0.051225
C	-0.469778	-0.123001	-1.465596
F	0.842637	0.746495	0.366611
H	0.485467	-0.397564	-1.932336
H	-1.133671	0.289354	0.54362
C	0.10103	-1.428716	0.548682
N	0.399438	-2.502586	0.917214
N	-0.831214	1.21473	-1.882292
H	-1.708331	1.44228	-1.412736
H	-1.04586	1.160568	-2.872434
N	-1.470139	-1.111794	-1.847888
H	-1.199437	-2.043634	-1.552285
H	-2.344563	-0.862058	-1.38546
Cl	-3.629739	0.698644	0.056231
