14

C	-0.17144	-0.105943	0.015657
C	-0.524304	-0.24043	-1.472711
F	1.075192	0.502287	0.157475
H	-1.435732	-0.856248	-1.50813
H	-0.932569	0.494833	0.521373
C	-0.072803	-1.441355	0.627327
N	0.029313	-2.524435	1.068392
N	0.505356	-0.901964	-2.259864
H	0.647155	-1.848172	-1.923995
H	1.365388	-0.382245	-2.122392
N	-0.698728	1.094515	-2.00198
H	-0.949551	0.991372	-2.978672
H	-1.499725	1.503509	-1.518165
Cl	-3.28601	1.325948	0.082562
