14

C	-0.224175	-0.09761	0.014909
C	-0.458344	0.291818	-1.452342
F	0.851726	0.600693	0.55275
H	0.498371	0.157776	-1.974388
H	-1.128263	0.126289	0.589748
C	0.09425	-1.532682	0.117048
N	0.384579	-2.667568	0.19424
N	-0.815544	1.693929	-1.475266
H	-1.69707	1.780799	-0.968253
H	-1.020755	1.924292	-2.441823
N	-1.459757	-0.545303	-2.101951
H	-2.335922	-0.428575	-1.592346
H	-1.195435	-1.524355	-2.074486
Cl	-3.622886	0.658893	0.229165
