14

C	-0.234065	-0.095017	0.006196
C	-0.474297	0.602259	-1.341571
F	0.839451	0.476227	0.681649
H	0.480864	0.58667	-1.882994
H	-1.13768	-0.006454	0.617385
C	0.093902	-1.515047	-0.209238
N	0.390185	-2.6337	-0.406659
N	-0.834322	1.975104	-1.059639
H	-1.04684	2.407201	-1.952661
H	-1.712276	1.948366	-0.539975
N	-1.475381	-0.077562	-2.15405
H	-2.3497	-0.081694	-1.628317
H	-1.205643	-1.03641	-2.345971
Cl	-3.634036	0.587181	0.38771
