15

C	-0.499734	-0.028756	-1.449753
C	0.0	0.0	0.0
Cl	-2.277117	0.261907	-1.548308
H	1.090903	0.0	0.0
C	0.151891	1.010005	-2.258704
N	0.621373	1.785582	-3.007375
C	-0.198865	-1.320348	-2.076875
N	0.040239	-2.301516	-2.67624
N	-0.451616	-1.172775	0.796366
O	0.052979	-1.26279	1.90856
O	-1.264805	-1.950149	0.297006
N	-0.487728	1.246009	0.66912
O	-0.083039	2.287001	0.16438
O	-1.249604	1.144804	1.623415
Cl	3.061921	0.0	0.0
