15

C	-0.499464	0.004537	-1.434231
C	0.0	0.0	0.0
Cl	-2.269515	-0.375366	-1.535814
H	1.09079	0.0	0.0
C	-0.26816	1.313677	-2.056716
N	-0.047033	2.352613	-2.559368
C	0.197132	-1.009443	-2.237927
N	0.771656	-1.787383	-2.905685
N	-0.444022	-1.228826	0.702624
O	-0.001647	-2.283862	0.240038
O	-1.278249	-1.132302	1.59894
N	-0.462257	1.16273	0.79025
O	-1.347072	1.896341	0.321793
O	0.153854	1.360636	1.831595
Cl	2.974734	0.0	0.0
