15

C	-0.521841	0.051322	-1.443311
C	0.0	0.0	0.0
Cl	-0.10439	-1.519277	-2.207422
H	1.09013	0.0	0.0
C	-1.974441	0.237067	-1.553782
N	-3.129951	0.369772	-1.722795
C	0.143763	1.112332	-2.205039
N	0.609159	1.937927	-2.900058
N	-0.552641	-1.196277	0.705156
O	-1.775053	-1.201591	0.859495
O	0.233789	-2.063271	1.060383
N	-0.455705	1.188115	0.777688
O	-0.342108	1.108778	1.993819
O	-0.852087	2.161701	0.138969
Cl	3.096133	0.0	0.0
