12

C	-0.338453	0.073796	-1.480594
C	0.0	0.0	0.0
Br	-2.269208	0.536689	-1.711927
H	1.09402	0.0	0.0
H	-0.413008	-0.881157	0.491837
H	-0.348813	0.907207	0.498799
N	0.43481	1.054536	-2.213916
H	0.316172	1.948484	-1.745266
H	1.416804	0.797254	-2.082734
C	-0.176611	-1.234359	-2.127514
N	-0.039051	-2.288225	-2.627759
Br	3.579667	0.0	0.0
