15

C	-0.273915	0.053504	-1.490877
C	0.0	0.0	0.0
Cl	-2.04815	0.276061	-1.862162
H	1.096717	0.0	0.0
H	-0.020889	-0.917592	-1.921164
C	0.557488	1.147952	-2.12187
H	0.516348	1.11088	-3.211142
H	1.57639	0.97969	-1.755406
H	0.216052	2.121805	-1.773762
C	-0.524021	-1.218337	0.611407
N	-0.930826	-2.193596	1.128786
N	-0.41637	1.223198	0.674672
H	0.224747	1.38631	1.443981
H	-1.360581	1.147499	1.037121
F	2.601336	0.0	0.0
