15

C	-0.294619	0.041053	-1.484399
C	0.0	0.0	0.0
Cl	-2.07798	0.230864	-1.833973
H	1.100094	0.0	0.0
H	-0.029618	-0.927681	-1.914249
C	0.503819	1.151368	-2.130681
H	0.438535	1.113408	-3.22105
H	0.144926	2.117087	-1.774683
H	1.534041	1.005181	-1.786051
C	-0.517752	-1.208833	0.632867
N	-0.923454	-2.171145	1.175238
N	-0.398686	1.232538	0.674217
H	-1.312018	1.146261	1.103566
H	0.288679	1.419044	1.394348
F	2.598708	0.0	0.0
