15

C	-0.310361	0.059861	-1.479692
C	0.0	0.0	0.0
Cl	-2.098913	0.224765	-1.807804
H	1.099851	0.0	0.0
H	-0.033683	-0.898552	-1.926642
C	0.461822	1.193951	-2.115442
H	1.496522	1.063419	-1.783694
H	0.087215	2.148059	-1.743088
H	0.387741	1.170179	-3.204944
C	-0.512269	-1.215524	0.623372
N	-0.910542	-2.185928	1.156678
N	-0.393459	1.224776	0.694058
H	0.314288	1.413686	1.39088
H	-1.291577	1.124598	1.151283
F	2.59544	0.0	0.0
