15

C	-0.393857	-0.056026	-1.481513
C	0.0	0.0	0.0
Cl	0.030793	1.504933	-2.262935
H	1.095099	0.0	0.0
H	-1.475627	-0.156271	-1.62035
C	0.398922	-1.168004	-2.147767
H	1.443037	-1.030552	-1.852011
H	0.05177	-2.139808	-1.783897
H	0.292819	-1.143451	-3.234196
C	-0.458551	-1.232933	0.634034
N	-0.867215	-2.206009	1.156012
N	-0.487623	1.182939	0.710202
H	0.294309	1.549457	1.235259
H	-1.225917	0.950862	1.358523
F	2.604604	0.0	0.0
