16

C	0.0	0.0	0.0
C	-0.453843	-0.026463	-1.459537
Br	1.912393	0.0	0.0
H	-1.496653	-0.346463	-1.365223
H	0.162585	-0.78666	-1.946085
N	-0.453268	1.207586	0.828639
O	-0.952028	1.062697	1.925255
O	-0.171691	2.283539	0.307659
N	-0.38252	-1.315541	0.687695
O	-0.188796	-1.395335	1.893268
O	-0.719994	-2.236219	-0.040592
C	-0.387634	1.281609	-2.232147
H	-1.149121	1.964179	-1.860273
H	-0.609707	1.059586	-3.281607
H	0.585054	1.776199	-2.182116
F	-2.482442	0.0	0.0
