16

C	0.0	0.0	0.0
C	-0.448333	0.210604	-1.445646
Br	1.908336	0.0	0.0
H	-0.289603	1.272181	-1.640026
H	-1.532504	0.037055	-1.351453
N	-0.490895	1.140178	0.903501
O	-0.429072	2.24967	0.386735
O	-0.791999	0.911037	2.058611
N	-0.417967	-1.361747	0.552703
O	-0.168439	-1.590229	1.729665
O	-0.857091	-2.170949	-0.250083
C	0.234542	-0.622904	-2.524301
H	-0.336161	-0.496171	-3.44966
H	0.228391	-1.684478	-2.280972
H	1.263426	-0.314744	-2.726457
F	-2.50372	0.0	0.0
