16

C	0.0	0.0	0.0
C	-0.201253	-0.091284	-1.551818
Br	1.917751	0.0	0.0
H	0.37844	-0.972997	-1.832533
H	0.354541	0.768926	-1.931407
N	-0.458746	1.312021	0.592684
O	-0.589893	2.224848	-0.214211
O	-0.517657	1.423917	1.806574
N	-0.454863	-1.238561	0.738334
O	-0.516727	-1.213559	1.956291
O	-0.570314	-2.237939	0.038794
C	-1.530684	-0.150469	-2.284184
H	-1.282583	-0.201549	-3.357314
H	-2.135569	0.725578	-2.07807
H	-2.106373	-1.021686	-1.991869
F	-2.2583	0.0	0.0
