16

C	0.0	0.0	0.0
C	-0.208338	0.118572	-1.545683
Br	1.91761	0.0	0.0
H	0.417699	0.966323	-1.831504
H	0.296183	-0.768577	-1.937348
N	-0.458204	1.22469	0.760455
O	-0.572494	1.166667	1.974237
O	-0.55028	2.240549	0.079081
N	-0.45808	-1.321073	0.573891
O	-0.477128	-1.456155	1.788199
O	-0.629837	-2.215257	-0.246611
C	-1.537196	0.273078	-2.263118
H	-2.20169	-0.554079	-2.046904
H	-2.042209	1.184248	-1.958741
H	-1.299925	0.317828	-3.338991
F	-2.274441	0.0	0.0
