16

C	0.0	0.0	0.0
C	-0.206883	0.157627	-1.545766
Br	1.917609	0.0	0.0
H	0.242743	1.130264	-1.75934
H	0.465981	-0.585422	-1.975366
N	-0.444542	1.195728	0.810052
O	-0.648146	2.221135	0.17378
O	-0.421031	1.107245	2.028967
N	-0.459883	-1.342972	0.524692
O	-0.467371	-2.229839	-0.321717
O	-0.65305	-1.496812	1.717635
C	-1.524699	0.05281	-2.291869
H	-1.275314	0.162035	-3.359684
H	-2.224884	0.81719	-1.980083
H	-1.994421	-0.911481	-2.124462
F	-2.259281	0.0	0.0
