16

C	0.0	0.0	0.0
C	-0.497842	-0.044778	-1.434194
Br	1.912481	0.0	0.0
H	0.06805	-0.84341	-1.921145
H	-1.556568	-0.315598	-1.268705
N	-0.453455	1.222545	0.81497
O	-0.121707	2.289516	0.304079
O	-1.009353	1.089541	1.884963
N	-0.379553	-1.293998	0.731129
O	-0.765061	-2.224011	0.040213
O	-0.145883	-1.344179	1.931734
C	-0.415572	1.245514	-2.231645
H	-0.666513	1.014171	-3.272595
H	-1.154668	1.952188	-1.856724
H	0.56778	1.721749	-2.20947
F	-2.56031	0.0	0.0
