16

C	0.0	0.0	0.0
C	-0.400615	-0.021642	-1.4783
Br	1.952431	0.0	0.0
H	-1.490383	0.078054	-1.405287
H	0.029597	0.891062	-1.892829
N	-0.423394	1.337065	0.637793
O	-0.40428	1.437751	1.853982
O	-0.633903	2.25227	-0.1451
N	-0.458016	-1.195684	0.814603
O	-0.716258	-2.202841	0.172471
O	-0.408174	-1.12915	2.033216
C	0.011107	-1.209966	-2.340017
H	1.063894	-1.485649	-2.233627
H	-0.153625	-0.931184	-3.387092
H	-0.59939	-2.082229	-2.121014
F	-2.431276	0.0	0.0
