18

C	-0.524176	0.02955	-1.450025
C	0.0	0.0	0.0
Br	0.258749	-1.451282	-2.484327
H	1.091004	0.0	0.0
C	-2.044379	-0.054583	-1.598077
H	-2.415003	-0.994431	-1.192463
H	-2.516499	0.772706	-1.063686
H	-2.309238	0.010157	-2.654337
C	-0.062329	1.2661	-2.079313
N	0.226505	2.295317	-2.568549
N	-0.480113	-1.257855	0.655864
O	0.274815	-2.223112	0.678817
O	-1.62377	-1.2489	1.128259
C	-0.461267	1.196386	0.817984
H	-0.04635	2.106006	0.380336
H	-0.045093	1.099626	1.822887
H	-1.545743	1.272315	0.894625
Cl	3.312094	0.0	0.0
