18

C	-0.385582	0.037288	-1.47903
C	0.0	0.0	0.0
Br	-2.371333	0.071706	-1.67886
H	1.094777	0.0	0.0
C	0.199543	1.285472	-2.139022
H	1.275965	1.287173	-1.937787
H	-0.2557	2.187568	-1.73231
H	0.023057	1.255543	-3.214752
C	0.051879	-1.123812	-2.256177
N	0.372815	-1.948344	-3.030362
N	-0.471124	-1.27102	0.63394
O	-1.150143	-1.197817	1.658945
O	-0.142425	-2.322076	0.0899
C	-0.445804	1.200374	0.808097
H	0.054142	2.091988	0.429118
H	-0.121342	1.062446	1.838719
H	-1.527317	1.339446	0.797512
Cl	3.241329	0.0	0.0
