18

C	-0.491777	0.001995	-1.459519
C	0.0	0.0	0.0
Br	0.248458	-1.572336	-2.381931
H	1.089658	0.0	0.0
C	-2.006214	0.019735	-1.667004
H	-2.438428	0.906917	-1.197113
H	-2.218368	0.054412	-2.737133
H	-2.459449	-0.869792	-1.234595
C	0.071035	1.186383	-2.11037
N	0.45922	2.187586	-2.590027
N	-0.459544	-1.23636	0.721484
O	0.378636	-2.085947	0.999455
O	-1.657983	-1.302199	1.032951
C	-0.509987	1.187302	0.80431
H	-0.216501	2.122771	0.326847
H	-1.592026	1.150761	0.936538
H	-0.035498	1.153352	1.787929
Cl	3.250834	0.0	0.0
