18

C	-0.480843	-0.009022	-1.454169
C	0.0	0.0	0.0
Br	0.392545	1.530544	-2.349026
H	1.090895	0.0	0.0
C	-0.068825	-1.275256	-2.202033
H	-0.302951	-1.176956	-3.263793
H	1.002542	-1.434157	-2.065205
H	-0.621176	-2.128992	-1.800582
C	-1.917826	0.23226	-1.589259
N	-3.072936	0.420402	-1.705963
N	-0.401022	-1.29938	0.646447
O	0.461124	-2.185656	0.715884
O	-1.617854	-1.542935	0.737912
C	-0.582178	1.099663	0.854429
H	-0.175574	1.015108	1.866467
H	-0.276519	2.069204	0.456873
H	-1.672662	1.050002	0.904839
Cl	2.877729	0.0	0.0
