15

C	0.0	0.0	0.0
C	-0.297776	-0.075689	-1.503861
F	1.349301	0.0	0.0
H	0.126217	-1.028426	-1.822471
H	-0.405659	-0.847557	0.530089
N	-0.423178	1.22899	0.744998
O	-0.787389	2.226461	0.146962
O	-0.237055	1.138935	1.95949
N	0.478252	0.927875	-2.340673
O	1.020762	1.893771	-1.823666
O	0.506532	0.651317	-3.539496
N	-1.682642	-0.082759	-2.094797
O	-2.115267	-1.200292	-2.352775
O	-2.147154	0.984634	-2.460625
F	-2.272667	0.0	0.0
