15

C	0.0	0.0	0.0
C	-0.268298	-0.055368	-1.500657
F	1.372777	0.0	0.0
H	0.184305	0.820042	-1.95806
H	-0.395375	-0.809755	0.586911
N	-0.39621	1.297791	0.608332
O	-0.503872	1.305438	1.828757
O	-0.419719	2.285092	-0.121649
N	-1.643685	-0.165279	-2.105029
O	-2.07376	-1.290757	-2.312604
O	-2.107283	0.883199	-2.529492
N	0.475802	-1.23976	-2.05531
O	0.538352	-2.260653	-1.379634
O	0.931908	-1.103762	-3.190766
F	-2.243112	0.0	0.0
