15

C	0.0	0.0	0.0
C	-0.288145	-0.067248	-1.49814
F	1.374064	0.0	0.0
H	0.110608	0.828981	-1.965384
H	-0.390407	-0.807431	0.594874
N	-0.395502	1.299743	0.605804
O	-0.498971	1.310379	1.826818
O	-0.423775	2.285357	-0.126277
N	-1.669157	-0.250312	-2.078215
O	-2.063603	-1.398277	-2.227058
O	-2.168622	0.759762	-2.552884
N	0.490884	-1.218851	-2.077832
O	0.875385	-1.071792	-3.238372
O	0.640805	-2.228222	-1.399117
F	-2.243675	0.0	0.0
