16

C	0.0	0.0	0.0
C	-0.43465	0.088764	-1.45228
F	1.352409	0.0	0.0
H	-1.527459	0.085913	-1.507194
N	-0.160489	1.562084	0.796436
O	0.958683	2.002726	0.971688
O	-1.194128	2.052416	1.144671
C	-0.454947	-1.108937	0.810415
N	-0.699069	-1.935179	1.61342
N	0.045908	-1.2689	-2.05122
O	1.042689	-1.248294	-2.776366
O	-0.590424	-2.271604	-1.748805
N	0.165996	1.196017	-2.09546
H	1.155136	1.042601	-2.248333
H	-0.283641	1.361764	-2.985872
Br	-3.341278	0.0	0.0
