18

C	0.0	0.0	0.0
C	-0.456904	-0.464035	-1.39283
F	1.359263	0.0	0.0
H	0.328786	-0.119868	-2.076747
C	-0.553911	1.337561	0.406523
H	-1.642503	1.281291	0.475157
H	-0.120479	1.60497	1.372392
H	-0.28558	2.082533	-0.343161
N	-0.410214	-1.001671	1.075181
O	0.25223	-0.976384	2.108063
O	-1.391982	-1.697191	0.847573
N	-1.704587	0.016596	-1.782409
H	-2.485659	-0.157162	-1.132944
H	-1.962693	-0.301946	-2.704672
N	-0.262266	-2.013759	-1.516459
O	-1.035262	-2.602015	-2.261696
O	0.708961	-2.512217	-0.954346
Cl	-4.314861	0.0	0.0
