18

C	0.0	0.0	0.0
C	-0.585049	0.080993	-1.415941
F	1.360919	0.0	0.0
H	-1.671394	0.209848	-1.315405
C	-0.576249	0.964182	0.994694
H	-1.663073	0.834146	1.021394
H	-0.137716	0.772001	1.977049
H	-0.345956	1.985215	0.689142
N	-0.32156	-1.438559	0.470457
O	-1.502204	-1.719419	0.59577
O	0.630254	-2.190837	0.669831
N	-0.276971	-1.006372	-2.285287
H	-0.976158	-1.728859	-2.184127
H	0.650368	-1.375725	-2.122112
N	-0.019316	1.353879	-2.006452
O	1.025679	1.259522	-2.64335
O	-0.625302	2.398164	-1.771745
Cl	-4.034697	0.0	0.0
