14

C	0.0	0.0	0.0
C	-0.271085	-0.357973	-1.480611
Br	1.957508	0.0	0.0
H	0.198816	-1.328373	-1.652316
H	-0.377195	0.952696	0.336149
N	-0.409604	-1.065204	0.957441
O	-0.543593	-0.713341	2.120971
O	-0.447198	-2.214834	0.536627
C	0.346059	0.639655	-2.36255
N	0.824991	1.404796	-3.11415
N	-1.690409	-0.552532	-2.018054
O	-2.072026	-1.713728	-2.053837
O	-2.221502	0.403108	-2.562911
F	-2.22872	0.0	0.0
