12
Coordinates from ORCA-job run
  C   0.61608588527948     -0.41972290269932      0.19291156304224
  C   -0.35947897562925     -0.02642963154073     -0.65614925233526
  H   1.27098320166201     -1.22439493294975     -0.14097378086628
  C   0.89424399667485      0.18222896399959      1.53428374129221
  H   0.86487024342729     -0.58171435712158      2.31661366275928
  H   1.89163676861387      0.63179460529289      1.56053384345496
  H   0.16909004609014      0.95693624433517      1.78896045455901
  N   -0.53651700700975     -0.48676318834610     -1.97021045150617
  H   -1.50703015126652     -0.59517767224810     -2.22831544116028
  H   -0.01508730173678     -1.33125525131264     -2.15859168899625
  C   -1.26402519460951      1.02628472337516     -0.27635215294126
  N   -2.02377151149584      1.86821339921542      0.03528950269782
