12
Coordinates from ORCA-job run
  C   0.64429587474889      0.42354000392264      0.40425156789670
  C   -0.19890495086027      0.40514386529212     -0.65338949720805
  H   1.30692173842301      1.27481888110265      0.51190047933335
  C   0.70153354544646     -0.70014415251544      1.39522252921471
  H   1.49855584358340     -0.54423674848384      2.12174039546028
  H   0.88539266193739     -1.65908674773712      0.89843455819716
  H   -0.23581622319264     -0.79732346270617      1.95688427250906
  N   -1.04755930623470     -0.65910062474486     -0.97681889190390
  H   -1.85530371919833     -0.38817461531838     -1.51707610863232
  H   -1.30668944032216     -1.22215112324798     -0.18005477981012
  C   -0.18848111681279      1.49000743224629     -1.59426620788690
  N   -0.20294490751825      2.37670729219008     -2.36682831716999
