12
Coordinates from ORCA-job run
  C   0.00734315277961      0.51406899084427      0.70376597650150
  C   -0.26058106327529      0.42312645015779     -0.61904180284875
  H   -0.21160680583371      1.45048502777832      1.20464206236632
  C   0.61451363679179     -0.62102094126040      1.47161380602438
  H   1.53667370756016     -0.97359922458549      0.99687610638578
  H   0.86068028586773     -0.31939094674990      2.48935663153009
  H   -0.06376586938888     -1.48086992305459      1.54142207591710
  N   0.04405577968074     -0.68525349509193     -1.41753029158296
  H   -0.53470211190864     -0.76631572971282     -2.23977488468954
  H   0.07633553484360     -1.55289911489924     -0.90228707836155
  C   -0.80486675687591      1.55248247631093     -1.31935375209252
  N   -1.26407949024119      2.46018643026306     -1.90968884914984
