12
Coordinates from ORCA-job run
  C   0.44614759636050     -0.55689125349018      0.29176479334972
  C   -0.29398586009753      0.00892746269874     -0.68749874083738
  H   0.85674190133674     -1.54697392752159      0.09471768992448
  C   0.77773679767138      0.07817278290656      1.60544830305607
  H   0.29952819196247      1.05280292786144      1.71637937827914
  H   1.85819444673032      0.21889832693406      1.70810827977215
  H   0.45584756752007     -0.55552015200876      2.43686964299086
  N   -0.49100561974852     -0.51832078270395     -1.97363564945782
  H   -0.24193681876586     -1.49586691828597     -2.03333654195011
  H   -1.42304427703748     -0.36097887907473     -2.32999429183129
  C   -0.87277764380055      1.31182103887956     -0.49338701119551
  N   -1.37244628213154      2.36492937380483     -0.33643585210033
