12
Coordinates from ORCA-job run
  C   0.58619790953237      0.49873627120721      0.40700250807640
  C   -0.29181180600757      0.40434432122674     -0.61773859518608
  H   1.18622452286566      1.39856571977910      0.48175825350821
  C   0.72465865599833     -0.58135492475389      1.43758722849952
  H   1.11312690661133     -1.51159279225346      1.00476830344722
  H   1.41003174617038     -0.28319872623005      2.23050222596935
  H   -0.24047204889388     -0.81424717367391      1.90059371248473
  N   -1.19366109825329     -0.64993346882396     -0.79918687793960
  H   -1.48390417690815     -0.77910137617809     -1.75666396629856
  H   -0.88553215191059     -1.51751500881407     -0.38520255565226
  C   -0.41137816946420      1.48320695743428     -1.55805792411558
  N   -0.51248028974040      2.35109020108011     -2.34536231279335
