12
Coordinates from ORCA-job run
  C   0.30538602951535     -0.59126452034849      0.38970341076469
  C   -0.34650324663495     -0.04550661835322     -0.66105709545763
  H   0.53093805034560     -1.65604371191649      0.33499113432012
  C   0.71153886590450      0.13717549518961      1.63168227528563
  H   0.19661391318315     -0.26832330154506      2.50808629904932
  H   1.78513818265395      0.02970270883817      1.81169920217502
  H   0.48269970949037      1.20233174312430      1.56957071347302
  N   -0.85405021790768     -0.74811449608574     -1.76531411360071
  H   -0.75931612999301     -0.24406202532345     -2.63544162651167
  H   -0.47032373895270     -1.67940506755195     -1.84222598309652
  C   -0.66834198996676      1.35713673741487     -0.66067923268228
  N   -0.91277942763784      2.50737305655746     -0.68201498371899
