12
Coordinates from ORCA-job run
  C   0.47449992054302      0.52534173410155      0.50680695177405
  C   -0.26214414236019      0.41715335757781     -0.62254774366704
  H   0.95412234244382      1.47561413053300      0.71222232509215
  C   0.61505640887358     -0.60977210169121      1.47632595445478
  H   -0.36430367049775     -0.98286341947059      1.79519057635564
  H   1.16147912059000     -1.45516875556546      1.04020946755042
  H   1.15914746886800     -0.29958027031767      2.36805304955380
  N   -1.00941737897901     -0.71027416777568     -0.98065797667179
  H   -1.17273209095773     -0.79447394049614     -1.97252648878259
  H   -0.65238952201598     -1.56964251687883     -0.58946180211876
  C   -0.39632346992390      1.54690430991303     -1.49890537450516
  N   -0.50599498658385      2.45776164007020     -2.23470893903550
