12
Coordinates from ORCA-job run
  C   0.41585663681106     -0.60665050771127      0.37680187614439
  C   -0.33311799026843     -0.10162160453277     -0.62085123972149
  H   0.75425124313401     -1.63079174616381      0.23396965391067
  C   0.81432177792947      0.11261142926852      1.62335427056535
  H   0.39660718095605      1.11957096382414      1.66685007534297
  H   1.90375770576220      0.18818974087604      1.68993747461824
  H   0.47894774312608     -0.44081148275188      2.50502413444663
  N   -0.61437301899772     -0.87512673074772     -1.79216225133745
  H   -0.05153489066624     -0.55405101843446     -2.57133641121237
  H   -1.58686097433482     -0.77430072533408     -2.05702745827873
  C   -0.85965243792252      1.23904249913864     -0.54018543071750
  N   -1.31820297552913      2.32293918256864     -0.51437469376071
