12
Coordinates from ORCA-job run
  C   0.41631312569945     -0.57136801939225      0.30623785348452
  C   -0.28455319263812      0.01133561398798     -0.69197596017615
  H   0.78108298321531     -1.58358157427687      0.13217631881462
  C   0.76036329463659      0.06889534196811      1.61429484507508
  H   0.39976470699650     -0.53789974730088      2.44990743483606
  H   0.32404436007924      1.06501450779295      1.70512653476775
  H   1.84441602448663      0.16394581404656      1.72967554238836
  N   -0.49082085573829     -0.52811489736730     -1.97139133409837
  H   -0.28214348464641     -1.51576133074929     -2.01285965158765
  H   -1.41117891793220     -0.33725323402296     -2.34123118719994
  C   -0.80316275263869      1.34345149587587     -0.52678893340492
  N   -1.25412529152002      2.42133602943808     -0.39217146289935
