12
Coordinates from ORCA-job run
  C   0.38165284404692     -0.58202075672168      0.33047128206212
  C   -0.40835956911060     -0.04370694430130     -0.62513220581598
  H   0.56137896506112     -1.65576792873651      0.27968485545778
  C   1.05724382905395      0.17768687060559      1.42839350894687
  H   0.79178712252173      1.23610776372505      1.41132504351703
  H   2.14555696751108      0.10195594098724      1.34372542985869
  H   0.78182351074890     -0.22618910779140      2.40693054440447
  N   -0.92865385470376     -0.72538726546957     -1.73611610407246
  H   -1.86390124151955     -0.43437468951550     -1.98273410250091
  H   -0.87589472417061     -1.72916365646237     -1.63504563653958
  C   -0.69216253933988      1.36688013744601     -0.61675021093957
  N   -0.95147131009931      2.51397963623445     -0.60475240437844
