12
Coordinates from ORCA-job run
  C   0.65777954180963      0.40453090218718      0.40084853009177
  C   -0.19270739748685      0.41177205501636     -0.65103953051959
  H   1.41345343950161      1.18038808284118      0.44900306584941
  C   0.56094928143098     -0.61532288754008      1.49571695606098
  H   1.27125830772780     -0.40299990805892      2.29440864840910
  H   -0.44185541650347     -0.63196157027102      1.93629378204874
  H   0.77544453471865     -1.62748241451968      1.13110089644362
  N   -1.27199990759551     -0.46445040451305     -0.80913508812044
  H   -1.55239281339708     -0.59826288961456     -1.76893871620408
  H   -1.14619559151548     -1.34596983535803     -0.33358111950210
  C   -0.08002357175567      1.43376477423368     -1.65358829878999
  N   0.00628959306539      2.25499409559694     -2.49108912576744
