12
Coordinates from ORCA-job run
  C   0.32503139091950      0.54186641947703      0.59788201664184
  C   -0.23318096350771      0.42536041184229     -0.62876906927182
  H   0.53913058029107      1.53869066075278      0.96641804830304
  C   0.67495556915789     -0.65527980046981      1.43011951393285
  H   1.19435103505613     -0.36166059822840      2.34200942165743
  H   1.32653858976711     -1.34428203197320      0.88173490794390
  H   -0.21720958169945     -1.21797398615900      1.73151547979560
  N   -0.48595782564023     -0.78843201801060     -1.27717732996371
  H   -0.61947574031217     -1.56212951453646     -0.64265648986183
  H   -1.22500897096470     -0.73956374534096     -1.96212964514871
  C   -0.51426423548604      1.60345404425509     -1.40036072671919
  N   -0.76390984758138      2.55795015839123     -2.04058612730940
