12
Coordinates from ORCA-job run
  C   0.47459684845922     -0.51637252061795      0.31988652087174
  C   -0.36586079434387     -0.08427046068571     -0.64655679279228
  H   0.96321264950978     -1.47736290141746      0.15995001158790
  C   0.76042475905690      0.19639378161009      1.60419132583523
  H   1.83338072954852      0.37546731540514      1.71888505274575
  H   0.44056138040153     -0.40338637542113      2.46188794596579
  H   0.24817396171376      1.15864191015192      1.65651091674275
  N   -0.74903760551406     -0.81136159491764     -1.78428035294503
  H   -0.84515787017233     -0.23865366493967     -2.61081705439463
  H   -0.14642835370323     -1.60306409175333     -1.95973058767455
  C   -1.03922936192833      1.17967734086103     -0.50506814870621
  N   -1.57563634302789      2.22229126172471     -0.41385883723646
