12
Coordinates from ORCA-job run
  C   0.63032626305744     -0.40992394655311      0.20272532978091
  C   -0.41417052875161     -0.12709990383655     -0.60691473173562
  H   1.32780438962783     -1.17273961176572     -0.14296316756704
  C   0.90296628723183      0.23141911358053      1.52593215638716
  H   0.18545817312304      1.02324001819523      1.74747325826336
  H   1.90653196292976      0.66642430158706      1.54460511108195
  H   0.86030856546567     -0.50227217166502      2.33630246839939
  N   -0.73215151354182     -0.80046442030287     -1.79634484479832
  H   0.05651444631322     -1.26888372897699     -2.21589849724633
  H   -1.21442533179241     -0.22353358762867     -2.46850075957287
  C   -1.37205770808019      0.87321836699821     -0.21494061817848
  N   -2.13810500558275      1.71161557036791      0.08752429518591
