12
Coordinates from ORCA-job run
  C   0.32649618373915     -0.60304235018667      0.35251925406924
  C   -0.55823930152374     -0.03719650790282     -0.49880720449921
  H   0.35157829052375     -1.69190968611908      0.38973892146309
  C   1.23136698297244      0.14293519217194      1.28043792811454
  H   0.95774154424737     -0.03610552090571      2.32490545283332
  H   2.26814413702794     -0.18123786938565      1.15550816451204
  H   1.19308707683509      1.21906189541705      1.10089153339767
  N   -1.51274464935179     -0.72378054986025     -1.26772848011185
  H   -1.31359995626865     -1.71430372327579     -1.31547920531110
  H   -1.62489862724793     -0.33662891575171     -2.19504998900236
  C   -0.63671372477990      1.39628528828355     -0.60549276708270
  N   -0.68321795617371      2.56592274751514     -0.72244360838270
