12
Coordinates from ORCA-job run
  C   0.15089728517749      0.43624253050041      0.73868070314922
  C   -0.53144833661636      0.40360037151001     -0.42886587027052
  H   0.02663579941333      1.30409319374114      1.37640524288318
  C   1.03741149795052     -0.69191167271451      1.17371941460979
  H   1.92198863116306     -0.78747840883070      0.53178019007218
  H   1.39293135481948     -0.54162286807348      2.19276430807386
  H   0.50540507499598     -1.64893307582611      1.14295699488943
  N   -0.54057636217418     -0.67857258137613     -1.31568270867761
  H   0.29229575091828     -1.24671599384352     -1.26489755215791
  H   -0.75880417715738     -0.42548934528000     -2.26744868174913
  C   -1.39669068892007      1.49399670028956     -0.78225087159405
  N   -2.10004582957015      2.38279114990334     -1.09616116922845
