12
Coordinates from ORCA-job run
  C   0.43503606338069     -0.55524253946479      0.30960758876982
  C   -0.31579902588330     -0.01859461180296     -0.67787140766560
  H   0.80147278659420     -1.57049711504885      0.15883140755711
  C   0.83231012711364      0.13960993096410      1.57388717533565
  H   1.92001493780420      0.24167752894644      1.63747977235605
  H   0.39539457022890      1.13722734109818      1.64196337621996
  H   0.51125784852294     -0.43256733441418      2.44921835013590
  N   -0.57445592690356     -0.61108512752975     -1.92401752634928
  H   -0.36120917467836     -1.59867023632255     -1.93491826517693
  H   -1.51210081635055     -0.44039558654924     -2.25898582165173
  C   -0.83896357714241      1.31514353022139     -0.54322507527884
  N   -1.29295781268642      2.39439421990222     -0.43196957425211
