12
Coordinates from ORCA-job run
  C   0.41499842461846     -0.56273446953063      0.32374526324948
  C   -0.29089902260383     -0.01229743291564     -0.68908686534845
  H   0.77305739188562     -1.58249635029101      0.18286627982444
  C   0.77460360117937      0.12249715558506      1.60434856606243
  H   1.86035420029518      0.21270824283948      1.70736741314201
  H   0.41631227781317     -0.45010648327930      2.46481695307753
  H   0.34670261396329      1.12475282630349      1.66175533022969
  N   -0.51033646650108     -0.59632331247772     -1.94654185137884
  H   -1.43216786005546     -0.41250946027990     -2.31642895746436
  H   -0.30872762553209     -1.58630881286730     -1.95377745111332
  C   -0.79990554166506      1.32822749442451     -0.56802938037565
  N   -1.24199199339756      2.41359060248896     -0.46903529990496
