12
Coordinates from ORCA-job run
  C   0.08257797157985      0.44530914466065      0.74366297054441
  C   -0.40630103804263      0.44436272988187     -0.51768476712688
  H   -0.04058639917623      1.34418930931382      1.33710117998560
  C   0.75291421799326     -0.75744621089663      1.33711777647118
  H   0.11257970920751     -1.64344329544052      1.26578589605702
  H   1.69524248483479     -0.99333883146730      0.82746559457357
  H   0.98551323393888     -0.59848760759775      2.38972088788259
  N   -0.40156935025086     -0.66398023190003     -1.37160100224038
  H   -0.43113060919800     -0.42658352958694     -2.35163762870571
  H   0.33866513135454     -1.32064000913111     -1.17168507455378
  C   -1.07432423801180      1.60964167603920     -1.02573514522066
  N   -1.61158111422930      2.56041685612476     -1.46251068766694
