12
Coordinates from ORCA-job run
  C   0.71611673082319      0.37777174718086      0.31951070096331
  C   -0.27542074886554      0.44422219232588     -0.59823760526672
  H   1.48609890043519      1.14041685632552      0.29295049446780
  C   0.75584371359805     -0.69049455946473      1.37080664470667
  H   0.89221964451426     -1.68792404810776      0.93479591783191
  H   -0.17345593173697     -0.71174535799187      1.95060984070414
  H   1.57847397585573     -0.52776277712179      2.06681820243523
  N   -1.38306374664342     -0.40971299858225     -0.63715885339801
  H   -1.79881999694022     -0.49814669311784     -1.55208028937927
  H   -1.20787551867181     -1.31261189033719     -0.22122788901374
  C   -0.28742483110669      1.50952013246851     -1.56116239266917
  N   -0.30469219126177      2.36646739642266     -2.36662477138218
