12
Coordinates from ORCA-job run
  C   0.54509866254163     -0.47711623422708      0.26410692312240
  C   -0.39548733167968     -0.09416960164318     -0.62794693142462
  H   1.12388564974899     -1.36900603113701      0.02457468832727
  C   0.83392597161060      0.20255353343264      1.56561954807754
  H   0.63471041901583     -0.46655426346426      2.40841256095438
  H   1.88668400612802      0.49322348264008      1.62695921014410
  H   0.22689555835558      1.09987028118995      1.69736170380941
  N   -0.76833994075000     -0.80300886966159     -1.78073492533980
  H   -0.09533042461376     -1.51293091054832     -2.03332556610679
  H   -0.97535438690092     -0.20456875039724     -2.56758717590506
  C   -1.18962372976543      1.07966528998007     -0.37914151875786
  N   -1.82606445369087      2.05204207383595     -0.19829851690099
