12
Coordinates from ORCA-job run
  C   0.43996308130609     -0.54776545710447      0.31680166050743
  C   -0.29486855559787     -0.01921423319508     -0.68714515704815
  H   0.83875301910497     -1.55077759131268      0.16552851039802
  C   0.77844588398480      0.14156893135065      1.60101592732519
  H   1.86024567372669      0.27471191508688      1.69921150586283
  H   0.44798707454360     -0.45122921329425      2.45888777122156
  H   0.31098211271820      1.12541237315892      1.66798145806438
  N   -0.49827857203581     -0.60178999757035     -1.94776347808291
  H   -1.42859440008026     -0.45199558547048     -2.31148205303914
  H   -0.25507009355494     -1.58213590446026     -1.96573480815148
  C   -0.85731431954969      1.29864315848659     -0.55303829446196
  N   -1.34225090456578      2.36457160432452     -0.44426304259579
