17

C	-0.112235	-0.119475	-1.528928
C	0.0	0.0	0.0
Cl	-1.730685	-0.852238	-2.089262
H	1.099079	0.0	0.0
C	-0.118394	1.212953	-2.164531
N	-0.050683	2.225283	-2.759172
N	0.966979	-0.950678	-1.958731
H	1.804552	-0.68919	-1.386576
H	1.145566	-0.844798	-2.948873
C	-0.469421	-1.256911	0.707421
H	-0.094592	-2.143015	0.192373
H	-0.072622	-1.255289	1.726999
H	-1.563786	-1.31547	0.750804
N	-0.562956	1.237273	0.502641
H	0.105544	1.67017	1.126139
H	-1.418341	1.061341	1.015466
F	2.711708	0.0	0.0
