17

C	-0.094084	0.074147	-1.542398
C	0.0	0.0	0.0
Cl	-0.001413	-1.692503	-2.261567
H	1.105051	0.0	0.0
C	-1.377205	0.554945	-2.07379
N	-2.408284	0.930719	-2.495186
N	0.994342	0.864837	-1.944833
H	1.846897	0.587326	-1.393643
H	1.140018	0.876292	-2.944356
C	-0.706008	-1.145417	0.675282
H	-1.773586	-1.151096	0.432527
H	-0.265429	-2.101745	0.400383
H	-0.606719	-1.030903	1.759863
N	-0.538894	1.28239	0.496384
H	-0.367622	1.296312	1.497765
H	0.058761	2.006777	0.110677
F	2.755876	0.0	0.0
