17

C	-0.536297	0.027675	-1.427709
C	0.0	0.0	0.0
Cl	-0.012614	1.520431	-2.274979
H	1.095642	0.0	0.0
C	0.028519	-1.092983	-2.208927
N	0.369331	-2.040157	-2.815642
N	-1.994414	0.008053	-1.470606
H	-2.302762	-0.864642	-1.053937
H	-2.301022	0.011803	-2.438538
C	-0.417681	-1.28707	0.710002
H	-1.487541	-1.311218	0.970359
H	0.157195	-1.342459	1.637753
H	-0.172405	-2.181314	0.129258
N	-0.416776	1.203946	0.70446
H	0.372302	1.502806	1.262652
H	-1.212312	1.032908	1.306446
F	2.629087	0.0	0.0
