17

C	-0.577278	0.001742	-1.418401
C	0.0	0.0	0.0
Cl	0.355388	1.269115	-2.405215
H	1.097711	0.0	0.0
C	-0.343981	-1.260871	-2.127382
N	-0.168606	-2.27176	-2.698878
N	-1.971576	0.29057	-1.392706
H	-2.316401	0.510575	-2.318693
H	-2.057865	1.098626	-0.778525
C	-0.503978	-1.197342	0.786778
H	-0.246676	-2.133534	0.286958
H	0.005966	-1.201551	1.755154
H	-1.58934	-1.170046	0.943825
N	-0.449459	1.266372	0.625213
H	-0.732107	1.076366	1.578983
H	0.380892	1.848242	0.678333
F	2.640058	0.0	0.0
