17

C	-0.57305	-0.003689	-1.421155
C	0.0	0.0	0.0
Cl	0.373076	1.248204	-2.413559
H	1.097725	0.0	0.0
C	-0.35226	-1.273177	-2.122089
N	-0.235334	-2.295345	-2.688355
N	-1.9648	0.297451	-1.400471
H	-2.043743	1.115965	-0.798792
H	-2.305672	0.506784	-2.330156
C	-0.503649	-1.195444	0.791886
H	-0.23863	-2.133587	0.299641
H	0.00061	-1.189497	1.763225
H	-1.590317	-1.173775	0.942223
N	-0.44663	1.270488	0.617372
H	0.394152	1.832682	0.706072
H	-0.777886	1.083096	1.557322
F	2.64069	0.0	0.0
