17

C	-0.157861	-0.094053	-1.537856
C	0.0	0.0	0.0
Cl	-0.024949	-1.827234	-2.076534
H	1.094732	0.0	0.0
C	-1.485821	0.361079	-1.975489
N	-2.572111	0.719859	-2.245709
N	0.901417	0.645536	-2.189682
H	0.692712	1.623746	-2.007063
H	1.745407	0.433364	-1.618668
C	-0.68897	-1.047912	0.843842
H	-1.776578	-1.044604	0.682185
H	-0.311724	-2.049712	0.637649
H	-0.500617	-0.827135	1.899845
N	-0.379221	1.379803	0.329783
H	0.302697	1.740512	0.986453
H	-1.298699	1.417483	0.756625
F	2.692917	0.0	0.0
