17

C	-0.486097	0.012767	-1.450773
C	0.0	0.0	0.0
Br	0.401499	1.393997	-2.521867
H	1.088639	0.0	0.0
N	-0.055062	-1.31016	-2.103228
O	-0.547682	-1.560641	-3.199369
O	0.768286	-1.998201	-1.511022
C	-1.987497	0.143527	-1.600442
H	-2.324932	1.066675	-1.127888
H	-2.261997	0.150545	-2.653547
H	-2.471125	-0.702042	-1.101858
C	-0.553917	-1.151112	0.686714
N	-0.986551	-2.098791	1.234661
N	-0.420099	1.219655	0.705218
O	0.166431	2.259229	0.380995
O	-1.263404	1.139911	1.616878
H	2.421925	0.0	0.0
