17

C	-0.421964	-0.026878	-1.495871
C	0.0	0.0	0.0
Br	-2.373953	-0.15275	-1.692293
H	1.115542	0.0	0.0
N	-0.04167	1.241909	-2.206466
O	-0.172555	1.13924	-3.515874
O	-0.599478	2.31342	-1.683339
C	0.192874	-1.239157	-2.208041
H	-0.126025	-1.286368	-3.258917
H	-0.13251	-2.17008	-1.718661
H	1.292175	-1.177045	-2.166818
C	-0.362571	-1.251455	0.84984
N	0.19884	-1.489274	1.8667
N	-0.476985	1.17886	0.778306
O	0.315403	1.419271	1.804245
O	-1.748782	1.073418	1.067284
H	2.487874	0.0	0.0
