17

C	-0.553169	0.349196	-1.382147
C	0.0	0.0	0.0
F	-0.079034	1.593911	-1.707645
H	1.095789	0.0	0.0
N	-0.014094	-0.590341	-2.448628
O	0.451383	-1.664342	-2.081022
O	-0.144607	-0.209737	-3.609437
C	-2.056777	0.355223	-1.491065
H	-2.45301	-0.654945	-1.372743
H	-2.444933	0.992753	-0.698063
H	-2.335217	0.747175	-2.469599
C	-0.549721	-1.265778	0.478965
N	-1.045175	-2.230181	0.933156
N	-0.468994	1.080281	0.906212
H	0.171184	1.853751	0.749204
H	-0.286568	0.767358	1.854407
Br	3.443141	0.0	0.0
