17

C	-0.366153	0.015287	-1.478124
C	0.0	0.0	0.0
F	0.141068	-1.109831	-2.055945
H	1.09556	0.0	0.0
N	-1.880062	-0.090182	-1.684774
O	-2.272721	-0.650819	-2.700421
O	-2.601912	0.430449	-0.834074
C	0.137461	1.239089	-2.192547
H	-0.082207	1.149555	-3.258535
H	-0.320087	2.132203	-1.771519
H	1.217134	1.279196	-2.033819
C	-0.466802	-1.251213	0.616745
N	-0.870078	-2.23158	1.121359
N	-0.386608	1.214905	0.69345
H	0.264139	1.366799	1.451231
H	-1.329662	1.15175	1.048158
Br	3.430103	0.0	0.0
