17

C	-0.386877	0.223727	-1.454188
C	0.0	0.0	0.0
F	-0.218997	-0.946072	-2.162793
H	1.105792	0.0	0.0
N	-1.890533	0.49522	-1.574841
O	-2.285681	0.990269	-2.6278
O	-2.61695	0.138172	-0.64672
C	0.398833	1.332203	-2.090414
H	1.458413	1.090468	-1.972517
H	0.131975	1.417656	-3.142927
H	0.192021	2.268376	-1.571352
C	-0.457784	-1.296701	0.511953
N	-0.821503	-2.308319	0.9879
N	-0.411622	1.149623	0.793769
H	0.296259	1.328022	1.494662
H	-1.300966	0.976829	1.241039
Br	3.436928	0.0	0.0
