17

C	-0.522429	0.016295	-1.443365
C	0.0	0.0	0.0
F	0.138321	0.99556	-2.113032
H	1.093495	0.0	0.0
N	-0.16296	-1.298022	-2.128085
O	0.801367	-1.31335	-2.879591
O	-0.896824	-2.250513	-1.862482
C	-2.00654	0.246848	-1.573554
H	-2.218343	1.224931	-1.14232
H	-2.569473	-0.526512	-1.053545
H	-2.284196	0.246977	-2.629981
C	-0.496245	-1.153544	0.749311
N	-0.960379	-2.015301	1.400219
N	-0.396102	1.264916	0.636559
H	0.444112	1.685262	1.015922
H	-1.044273	1.104278	1.395792
Br	3.41233	0.0	0.0
