17

C	-0.48845	-0.171882	-1.438549
C	0.0	0.0	0.0
F	-1.822741	-0.499177	-1.442697
H	1.105594	0.0	0.0
N	-0.392886	1.18893	-2.106772
O	-1.434332	1.801143	-2.310866
O	0.740015	1.563999	-2.378127
C	0.303397	-1.182022	-2.223368
H	-0.053155	-1.215471	-3.255173
H	0.164949	-2.16329	-1.766312
H	1.361076	-0.918564	-2.187142
C	-0.432674	-1.183683	0.762273
N	-0.824651	-2.086294	1.40484
N	-0.454084	1.254755	0.572997
H	0.213876	1.55304	1.271318
H	-1.368482	1.165134	0.995771
Br	3.440996	0.0	0.0
