17

C	-0.537799	-0.0955	-1.424687
C	0.0	0.0	0.0
F	-0.141716	1.034154	-2.086297
H	1.100501	0.0	0.0
N	0.092021	-1.264439	-2.165561
O	0.173357	-1.156139	-3.383928
O	0.394718	-2.245777	-1.497185
C	-2.035341	-0.232587	-1.532578
H	-2.485575	0.573685	-0.95422
H	-2.360818	-1.193455	-1.131155
H	-2.323076	-0.15206	-2.582018
C	-0.493466	-1.081044	0.848019
N	-0.903575	-1.885779	1.598201
N	-0.500776	1.283845	0.543724
H	0.099346	1.998868	0.141633
H	-0.291394	1.279613	1.53707
Br	3.4333	0.0	0.0
