18

C	-0.50841	0.016764	-1.443138
C	0.0	0.0	0.0
F	-0.226231	-1.203038	-2.04602
H	1.09912	0.0	0.0
N	-1.950051	0.147657	-1.416239
H	-2.144648	0.950284	-0.826431
H	-2.288171	0.336052	-2.353576
C	0.222529	1.066249	-2.264492
H	-0.08028	0.976492	-3.31266
H	-0.027601	2.069955	-1.913827
H	1.301321	0.912835	-2.183587
N	-0.49473	-1.163917	0.680441
H	-1.502335	-1.11893	0.76808
H	-0.053223	-1.256368	1.585935
N	-0.465659	1.284168	0.621082
H	-0.510571	1.11398	1.619969
H	0.281816	1.962891	0.498758
Cl	3.549917	0.0	0.0
