18

C	-0.504882	-0.056973	-1.435985
C	0.0	0.0	0.0
F	-0.051616	-1.314614	-1.956447
H	1.095089	0.0	0.0
N	-1.930035	-0.029919	-1.447679
H	-2.269797	-0.198961	-2.386277
H	-2.256765	-0.7656	-0.830483
C	0.110812	1.006199	-2.30691
H	-0.201587	1.987478	-1.953773
H	1.198407	0.927008	-2.243684
H	-0.205515	0.862412	-3.345449
N	-0.537206	-1.188388	0.703978
H	-0.1143	-1.997419	0.253829
H	-0.143262	-1.165909	1.641344
N	-0.436631	1.239487	0.60368
H	0.121848	1.42547	1.426524
H	-1.412937	1.15974	0.862771
Cl	3.557558	0.0	0.0
