18

C	-0.446192	0.134215	-1.457673
C	0.0	0.0	0.0
F	-0.031768	-1.064234	-2.106907
H	1.098509	0.0	0.0
N	-1.867299	0.238636	-1.509025
H	-2.186385	0.166624	-2.467502
H	-2.229511	-0.544801	-0.971047
C	0.25092	1.260925	-2.177615
H	-0.060842	2.218535	-1.759126
H	-0.006969	1.239925	-3.241752
H	1.329762	1.143462	-2.063426
N	-0.598208	-1.23201	0.528335
H	-0.510076	-1.17127	1.537895
H	-0.028839	-2.010389	0.214693
N	-0.444736	1.11279	0.823581
H	0.266551	1.835604	0.808652
H	-1.315088	1.47967	0.452745
Cl	3.565462	0.0	0.0
