18

C	-0.4433	0.093214	-1.460281
C	0.0	0.0	0.0
F	-0.141791	1.398121	-1.890214
H	1.099252	0.0	0.0
N	0.312431	-0.796857	-2.308171
H	1.298943	-0.598441	-2.138603
H	0.155516	-1.731118	-1.939187
C	-1.930225	-0.102863	-1.657736
H	-2.215144	-1.11936	-1.382147
H	-2.482363	0.603191	-1.035326
H	-2.163752	0.063855	-2.70982
N	-0.419616	-1.299252	0.521615
H	0.289969	-1.636236	1.160343
H	-1.278674	-1.160308	1.043107
N	-0.571962	1.099645	0.786694
H	-0.39549	1.955441	0.270178
H	-0.016146	1.172848	1.633733
Cl	3.505887	0.0	0.0
