18

C	-0.469862	0.018822	-1.458932
C	0.0	0.0	0.0
F	-0.165145	-1.231133	-2.019036
H	1.100086	0.0	0.0
N	-1.905867	0.143871	-1.473757
H	-2.223357	0.417088	-2.395715
H	-2.123747	0.883012	-0.812173
C	0.290528	1.040726	-2.281579
H	0.05393	2.049265	-1.935168
H	1.365087	0.869892	-2.18207
H	0.002101	0.953443	-3.334266
N	-0.500987	-1.155883	0.724148
H	0.192605	-1.889236	0.649599
H	-1.345738	-1.480267	0.265282
N	-0.510998	1.227627	0.6512
H	-0.636249	0.967227	1.62329
H	0.233202	1.918282	0.631376
Cl	3.540002	0.0	0.0
