18

C	-0.374682	0.038882	-1.476152
C	0.0	0.0	0.0
F	-1.775942	0.094314	-1.606848
H	1.103166	0.0	0.0
N	0.127209	1.279888	-2.029374
H	1.120784	1.334349	-1.817858
H	0.023096	1.255527	-3.037801
C	0.085908	-1.203204	-2.208992
H	-0.366958	-2.087434	-1.765831
H	-0.198997	-1.127203	-3.263551
H	1.171967	-1.282116	-2.126706
N	-0.469103	-1.233912	0.612236
H	-1.401015	-1.039287	0.963359
H	0.122683	-1.431581	1.410423
N	-0.536302	1.188841	0.680375
H	-0.633842	1.924587	-0.011983
H	0.168317	1.502681	1.340647
Cl	3.507939	0.0	0.0
