15

C	-0.442184	0.246856	-1.432936
C	0.0	0.0	0.0
F	-0.18763	-0.97282	-2.120509
H	1.097901	0.0	0.0
H	-0.339273	0.850967	0.598331
N	-1.850067	0.483215	-1.63772
H	-2.342241	-0.20047	-1.07092
H	-2.048425	1.402749	-1.263842
N	0.300273	1.318616	-1.980576
H	0.138103	1.358129	-2.979226
H	1.289649	1.178937	-1.796027
N	-0.635373	-1.222522	0.502941
H	-0.361003	-1.336272	1.471612
H	-0.213038	-1.993891	-0.000789
Br	3.711126	0.0	0.0
