15

C	-0.505342	-0.076593	-1.425521
C	0.0	0.0	0.0
F	-0.128321	1.147466	-2.036897
H	1.099312	0.0	0.0
H	-0.349278	-0.899756	0.515741
N	0.10104	-1.09795	-2.233737
H	1.109561	-1.011523	-2.139952
H	-0.1735	-1.994405	-1.850872
N	-1.918711	-0.231837	-1.448899
H	-2.310573	0.484392	-0.851941
H	-2.242041	-0.106238	-2.400779
N	-0.581746	1.180563	0.664774
H	-0.123482	1.985261	0.250677
H	-0.279398	1.16216	1.633073
Br	3.662651	0.0	0.0
