15

C	-0.598152	0.077006	-1.393687
C	0.0	0.0	0.0
F	-0.043429	1.201332	-2.034087
H	1.093364	0.0	0.0
H	-0.314233	0.909408	0.535989
N	-0.288161	-1.084989	-2.149247
H	-1.021511	-1.299963	-2.813173
H	-0.205186	-1.848144	-1.486125
N	-2.029052	0.306681	-1.280264
H	-2.159946	1.221955	-0.859912
H	-2.416055	0.36506	-2.218134
N	-0.436851	-1.242583	0.63908
H	-1.366275	-1.141024	1.022621
H	0.211293	-1.476575	1.380804
Br	3.7739	0.0	0.0
