15

C	-0.580137	0.008693	-1.397194
C	0.0	0.0	0.0
F	-2.038443	0.049469	-1.175247
H	1.090617	0.0	0.0
H	-0.333369	-0.929794	0.484016
N	-0.206285	1.162162	-2.121295
H	-0.138338	1.921268	-1.452076
H	-0.926037	1.381105	-2.799966
N	-0.28948	-1.179938	-2.115575
H	-0.452857	-1.047426	-3.104616
H	-0.857149	-1.941407	-1.768837
N	-0.435091	1.214167	0.69804
H	0.208701	1.399502	1.456313
H	-1.365231	1.089596	1.074977
Br	3.791861	0.0	0.0
