16

C	0.0	0.0	0.0
C	-0.41656	-0.065569	-1.481092
Cl	1.794259	0.0	0.0
H	0.110549	-0.926593	-1.913098
H	-0.303126	0.961688	0.418977
C	-0.562038	-1.138471	0.822292
H	-1.650024	-1.040275	0.879644
H	-0.309841	-2.102039	0.371687
H	-0.155535	-1.111276	1.834976
C	0.080363	1.122832	-2.182935
N	0.455641	2.103051	-2.710705
C	-1.922385	-0.218365	-1.703879
H	-2.282788	-1.180837	-1.345321
H	-2.144394	-0.14593	-2.771001
H	-2.51243	0.531727	-1.178153
Cl	-4.799219	0.0	0.0
