16

C	0.0	0.0	0.0
C	-0.401943	0.204674	-1.475353
Cl	1.793992	0.0	0.0
H	0.166369	-0.53432	-2.055022
H	-0.304911	0.86847	0.587302
C	-0.563099	-1.272088	0.592089
H	-0.299855	-2.134745	-0.025827
H	-0.16902	-1.431508	1.597216
H	-1.652598	-1.189808	0.651984
C	0.06143	1.520179	-1.933209
N	0.416599	2.565141	-2.333209
C	-1.895265	0.039009	-1.758662
H	-2.525816	0.659556	-1.124288
H	-2.215029	-0.987205	-1.586583
H	-2.097534	0.289438	-2.802546
Cl	-4.749756	0.0	0.0
