15

C	-0.484557	0.038566	-1.438363
C	0.0	0.0	0.0
Cl	-2.276394	-0.012135	-1.545393
H	1.09344	0.0	0.0
H	-0.324205	-0.969877	0.390748
N	-0.030454	1.338655	-2.123378
O	0.905753	1.245639	-2.904531
O	-0.619016	2.360277	-1.797559
C	0.02026	-1.086983	-2.219937
N	0.351738	-2.041834	-2.818969
C	-0.492092	1.1312	0.893748
H	-0.039675	2.081146	0.611342
H	-0.172118	0.909068	1.913884
H	-1.578231	1.242165	0.883003
Cl	3.36836	0.0	0.0
