15

C	-0.476048	0.003784	-1.438062
C	0.0	0.0	0.0
Cl	0.066482	-1.445975	-2.297562
H	1.093245	0.0	0.0
H	-0.338211	-0.943319	0.437455
N	-2.020255	-0.017815	-1.415912
O	-2.605077	0.998646	-1.77639
O	-2.539115	-1.025738	-0.958988
C	-0.063306	1.188015	-2.185767
N	0.278244	2.140677	-2.782532
C	-0.523994	1.196791	0.784573
H	-0.222296	2.13731	0.318057
H	-0.081763	1.173931	1.782288
H	-1.613016	1.192541	0.892804
Cl	3.391483	0.0	0.0
