15

C	-0.477734	0.009274	-1.437654
C	0.0	0.0	0.0
Cl	0.069399	-1.434479	-2.304288
H	1.093248	0.0	0.0
H	-0.337741	-0.945078	0.434027
N	-2.021493	-0.020133	-1.414022
O	-2.535068	-1.032385	-0.960265
O	-2.611503	0.995231	-1.769874
C	-0.073312	1.198794	-2.181481
N	0.262963	2.156211	-2.775056
C	-0.523249	1.193334	0.79073
H	-0.078178	1.166322	1.78706
H	-0.223184	2.13586	0.327389
H	-1.611878	1.188019	0.901696
Cl	3.387891	0.0	0.0
