15

C	-0.508875	0.078535	-1.392258
C	0.0	0.0	0.0
Br	0.445	-1.209863	-2.490187
H	1.088754	0.0	0.0
H	-0.33382	-0.933862	0.448031
N	-2.012422	-0.273708	-1.552455
O	-2.632188	-0.524499	-0.525223
O	-2.464086	-0.260954	-2.688887
N	-0.391145	1.473086	-2.019874
O	0.682641	1.77533	-2.508033
O	-1.39497	2.169083	-1.940333
N	-0.378006	1.082915	0.869692
O	-0.116017	2.234753	0.485515
O	-0.770253	0.791423	2.010204
H	2.450115	0.0	0.0
