15

C	-0.585376	-0.040916	-1.351406
C	0.0	0.0	0.0
Br	-2.57763	-0.143253	-1.402692
H	1.090867	0.0	0.0
H	-0.279559	-0.882993	0.566657
N	-0.110621	1.10182	-2.259012
O	-0.911898	1.881375	-2.738001
O	1.102379	1.079539	-2.41901
N	-0.122579	-1.302805	-2.073604
O	0.228242	-2.244497	-1.37414
O	-0.168119	-1.278995	-3.297185
N	-0.403481	1.165018	0.737774
O	-0.453393	2.247237	0.129269
O	-0.53993	1.041001	1.965039
H	2.390333	0.0	0.0
