15

C	-0.620694	0.053594	-1.335033
C	0.0	0.0	0.0
Br	-2.602707	0.260702	-1.326208
H	1.09084	0.0	0.0
H	-0.256893	0.886522	0.572548
N	-0.117893	1.287367	-2.080647
O	0.239683	2.236457	-1.396343
O	-0.145493	1.236897	-3.304517
N	-0.231485	-1.118193	-2.242883
O	0.981139	-1.202821	-2.381614
O	-1.090684	-1.810852	-2.755501
N	-0.408069	-1.156711	0.746433
O	-0.563594	-2.227625	0.133075
O	-0.441264	-1.043996	1.981645
H	2.38623	0.0	0.0
