15

C	-0.524793	-0.018223	-1.384227
C	0.0	0.0	0.0
Br	-2.502831	-0.034897	-1.531259
H	1.09084	0.0	0.0
H	-0.311308	-0.886356	0.544101
N	0.047473	1.103515	-2.270476
O	-0.692217	1.93772	-2.762019
O	1.26331	1.013772	-2.386639
N	-0.066706	-1.291969	-2.092171
O	-0.100574	-1.276055	-3.315337
O	0.256991	-2.236519	-1.383078
N	-0.428696	1.163923	0.717056
O	-0.683933	1.03687	1.927049
O	-0.38568	2.254101	0.118798
H	2.391083	0.0	0.0
