15

C	0.0	0.0	0.0
C	-0.234525	-0.000629	-1.560874
Cl	1.79368	0.0	0.0
H	0.510695	0.723692	-1.927997
H	-0.309842	-0.954	0.415288
C	-0.665644	1.086635	0.711571
N	-0.648674	2.085013	1.363788
C	-1.544721	0.433345	-2.196527
H	-2.322477	-0.310178	-2.047401
H	-1.346917	0.565066	-3.278017
H	-1.895649	1.376666	-1.783128
N	0.066528	-1.358878	-2.042656
H	1.042186	-1.561051	-1.853924
H	-0.044439	-1.362217	-3.051528
H	-2.156649	0.0	0.0
