15

C	0.0	0.0	0.0
C	-0.481265	0.168025	-1.495049
Cl	1.789563	0.0	0.0
H	0.352499	-0.239079	-2.080508
H	-0.321308	-0.973536	0.370157
C	-0.43857	1.037345	0.928471
N	-0.652867	1.911557	1.684007
C	-0.64212	1.644328	-1.830675
H	-1.521769	2.03294	-1.315664
H	0.234773	2.230304	-1.539006
H	-0.800223	1.7433	-2.90555
N	-1.678398	-0.545888	-1.851453
H	-2.451294	-0.29158	-1.172764
H	-1.524758	-1.543567	-1.724052
H	-3.41994	0.0	0.0
