15

C	0.0	0.0	0.0
C	-0.629148	-0.062548	-1.385484
Cl	1.783194	0.0	0.0
H	-1.689407	-0.26074	-1.115744
H	-0.331405	-0.87489	0.564356
C	-0.410127	1.198946	0.739711
N	-0.590037	2.181954	1.357653
C	-0.049933	-1.180958	-2.226777
H	-0.041147	-2.123296	-1.67154
H	-0.672572	-1.326774	-3.115566
H	0.970453	-0.952228	-2.547653
N	-0.481696	1.232202	-2.058199
H	-1.209303	1.832798	-1.671639
H	-0.731435	1.098521	-3.032919
H	-3.133208	0.0	0.0
