15

C	0.0	0.0	0.0
C	-0.522352	0.054276	-1.464925
Cl	1.787221	0.0	0.0
H	0.339773	-0.208934	-2.088247
H	-0.320443	-0.94944	0.427233
C	-0.4202	1.103887	0.860276
N	-0.608564	2.034314	1.552825
C	-0.990595	1.45831	-1.855908
H	-0.210714	2.213194	-1.696232
H	-1.253791	1.458123	-2.918978
H	-1.882872	1.708118	-1.279612
N	-1.516776	-0.999852	-1.608595
H	-2.332688	-0.712469	-1.005592
H	-1.855246	-0.974673	-2.567969
H	-3.3675	0.0	0.0
