17

C	0.0	0.0	0.0
C	-0.56008	-0.073608	-1.412286
Cl	1.771481	0.0	0.0
H	-1.651834	-0.129709	-1.208332
H	-0.350317	0.916746	-1.834869
C	-0.531422	1.220268	0.715718
H	-0.167583	1.260293	1.741192
H	-1.628451	1.089123	0.657486
H	-0.199204	2.109492	0.174169
N	-0.387703	-1.236141	0.81756
O	-0.433553	-1.11231	2.036522
O	-0.554257	-2.292028	0.219269
C	-0.046432	-1.138936	-2.37404
H	-0.365704	-0.878848	-3.388347
H	-0.448462	-2.120074	-2.132018
H	1.046121	-1.207362	-2.379475
F	-2.914575	0.0	0.0
