17

C	0.0	0.0	0.0
C	-0.561775	0.032226	-1.412082
Cl	1.771593	0.0	0.0
H	-0.427763	1.071126	-1.739809
H	-1.646966	-0.107813	-1.215758
C	-0.532685	1.156119	0.814783
H	-1.630122	1.034662	0.734645
H	-0.190474	2.087927	0.357776
H	-0.178099	1.102401	1.842996
N	-0.389322	-1.298236	0.715768
O	-0.648903	-2.281378	0.033407
O	-0.336491	-1.294357	1.941744
C	0.033368	-0.890208	-2.467153
H	-0.116364	-1.937169	-2.214943
H	1.103652	-0.717512	-2.612
H	-0.46515	-0.696045	-3.422488
F	-2.913573	0.0	0.0
