17

C	0.0	0.0	0.0
C	-0.271368	0.136098	-1.526489
Cl	1.784461	0.0	0.0
H	0.4552	-0.51085	-2.022602
H	0.046923	1.16451	-1.738668
C	-0.678186	1.02046	0.855799
H	-1.766588	0.80711	0.70852
H	-0.388921	0.920901	1.901581
H	-0.419928	2.017981	0.491226
N	-0.369829	-1.40006	0.481751
O	-0.366565	-2.301153	-0.350278
O	-0.571754	-1.548393	1.681304
C	-1.646686	-0.119803	-2.127839
H	-1.648299	0.304484	-3.140675
H	-2.460547	0.257294	-1.490984
H	-1.81888	-1.195476	-2.201222
F	-3.209276	0.0	0.0
