14

C	0.0	0.0	0.0
C	-0.520827	-0.263428	-1.412109
F	1.387892	0.0	0.0
H	-0.200512	0.540751	-2.081178
H	-1.622534	-0.263263	-1.351731
C	-0.387262	1.368067	0.405427
N	-0.567885	2.47535	0.750256
C	-0.479288	-1.029151	1.00041
H	-1.571303	-1.02572	1.019219
H	-0.106035	-2.011192	0.701027
H	-0.085478	-0.783941	1.988864
C	-0.025501	-1.536157	-1.927549
N	0.373565	-2.554761	-2.353528
Br	-3.807966	0.0	0.0
