14

C	0.0	0.0	0.0
C	-0.227154	0.263406	-1.514853
F	1.390387	0.0	0.0
H	0.185818	1.256996	-1.714246
H	0.454589	-0.448543	-1.991945
C	-0.412315	1.140079	0.834663
N	-0.581427	2.078015	1.521062
C	-0.525744	-1.316803	0.504805
H	-1.619867	-1.279522	0.483103
H	-0.15837	-2.119662	-0.139749
H	-0.176401	-1.482258	1.527068
C	-1.493822	0.154818	-2.237857
N	-2.273853	0.093079	-3.115465
Br	-3.803668	0.0	0.0
