14

C	0.0	0.0	0.0
C	-0.218076	-0.143277	-1.542554
F	1.390559	0.0	0.0
H	0.263988	0.746301	-1.951784
H	0.450104	-0.972299	-1.798074
C	-0.416076	1.302561	0.529788
N	-0.50502	2.392266	0.959943
C	-0.314011	-1.214116	0.869226
H	0.183629	-1.082153	1.839398
H	0.161937	-2.067548	0.392441
H	-1.377028	-1.387439	1.008229
C	-1.445416	-0.307965	-2.329029
N	-2.240744	-0.342226	-3.189566
Br	-3.429932	0.0	0.0
