14

C	0.0	0.0	0.0
C	-0.489432	-0.275057	-1.421712
F	1.387588	0.0	0.0
H	-0.137275	0.519932	-2.085265
H	-1.589765	-0.270655	-1.400883
C	-0.387466	1.367956	0.40211
N	-0.550933	2.479852	0.741875
C	-0.457562	-1.038701	1.002032
H	-1.547884	-1.080426	1.015554
H	-0.038113	-2.004278	0.709475
H	-0.077564	-0.772728	1.990325
C	0.029875	-1.55314	-1.899543
N	0.469924	-2.574288	-2.275146
Br	-3.762544	0.0	0.0
