16

C	-0.446903	-0.020592	-1.45143
C	0.0	0.0	0.0
F	-1.855087	-0.115557	-1.482206
H	1.09146	0.0	0.0
H	-0.18647	0.925398	-1.927375
C	0.138959	-1.192022	-2.196022
H	-0.17976	-1.167658	-3.239416
H	1.227424	-1.14719	-2.141584
H	-0.198965	-2.129582	-1.750709
N	-0.467329	-1.073017	0.807447
H	0.226582	-1.802059	0.866409
H	-1.36404	-1.425994	0.507547
N	-0.468381	1.329231	0.567437
O	-0.010382	2.332853	0.023169
O	-1.287618	1.33777	1.480254
Br	3.506651	0.0	0.0
