16

C	-0.483126	-0.041405	-1.431316
C	0.0	0.0	0.0
F	-1.893827	-0.0838	-1.417695
H	1.091259	0.0	0.0
H	-0.205003	0.885972	-1.931628
C	0.052246	-1.249078	-2.156004
H	-0.284945	-1.246135	-3.195028
H	1.144265	-1.225764	-2.124188
H	-0.29159	-2.15602	-1.659326
N	-0.48366	-1.096008	0.762515
H	0.032642	-1.164076	1.62848
H	-1.466278	-0.980252	0.970622
N	-0.406693	1.358672	0.587809
O	-0.983781	1.368679	1.675906
O	-0.114396	2.360833	-0.057101
Br	3.483004	0.0	0.0
