16

C	-0.480941	-0.048377	-1.45084
C	0.0	0.0	0.0
F	-0.086633	1.123734	-2.090904
H	1.090561	0.0	0.0
H	0.068241	-0.872478	-1.918228
C	-1.972892	-0.195222	-1.673821
H	-2.363075	-1.116876	-1.237061
H	-2.165257	-0.224685	-2.748612
H	-2.507673	0.649257	-1.240192
N	-0.403608	-1.1072	0.813252
H	0.345705	-1.780733	0.868842
H	-1.275649	-1.534235	0.545368
N	-0.529996	1.272156	0.607371
O	0.193245	2.260903	0.624195
O	-1.697638	1.239129	1.008593
Br	3.526742	0.0	0.0
