16

C	-0.483885	-0.024548	-1.431665
C	0.0	0.0	0.0
F	-1.897565	-0.049502	-1.417669
H	1.096933	0.0	0.0
H	-0.195255	0.903684	-1.925478
C	0.032516	-1.235309	-2.165883
H	-0.313927	-2.140807	-1.668535
H	-0.319133	-1.224909	-3.200195
H	1.125883	-1.223584	-2.15004
N	-0.486494	-1.102726	0.751813
H	0.02702	-1.182876	1.616739
H	-1.46617	-0.98399	0.958412
N	-0.406687	1.352375	0.600567
O	-0.113891	2.36138	-0.032426
O	-0.987949	1.350415	1.685551
Br	3.486781	0.0	0.0
