16

C	-0.440969	-0.020229	-1.45388
C	0.0	0.0	0.0
F	-1.849103	-0.118314	-1.488176
H	1.091508	0.0	0.0
H	-0.180066	0.928226	-1.926726
C	0.150506	-1.189599	-2.201635
H	-0.164069	-1.166005	-3.247188
H	-0.1872	-2.128751	-1.758822
H	1.241017	-1.14039	-2.142648
N	-0.466204	-1.073939	0.807875
H	0.226182	-1.808871	0.853003
H	-1.368584	-1.421743	0.510733
N	-0.470567	1.327177	0.569801
O	-1.310962	1.329148	1.464728
O	0.003182	2.333666	0.040581
Br	3.520954	0.0	0.0
