16

C	-0.49003	0.032373	-1.449145
C	0.0	0.0	0.0
F	-0.214329	-1.221981	-1.997306
H	1.090772	0.0	0.0
H	-1.581862	0.137867	-1.462631
C	0.203249	1.087501	-2.275717
H	1.283507	0.972047	-2.171105
H	-0.070694	2.08723	-1.936061
H	-0.081996	0.983371	-3.32529
N	-0.479042	-1.097572	0.782923
H	0.23859	-1.811322	0.79891
H	-1.33782	-1.48347	0.411411
N	-0.508396	1.283536	0.606922
O	-1.712002	1.310014	0.877347
O	0.264676	2.227014	0.744342
Br	3.552456	0.0	0.0
