16

C	-0.5691	-0.002648	-1.415283
C	0.0	0.0	0.0
F	-0.195382	1.152277	-2.092256
H	1.090509	0.0	0.0
H	-0.093204	-0.848792	-1.917746
C	-2.07818	-0.111564	-1.47737
H	-2.546687	0.738997	-0.978195
H	-2.396137	-0.117422	-2.52199
H	-2.413873	-1.035355	-1.004686
N	-0.439243	-1.178095	0.69034
H	0.256858	-1.420041	1.384052
H	-1.319197	-0.996973	1.15704
N	-0.463046	1.27635	0.684129
O	-1.458651	1.200114	1.415982
O	0.136889	2.312235	0.429196
Br	3.516056	0.0	0.0
