16

C	-0.368253	0.053123	-1.458501
C	0.0	0.0	0.0
Br	-2.330726	-0.095462	-1.748818
H	1.096344	0.0	0.0
H	-0.312695	-0.99272	0.339524
N	0.010256	1.389353	-2.091664
O	0.3899	2.290652	-1.352106
O	-0.07551	1.474909	-3.314
C	0.363158	-1.028162	-2.219361
H	0.060049	-2.004044	-1.836622
H	0.154029	-0.97079	-3.286343
H	1.435048	-0.890724	-2.015762
N	-0.625777	1.011224	0.846793
H	-0.005131	1.811598	0.860114
H	-0.649331	0.643687	1.789631
H	2.922668	0.0	0.0
