16

C	-0.444524	0.040195	-1.445464
C	0.0	0.0	0.0
Br	0.028168	-1.621675	-2.342868
H	1.098847	0.0	0.0
H	-0.339702	0.940407	0.444894
N	-1.968529	0.204346	-1.493072
O	-2.690526	-0.654706	-1.979626
O	-2.368706	1.257056	-0.993962
C	0.207588	1.197938	-2.172834
H	1.288954	1.084208	-2.057594
H	-0.104064	2.132539	-1.702893
H	-0.065796	1.209298	-3.230274
N	-0.611974	-1.121132	0.72037
H	0.01752	-1.911865	0.623509
H	-0.605663	-0.886204	1.706105
H	2.974515	0.0	0.0
