16

C	-0.405454	-0.025616	-1.451924
C	0.0	0.0	0.0
Br	-2.395137	0.010923	-1.640468
H	1.095574	0.0	0.0
H	-0.358738	0.918979	0.469137
N	0.027607	1.274443	-2.122369
O	-0.041775	2.304354	-1.45819
O	0.390654	1.219413	-3.294927
C	0.153963	-1.213305	-2.183126
H	1.245204	-1.159664	-2.083062
H	-0.136931	-1.223379	-3.232273
H	-0.203316	-2.106029	-1.671869
N	-0.430631	-1.224718	0.668273
H	-1.233574	-1.051784	1.254616
H	0.336943	-1.528417	1.253486
H	2.859711	0.0	0.0
