16

C	-0.384579	-0.035869	-1.456624
C	0.0	0.0	0.0
Br	-2.37233	-0.055876	-1.702845
H	1.096547	0.0	0.0
H	-0.364881	0.920044	0.46183
N	0.045516	1.278359	-2.099153
O	0.606416	1.22758	-3.190905
O	-0.204705	2.31045	-1.484321
C	0.220565	-1.205469	-2.18002
H	-0.137905	-2.109001	-1.688204
H	1.307536	-1.133819	-2.044735
H	-0.036451	-1.21226	-3.23838
N	-0.422708	-1.225125	0.671044
H	0.356578	-1.538964	1.236193
H	-1.210909	-1.049557	1.276603
H	2.855207	0.0	0.0
