16

C	-0.395025	-0.036427	-1.454758
C	0.0	0.0	0.0
Br	-2.379838	-0.106149	-1.68537
H	1.094503	0.0	0.0
H	-0.370123	0.912573	0.470388
N	-0.012424	1.289075	-2.10566
O	-0.22351	2.312747	-1.463216
O	0.464021	1.255642	-3.236529
C	0.240804	-1.186143	-2.182714
H	-0.023275	-1.203438	-3.238424
H	-0.083174	-2.100546	-1.687242
H	1.32528	-1.079109	-2.054849
N	-0.412179	-1.232952	0.669705
H	-1.141125	-1.046249	1.344145
H	0.399856	-1.582785	1.167258
H	2.858399	0.0	0.0
