16

C	-0.622117	-0.023804	-1.38237
C	0.0	0.0	0.0
Br	0.145023	1.431691	-2.44526
H	1.092602	0.0	0.0
H	-0.319346	0.945982	0.452482
N	-0.261945	-1.313793	-2.11281
O	0.602035	-2.029685	-1.620448
O	-0.873383	-1.552829	-3.155253
C	-2.130518	0.10778	-1.385734
H	-2.403127	1.051369	-0.908899
H	-2.524683	0.086672	-2.400297
H	-2.538349	-0.720967	-0.803173
N	-0.534046	-1.139849	0.770327
H	0.227036	-1.805982	0.844976
H	-0.738463	-0.827058	1.711064
H	2.966924	0.0	0.0
