12
Coordinates from ORCA-job run
  C   -0.56177412897811     -0.62590900860813      0.11042779445230
  C   0.82838975895476     -0.02396720287046     -0.24589114734847
  F   -0.33660079130932     -1.87781352257542      0.62543275169351
  H   1.28499524719000     -0.71023391701128     -0.97050684612061
  C   -1.37386813110013     -0.74034607147041     -1.11023218991305
  N   -1.99541173410101     -0.84331310353886     -2.10226658227279
  C   -1.24695446576485      0.20214732292549      1.11227448656451
  N   -1.78575079051113      0.86571583230113      1.91889280795449
  C   1.66627200861694      0.03333883109526      0.95440943864879
  N   2.33567383588316      0.07249384123535      1.91831236358723
  C   0.66773814711523      1.29663040077268     -0.85677239560697
  N   0.51929104400445      2.35025659774465     -1.35408048163892
