12
Coordinates from ORCA-job run
  C   -0.53589095740780     -0.54789259707528      0.10322684501210
  C   0.53026189404093      0.56726300755364     -0.10399091406782
  F   0.10910442681339     -1.75350254500090      0.16314192677952
  H   0.00950421471625      1.53280032625216     -0.14702788447975
  C   -1.47737112448860     -0.54570557997090     -1.02678516456174
  N   -2.22538241193488     -0.52183017819197     -1.93276247436956
  C   -1.25742266553542     -0.30824191680172      1.36249743918615
  N   -1.82706599312922     -0.08905996438678      2.36667676576248
  C   1.23582324903001      0.34520778564642     -1.36925497355319
  N   1.78558369095571      0.16791288530133     -2.39148970075394
  C   1.46045497280841      0.57342902377552      1.02884384194607
  N   2.19240070413123      0.58061975289848      1.94692429309971
