12
Coordinates from ORCA-job run
  C   -0.62628661562950     -0.32825017858177      0.31568504989696
  C   0.62407407072276      0.33259905765494     -0.33468081745347
  F   -0.36234205724700     -0.53434626620624      1.64292596792258
  H   0.40745328430741      0.49769551293325     -1.39811001274708
  C   -0.89897171644566     -1.61617581764865     -0.34057637179070
  N   -1.10333698341290     -2.63765237775508     -0.88432001241073
  C   -1.78445511445392      0.56753896662924      0.17405954821768
  N   -2.69747902007844      1.29504815084250      0.04001820913425
  C   1.77556259110495     -0.56592909356690     -0.21320507608319
  N   2.69111344716084     -1.29596481155396     -0.12630939449115
  C   0.88823122323304      1.62331468000574      0.30748790348151
  N   1.08543689073840      2.66312217724694      0.81602500632335
