13
Coordinates from ORCA-job run
  C   -0.51235973147949     -0.65321805606881     -0.40844422713952
  C   0.75059792947153     -0.69225251494614      0.43762949775949
  H   -1.08169652784349     -1.56197508360158     -0.18892692408509
  H   0.53736297426308     -0.68779987259338      1.50577441891136
  H   -0.22624996224346     -0.69738656366548     -1.46201679639770
  H   1.38623516925151     -1.53996588885092      0.17740130167573
  C   -1.36081509268737      0.58449684875592     -0.13627655046025
  H   -1.61125583478583      0.66827208772418      0.92428322254092
  H   -2.29360424349994      0.54367465372440     -0.70187118970684
  H   -0.83725246889142      1.49676488955472     -0.42987932844138
  N   1.55799123996628      0.53391237789346      0.16922482995915
  O   1.68117587345018      1.35153947882766      1.07908721538363
  O   2.01087067502841      0.65393764324597     -0.96698546999949
