13
Coordinates from ORCA-job run
  C   -0.50018191807783     -0.66770056100042     -0.39963713787355
  C   0.74684761043564     -0.67414848079738      0.47048034069406
  H   -1.06773813676274     -1.57375954597621     -0.16490744598878
  H   1.39231614028539     -1.52475874133627      0.24643340462163
  H   -0.19435492617554     -0.73928413965442     -1.44614797439626
  H   0.51285254941200     -0.64135638215519      1.53379372733310
  C   -1.36216346486009      0.57084891364019     -0.17796402150098
  H   -2.28205764862667      0.50871934484770     -0.76244666794670
  H   -1.63630857524580      0.67967242991715      0.87440401319182
  H   -0.83836990291367      1.47895113172327     -0.48378753638999
  N   1.55158868202357      0.54938571875126      0.18314255263046
  O   2.02620607707021      0.64004807244497     -0.94690965835516
  O   1.65136351343552      1.39338223959535      1.07154640398037
