18

C	-0.251152	-0.121963	-1.498985
C	0.0	0.0	0.0
F	-1.548217	-0.616665	-1.780438
H	1.098786	0.0	0.0
C	-0.238024	1.205581	-2.180789
N	-0.179983	2.235364	-2.745854
N	0.715143	-1.022686	-2.034899
H	1.619851	-0.842953	-1.572824
H	0.810863	-0.910825	-3.035357
C	-0.472343	-1.266208	0.702155
H	-0.033951	-1.299176	1.703896
H	-1.563076	-1.29546	0.792819
H	-0.14345	-2.153296	0.159881
C	-0.562462	1.255613	0.639181
H	-0.366811	1.232854	1.71465
H	-1.645861	1.332434	0.492877
H	-0.091272	2.156532	0.24056
H	2.902962	0.0	0.0
