18

C	-0.28453	-0.105836	-1.502675
C	0.0	0.0	0.0
F	-0.300324	-1.46388	-1.857725
H	1.096071	0.0	0.0
C	-1.636119	0.400606	-1.861139
N	-2.706585	0.824897	-2.091817
N	0.711101	0.541022	-2.299439
H	0.464428	1.4953	-2.518273
H	1.603314	0.510661	-1.789444
C	-0.577748	-1.134061	0.823741
H	-0.177932	-2.093718	0.496313
H	-0.302087	-0.994977	1.873776
H	-1.672883	-1.170483	0.760762
C	-0.415826	1.366007	0.533219
H	-0.028379	2.172681	-0.096114
H	0.019914	1.504139	1.526632
H	-1.503986	1.474101	0.608436
H	2.943882	0.0	0.0
