18

C	-0.316757	-0.031386	-1.497425
C	0.0	0.0	0.0
F	-0.377199	-1.376027	-1.918362
H	1.096089	0.0	0.0
C	-1.673386	0.498622	-1.798013
N	-2.744872	0.921442	-2.027602
N	0.666583	0.645247	-2.265135
H	0.372073	1.532208	-2.64142
H	1.548039	0.699064	-1.742283
C	-0.559233	-1.178422	0.773098
H	-1.654662	-1.220954	0.725229
H	-0.157472	-2.116782	0.392914
H	-0.268971	-1.090538	1.824251
C	-0.414828	1.334994	0.609196
H	-1.499714	1.414958	0.742591
H	0.068762	1.443203	1.583249
H	-0.078796	2.17303	-0.007601
H	2.943793	0.0	0.0
