18

C	-0.511377	0.004615	-1.426559
C	0.0	0.0	0.0
F	-1.955717	0.091908	-1.388599
H	1.096623	0.0	0.0
C	-0.130713	1.227726	-2.170641
N	0.094733	2.199445	-2.788933
N	-0.113575	-1.119748	-2.18038
H	-0.618826	-1.169266	-3.055237
H	-0.22196	-1.972831	-1.652804
C	-0.434232	-1.271399	0.72773
H	-1.508152	-1.464041	0.633843
H	-0.193238	-1.16365	1.788245
H	0.130935	-2.142699	0.382425
C	-0.466799	1.242933	0.748225
H	-0.177845	2.155522	0.22028
H	0.03236	1.267923	1.720357
H	-1.550476	1.254886	0.90167
H	2.929367	0.0	0.0
