18

C	-0.245675	0.04423	-1.507703
C	0.0	0.0	0.0
F	-0.108576	-1.27379	-2.033518
H	1.099276	0.0	0.0
C	-1.640299	0.412948	-1.869751
N	-2.756921	0.694197	-2.106289
N	0.682109	0.935181	-2.085411
H	0.709106	0.834216	-3.092023
H	1.606328	0.752161	-1.672013
C	-0.570302	-1.238647	0.661955
H	-0.147949	-2.144318	0.227076
H	-1.663229	-1.281168	0.573719
H	-0.31651	-1.224805	1.725847
C	-0.472068	1.283902	0.668116
H	-1.566353	1.354516	0.696231
H	-0.097798	1.309456	1.695797
H	-0.076819	2.157809	0.1477
H	2.952407	0.0	0.0
