18

C	-0.260201	-0.124336	-1.497903
C	0.0	0.0	0.0
F	-1.548781	-0.650531	-1.765082
H	1.099492	0.0	0.0
C	-0.295789	1.201854	-2.176297
N	-0.293992	2.237849	-2.730795
N	0.718138	-0.99993	-2.048183
H	1.623795	-0.824924	-1.586158
H	0.809807	-0.882068	-3.049122
C	-0.466147	-1.265534	0.708284
H	-1.557389	-1.308223	0.788734
H	-0.120214	-2.153139	0.176638
H	-0.036382	-1.284632	1.714584
C	-0.561146	1.25678	0.638385
H	-0.098015	2.157018	0.227951
H	-1.647426	1.330257	0.506534
H	-0.349568	1.240256	1.71158
H	2.908409	0.0	0.0
