18

C	-0.477339	-0.013489	-1.438643
C	0.0	0.0	0.0
F	-0.034826	1.117951	-2.109997
H	1.096632	0.0	0.0
C	0.095536	-1.171552	-2.18716
N	0.410678	-2.119563	-2.807581
N	-1.918568	-0.000369	-1.541061
H	-2.310522	-0.677843	-0.900013
H	-2.207806	-0.237987	-2.483191
C	-0.418634	-1.261437	0.748666
H	0.139309	-1.299023	1.68769
H	-1.48934	-1.289461	0.994414
H	-0.159653	-2.167578	0.193668
C	-0.45849	1.263128	0.715498
H	-0.169791	2.148271	0.146482
H	0.050581	1.313982	1.682403
H	-1.540987	1.290003	0.879999
H	2.920185	0.0	0.0
