18

C	-0.280081	-0.110406	-1.500695
C	0.0	0.0	0.0
F	-0.177594	-1.454396	-1.871987
H	1.094309	0.0	0.0
C	-1.672634	0.286713	-1.840416
N	-2.786356	0.600244	-2.045538
N	0.659486	0.619017	-2.307316
H	0.408258	1.598514	-2.339219
H	1.571356	0.537869	-1.838883
C	-0.572709	-1.142163	0.81758
H	-1.668222	-1.177907	0.760293
H	-0.173362	-2.098693	0.479744
H	-0.291641	-1.01306	1.867469
C	-0.435339	1.35787	0.537653
H	-0.020983	1.489386	1.540084
H	-1.525576	1.456351	0.594419
H	-0.043879	2.175125	-0.073101
H	2.945388	0.0	0.0
