17
Coordinates from ORCA-job run
  C   -0.67559802211675      0.10331755436772     -0.07421513570403
  C   0.83556535716809     -0.06509621837559      0.12221088699990
  Br  -1.41199269005847      1.12222486623522      1.39503060103258
  H   1.24981286510465     -0.42988129437295     -0.82052786297651
  C   -1.37857002805393     -1.23812143445634     -0.18332412261792
  H   -0.91756836868944     -1.81927584344027     -0.98406601914863
  H   -2.43421047777005     -1.07811593805593     -0.41094476362949
  H   -1.28255005338488     -1.78378376710721      0.75183270059030
  N   -0.93252855434472      0.82278707120408     -1.40715565655495
  O   -1.68607243677134      1.77905372891230     -1.44488767869040
  O   -0.38141561058588      0.28497081874880     -2.36194370342833
  N   1.12870616382158     -0.95364702080501      1.17999390983991
  H   0.88468720054285     -0.54391677393186      2.07366856087453
  H   2.11291408477798     -1.18414159195438      1.19348022148660
  N   1.47326278775986      1.32961272973733      0.29061591971052
  O   1.22461179204853      2.14789816539734     -0.58772539074221
  O   2.19094599055193      1.50611494789674      1.26795753295813
