17
Coordinates from ORCA-job run
  C   -0.76179449887060     -0.20744281139311      0.10456364151459
  C   0.56135697585672      0.32988185485920      0.67273826873362
  Br  -1.63018798597493     -1.38115350981449      1.38439580605454
  H   0.36181921044290      0.82698026947459      1.61937708681635
  C   -0.66138319911506     -0.88514925815731     -1.23955578949550
  H   -0.25483787082609     -0.19127752495253     -1.97620827234169
  H   -1.65059664103746     -1.19122986455179     -1.57369360745150
  H   -0.01943600448790     -1.76131389434601     -1.16192692246090
  N   -1.65472527750666      1.03933722872530      0.00308515803841
  O   -1.68539737013711      1.77360056948431      0.98150015430580
  O   -2.27469780158071      1.19729240457282     -1.04015350882299
  N   1.14217437688401      1.22400564716221     -0.26747208630133
  H   1.79334755018692      1.85593138619724      0.17872601378822
  H   1.61413354192615      0.71933828515426     -1.00768951512819
  N   1.47547538094995     -0.83768652789595      1.02502134624270
  O   1.56665192923759     -1.14637535466443      2.20863957090972
  O   2.07609768405229     -1.36473889985432      0.08865265559816
