17
Coordinates from ORCA-job run
  C   -0.63885543490657      0.14691608019793     -0.03801571590085
  C   0.88219593620348      0.00619097076145      0.14183574459120
  Br  -1.37911353335937      1.23131001298256      1.37994394849858
  H   1.26730398372770     -0.51186998822793     -0.73952968852001
  C   -1.31067294937066     -1.21777283543197     -0.03908492641288
  H   -2.37917931750999     -1.09870275089643     -0.22672683590807
  H   -0.87468640160558     -1.83529811567950     -0.82823129113029
  H   -1.17762805169616     -1.70703713446690      0.92400745034023
  N   -0.96180688657973      0.74872267872768     -1.40763509951013
  O   -0.32037423331939      0.24204189941042     -2.32414876166887
  O   -1.85188728027478      1.57257739285895     -1.51090595230664
  N   1.29507722105515     -0.64932826055709      1.31521658615520
  H   0.72839922650443     -0.47174833763802      2.12960113525075
  H   1.54459018286607     -1.61594906451643      1.20178556550070
  N   1.55785111414645      1.39522295542009      0.05017978932968
  O   2.67358470626686      1.49892888765577      0.53295910146756
  O   0.94420171785209      2.26579560939945     -0.56025104977614
