17
Coordinates from ORCA-job run
  C   -0.76225127757351     -0.22966348789264     -0.01642301336205
  C   0.48029078172198      0.20389624095777      0.77733417456512
  Br  -1.72463098157977     -1.62801033015162      0.92613400637571
  H   0.17161871103429      0.51591084420060      1.77248121243301
  C   -0.50557385917187     -0.64417452281909     -1.44401312555753
  H   -1.44584992602561     -0.89310924367959     -1.93156423056325
  H   0.15126359741728     -1.51258811858518     -1.46154128305676
  H   -0.04697991559614      0.17919666771334     -1.99282293219813
  N   -1.67547237136025      1.00627672055651      0.01938356987312
  O   -2.19563568990915      1.34517168581744     -1.03524165251418
  O   -1.82224489139997      1.54942512874636      1.10602778208811
  N   1.12961537803721      1.26109735175534      0.08310027051242
  H   1.69046068955868      0.90510218082744     -0.68122254808907
  H   1.71284146809843      1.80567039399572      0.70421634038754
  N   1.38506953700984     -1.00115819425497      1.00431928122887
  O   1.36198003055515     -1.52316296902243      2.11414617025470
  O   2.09349871918340     -1.34088034816499      0.05668597762237
