17
Coordinates from ORCA-job run
  C   -0.62659904529594      0.16041971809787     -0.03629144597591
  C   0.90562437882831     -0.03160802350955      0.09407140241422
  Br  -1.29942004744257      1.21028694310348      1.43685878413803
  H   1.25090738384680     -0.42674226328183     -0.86377008683016
  C   -1.34189294103964     -1.17835904627008     -0.08293955589888
  H   -2.40412576059430     -1.02246991924346     -0.27873362533314
  H   -0.92021099274672     -1.79313205683754     -0.88043063789781
  H   -1.24005832770865     -1.68907566672024      0.87343430760005
  N   -0.91947968100869      0.85599079507769     -1.37349447822847
  O   -1.52893570710084      1.91100222680426     -1.39713576059775
  O   -0.51360636303864      0.22063128618048     -2.34234594416613
  N   1.36866441175015     -0.84641324921498      1.15457752278494
  H   1.25585532312615     -1.83000621811443      0.96231739172814
  H   0.98145936273574     -0.59195821385093      2.05265736686702
  N   1.53793296047108      1.34435666885198      0.20691690018596
  O   2.05567192257594      1.65699642816202      1.26940058706934
  O   1.43621312264182      2.04808059076525     -0.79509272785945
