17
Coordinates from ORCA-job run
  C   -0.67749347260295      0.10654930871792     -0.04527661487859
  C   0.84016964643466     -0.06850745716753      0.08487879137732
  Br  -1.33857415177596      1.16144832233235      1.43439636673781
  H   1.20776091523834     -0.45644151041651     -0.86792051076093
  C   -1.39313027638621     -1.23181354776517     -0.09298178585537
  H   -0.97434235204706     -1.83237691293425     -0.90254744335825
  H   -1.25593932605403     -1.75876078233389      0.84774766054249
  H   -2.45740002657502     -1.06891349808307     -0.27346461646930
  N   -0.99157415013302      0.79958931369526     -1.37986981449318
  O   -0.48816384148862      0.23822210425780     -2.34739473996418
  O   -1.74065766168182      1.75983649329674     -1.40325270329356
  N   1.17634840825863     -0.93653041358757      1.14676248819294
  H   0.97584186131633     -0.50684701824901      2.04183833094402
  H   2.15854044814631     -1.17416724387767      1.11997083702791
  N   1.49344186358698      1.32488680020022      0.19375888414993
  O   1.20917523821623      2.12622967341179     -0.68936140030806
  O   2.25699687754721      1.51659636850261      1.13271627040898
