17
Coordinates from ORCA-job run
  C   -0.66071655986515      0.12706011472793     -0.14178416457084
  C   0.81885706607466     -0.09051633095772      0.19591831673195
  Br  -1.42878740945210      1.39888277383382      1.09595418293434
  H   1.27256156533013     -0.61936362810307     -0.64547585592701
  C   -1.44070847529624     -1.17517488274297     -0.10340739139625
  H   -0.96387588323305     -1.89728615171984     -0.76868700565239
  H   -2.46509043073980     -0.99567568994848     -0.43541289525803
  H   -1.44638059362299     -1.57355577323117      0.90790387321278
  N   -0.77700129757386      0.64516417817107     -1.58329236489399
  O   -0.19693119356112     -0.06250712059675     -2.40021915719209
  O   -1.46266003173924      1.62284710338232     -1.82329987629590
  N   0.97882332142359     -0.81865802438626      1.39517738757763
  H   1.94228845610702     -1.09783420572440      1.52076901159174
  H   0.70021131928439     -0.26339401381885      2.19520437999676
  N   1.53388507435591      1.27664046005567      0.20155902270067
  O   2.19525373374546      1.56134970226440      1.19297855322107
  O   1.39927133876239      1.96202148879430     -0.80588601678045
