16

C	-0.607288	-0.005412	-1.403592
C	0.0	0.0	0.0
F	-0.303179	-1.210735	-1.965905
H	1.088674	0.0	0.0
C	-2.056075	0.212445	-1.458167
N	-3.214142	0.395426	-1.533131
N	0.059752	1.041682	-2.322498
O	1.277104	1.067171	-2.277393
O	-0.684098	1.668829	-3.067634
N	-0.488465	-1.217004	0.730373
O	-1.707348	-1.388733	0.73458
O	0.351371	-1.928789	1.261954
N	-0.461496	1.195421	0.750266
O	-0.547636	1.106336	1.967292
O	-0.657377	2.199146	0.066194
Br	3.319538	0.0	0.0
