16

C	-0.54967	0.001607	-1.410975
C	0.0	0.0	0.0
F	-1.870095	0.25701	-1.515716
H	1.086549	0.0	0.0
C	0.220425	0.961482	-2.225356
N	0.878169	1.74175	-2.853435
N	-0.299389	-1.420422	-1.982756
O	0.805752	-1.884666	-1.723001
O	-1.187887	-1.929469	-2.645266
N	-0.466577	-1.155961	0.820543
O	-1.448657	-1.789312	0.466519
O	0.292019	-1.461285	1.752287
N	-0.471094	1.248143	0.68582
O	0.344546	2.168404	0.7412
O	-1.585404	1.233443	1.17973
Br	2.736452	0.0	0.0
