16

C	-0.633853	0.106756	-1.380536
C	0.0	0.0	0.0
F	0.166892	0.896432	-2.184071
H	1.095978	0.0	0.0
N	-0.564954	-1.261686	-2.091451
O	0.512673	-1.836522	-2.060447
O	-1.574077	-1.655021	-2.680321
N	-1.946726	0.585936	-1.363552
H	-2.573273	0.010599	-1.904336
H	-2.247998	0.770872	-0.41772
C	-0.530646	-1.170974	0.683771
N	-0.933285	-2.113052	1.261323
N	-0.407734	1.216394	0.756022
H	0.129829	1.966938	0.320139
H	0.025222	1.109965	1.670631
H	2.68004	0.0	0.0
