16

C	-0.605375	0.01611	-1.386089
C	0.0	0.0	0.0
F	-1.997013	0.057596	-1.285908
H	1.091072	0.0	0.0
N	-0.279321	1.302689	-2.137945
O	0.604686	2.029581	-1.71645
O	-0.919211	1.46299	-3.17684
N	-0.167168	-1.027629	-2.212342
H	-0.808079	-1.187075	-2.976304
H	0.026641	-1.868293	-1.692498
C	-0.414482	-1.24947	0.633823
N	-0.728009	-2.263412	1.141543
N	-0.419658	1.178055	0.754097
H	0.423151	1.559231	1.174136
H	-1.076136	0.93983	1.483302
H	2.6517	0.0	0.0
