16

C	-0.346744	-0.127501	-1.483959
C	0.0	0.0	0.0
F	-1.594417	-0.653478	-1.686345
H	1.093314	0.0	0.0
N	-0.382845	1.2874	-2.053443
O	0.707109	1.819065	-2.202542
O	-1.47669	1.781779	-2.293773
N	0.600738	-0.880326	-2.235946
H	1.530747	-0.65023	-1.861992
H	0.427464	-1.860554	-2.038127
C	-0.415455	-1.226055	0.676332
N	-0.762196	-2.203277	1.232473
N	-0.45601	1.225208	0.624697
H	-1.31619	1.098161	1.139972
H	0.275022	1.543115	1.251311
H	2.67773	0.0	0.0
