16

C	-0.449656	0.088881	-1.448299
C	0.0	0.0	0.0
F	-1.756103	0.665808	-1.518216
H	1.092352	0.0	0.0
N	0.341467	1.14661	-2.223512
O	0.60911	2.186457	-1.637665
O	0.576976	0.914787	-3.407559
N	-0.348808	-1.109626	-2.136021
H	-0.82569	-1.865679	-1.668814
H	-0.586554	-1.023106	-3.11205
C	-0.486782	-1.26108	0.549903
N	-0.864267	-2.297337	0.960617
N	-0.385324	1.105575	0.861469
H	0.402343	1.745413	0.863933
H	-1.187903	1.586277	0.477778
H	2.617972	0.0	0.0
