16

C	-0.585818	-0.012216	-1.39452
C	0.0	0.0	0.0
F	-1.98199	-0.005668	-1.314122
H	1.091076	0.0	0.0
N	-0.283967	1.276841	-2.154599
O	-0.917592	1.411711	-3.202083
O	0.578788	2.030022	-1.732741
N	-0.106475	-1.053142	-2.199615
H	0.117974	-1.882913	-1.670547
H	-0.73173	-1.242338	-2.969677
C	-0.408799	-1.244097	0.647834
N	-0.719174	-2.252284	1.169649
N	-0.434942	1.182571	0.737157
H	0.404362	1.583871	1.145572
H	-1.082457	0.943027	1.474576
H	2.65506	0.0	0.0
