16

C	-0.48496	0.16512	-1.427315
C	0.0	0.0	0.0
F	0.04428	1.297097	-1.974674
H	1.096203	0.0	0.0
N	0.056124	-0.95744	-2.346207
O	-0.250294	-0.842342	-3.534648
O	0.707231	-1.869021	-1.854107
N	-1.894745	0.251906	-1.545432
H	-2.159039	0.25578	-2.523947
H	-2.33886	-0.518193	-1.06123
C	-0.580901	-1.207139	0.573594
N	-1.090321	-2.16837	1.022833
N	-0.338932	1.167518	0.811174
H	-1.110322	1.677884	0.398538
H	0.492389	1.7531	0.809051
H	2.644394	0.0	0.0
