16

C	-0.167164	-0.04779	-1.510127
C	0.0	0.0	0.0
F	-0.007869	-1.363111	-1.943385
H	1.099208	0.0	0.0
N	-1.577601	0.276487	-2.029803
O	-2.466851	0.522001	-1.216939
O	-1.716417	0.281525	-3.250635
N	0.725364	0.84837	-2.097298
H	1.642727	0.71106	-1.634629
H	0.784266	0.691404	-3.095741
C	-0.570197	-1.162701	0.660118
N	-1.012486	-2.0987	1.216633
N	-0.343401	1.242573	0.663525
H	0.433948	1.882169	0.540015
H	-1.187258	1.644398	0.280375
H	2.665844	0.0	0.0
