12

C	0.0	0.0	0.0
C	-0.525205	-0.072783	-1.413937
F	1.375958	0.0	0.0
H	-1.63546	-0.067674	-1.315166
H	-0.369604	-0.867258	0.54751
H	-0.365726	0.910579	0.468219
C	-0.056263	-1.253898	-2.124749
N	0.318887	-2.239563	-2.640146
N	-0.158703	1.158556	-2.20028
O	-0.086412	2.212601	-1.578901
O	-0.016243	1.036306	-3.414047
Br	-3.515221	0.0	0.0
