12

C	0.0	0.0	0.0
C	-0.220207	-0.135029	-1.519997
F	1.377718	0.0	0.0
H	0.323422	0.69485	-1.976894
H	-0.387223	-0.847813	0.554509
H	-0.396063	0.937386	0.37682
C	-1.48612	-0.26607	-2.248135
N	-2.140895	-0.394468	-3.221262
N	0.586747	-1.353488	-1.956387
O	1.333429	-1.207512	-2.919673
O	0.409353	-2.394702	-1.337387
Br	-3.223926	0.0	0.0
