12

C	0.0	0.0	0.0
C	-0.409075	-0.27484	-1.455821
F	1.372304	0.0	0.0
H	0.539433	-0.413832	-1.992729
H	-0.374851	-0.782967	0.650634
H	-0.364419	0.970038	0.328156
C	-1.105736	0.805029	-2.144239
N	-1.411949	1.735162	-2.792672
N	-1.076619	-1.614994	-1.683785
O	-0.761308	-2.515239	-0.915924
O	-1.739459	-1.734533	-2.703515
Br	-3.220152	0.0	0.0
