12

C	0.0	0.0	0.0
C	-0.521183	-0.078904	-1.415371
F	1.375777	0.0	0.0
H	-1.631706	-0.079739	-1.321619
H	-0.367255	0.911966	0.464334
H	-0.369479	-0.865613	0.550177
C	-0.046498	-1.259196	-2.123786
N	0.312149	-2.247312	-2.646602
N	-0.160155	1.152291	-2.205159
O	-0.042248	1.029502	-3.42169
O	-0.067808	2.205309	-1.584436
Br	-3.515274	0.0	0.0
