12

C	0.0	0.0	0.0
C	-0.519677	0.227692	-1.399946
F	1.375811	0.0	0.0
H	-1.629815	0.218005	-1.30782
H	-0.366742	0.790962	0.649198
H	-0.370518	-0.963222	0.350911
C	-0.055821	-0.781714	-2.342095
N	0.287892	-1.639031	-3.06697
N	-0.139958	1.594558	-1.909192
O	-0.059383	2.492651	-1.078342
O	0.002762	1.73	-3.121656
Br	-3.514951	0.0	0.0
