15

C	-0.523348	-0.008576	-1.441129
C	0.0	0.0	0.0
Br	0.195651	1.500957	-2.417881
H	1.08975	0.0	0.0
N	0.000454	-1.286845	-2.15302
O	-0.601412	-1.605391	-3.167539
O	0.974819	-1.825038	-1.65738
C	-1.972962	-0.023015	-1.568516
N	-3.143726	-0.060933	-1.675539
C	-0.538147	-1.142085	0.723414
N	-0.951741	-2.084416	1.291649
N	-0.477631	1.264676	0.679246
O	-1.686609	1.348192	0.901311
O	0.367968	2.106908	0.947121
Cl	3.092764	0.0	0.0
