15

C	-0.466493	0.001071	-1.449076
C	0.0	0.0	0.0
Br	-2.391585	0.058139	-1.766976
H	1.094181	0.0	0.0
N	0.118973	1.21682	-2.200501
O	0.310427	1.075523	-3.398536
O	0.279542	2.226787	-1.533105
C	0.054655	-1.200033	-2.089958
N	0.492503	-2.183583	-2.564843
C	-0.515504	-1.168824	0.674386
N	-0.918469	-2.123196	1.23585
N	-0.408576	1.218992	0.818155
O	-1.6043	1.475963	0.899542
O	0.507532	1.82716	1.350104
Cl	2.673965	0.0	0.0
