15

C	-0.591558	-0.038631	-1.414469
C	0.0	0.0	0.0
Br	-2.526582	0.13606	-1.366054
H	1.095747	0.0	0.0
N	0.021542	1.073237	-2.333182
O	-0.70128	1.962531	-2.736659
O	1.202856	0.886311	-2.566962
C	-0.26383	-1.304169	-2.055574
N	-0.052522	-2.325823	-2.599025
C	-0.471279	-1.150005	0.754441
N	-0.831292	-2.106257	1.335255
N	-0.379058	1.271918	0.700234
O	-0.243164	2.295307	0.038293
O	-0.728214	1.203455	1.872532
Cl	3.06976	0.0	0.0
