15

C	-0.516808	-0.01955	-1.447638
C	0.0	0.0	0.0
Br	-2.443887	0.194495	-1.516836
H	1.095748	0.0	0.0
N	0.17755	1.082773	-2.328859
O	1.371188	0.882679	-2.467533
O	-0.505958	1.970855	-2.799448
C	-0.167003	-1.286746	-2.073664
N	0.078654	-2.307587	-2.604127
C	-0.511289	-1.14965	0.723612
N	-0.906024	-2.10709	1.279369
N	-0.390479	1.274717	0.686296
O	-0.227942	2.296362	0.028003
O	-0.776357	1.20919	1.84715
Cl	3.093659	0.0	0.0
