15

C	-0.474163	0.004387	-1.459094
C	0.0	0.0	0.0
Br	0.223602	-1.570587	-2.320497
H	1.092957	0.0	0.0
N	-2.031322	-0.029283	-1.439246
O	-2.533349	1.047398	-1.130989
O	-2.609608	-1.079872	-1.655704
C	-0.086786	1.16881	-2.241312
N	0.208443	2.056072	-2.954646
C	-0.517165	-1.161074	0.704623
N	-0.905099	-2.106885	1.284752
N	-0.405254	1.265251	0.718989
O	-1.018569	1.151201	1.774533
O	-0.034968	2.308977	0.202146
Cl	3.071557	0.0	0.0
