15

C	-0.441146	0.013775	-1.458363
C	0.0	0.0	0.0
Br	-0.128884	-1.744277	-2.227554
H	1.096145	0.0	0.0
N	-1.958	0.273409	-1.59744
O	-2.642748	-0.002547	-0.62402
O	-2.344206	0.686305	-2.680097
C	0.260462	0.992753	-2.273883
N	0.796796	1.791289	-2.94979
C	-0.482583	-1.129771	0.773509
N	-0.834305	-2.043561	1.422799
N	-0.404239	1.27885	0.676775
O	-0.748213	2.20802	-0.051353
O	-0.310579	1.30914	1.894613
Cl	3.055346	0.0	0.0
