15

C	-0.470222	0.002012	-1.447845
C	0.0	0.0	0.0
Br	0.116781	-1.618434	-2.320837
H	1.092733	0.0	0.0
N	-2.022716	0.034106	-1.551429
O	-2.51268	1.110046	-1.872747
O	-2.601042	-0.953396	-1.132247
C	0.061126	1.153665	-2.161251
N	0.532247	2.073818	-2.723276
C	-0.509423	-1.103862	0.780215
N	-0.842759	-1.997481	1.471304
N	-0.437502	1.313186	0.619608
O	0.435752	2.157613	0.775054
O	-1.618842	1.40544	0.954098
Cl	2.674037	0.0	0.0
