16
Coordinates from ORCA-job run
  C   0.90380010086128      0.34545938009196     -0.20639044850288
  C   -0.58494954274372      0.03785821912480     -0.35387631110062
  F   1.09087711323078      1.22381529107687      0.85540911662785
  H   -0.72750684170253     -0.49409511016983     -1.29675669467860
  H   1.20208054504749      0.88330163063756     -1.11397672358103
  C   1.77817397636406     -0.86735461681395      0.01197866462784
  H   1.55037788471177     -1.32541985035366      0.97573901921404
  H   2.82631691949223     -0.56587996739360      0.01506668056370
  H   1.62288091282660     -1.61034497637203     -0.77244279467614
  C   -1.45952819054314      1.27131323634542     -0.26025885556562
  H   -2.51086593646889      1.00915300265551     -0.39136213351661
  H   -1.17812617635553      1.97624839727121     -1.04581329733969
  H   -1.32971190685803      1.75105659994311      0.70693630149525
  N   -0.97880460775565     -0.95850615493046      0.69477693525212
  O   -1.17264808819179     -0.53796822575813      1.83254992093624
  O   -1.03236616191491     -2.13863685535475      0.34842062024413
