16
Coordinates from ORCA-job run
  C   0.76295865053461     -0.64787663500231      0.09341989400227
  C   -0.58031467687204     -0.08816514562633     -0.33075229673522
  F   0.94842656121985     -1.83830876106614     -0.61058495447271
  H   -0.60538761247584      0.01098508239179     -1.41746265439655
  H   0.72556955346275     -0.91124435274759      1.15374518299481
  C   1.91819628993950      0.27666712236654     -0.21235641468209
  H   1.90165101982349      0.58067960770273     -1.26145104370451
  H   1.89417563211499      1.16623376923912      0.41882292072971
  H   2.85426425058180     -0.25058901632194     -0.02305371370695
  C   -0.95789416187982      1.20422277623883      0.37143415587556
  H   -0.30453791557758      2.01609168536326      0.05030066657005
  H   -0.88105921518092      1.08811846823410      1.45382299018199
  H   -1.98452975674361      1.48064564012401      0.12366196136206
  N   -1.63091925537776     -1.11507041244276     -0.01871396046393
  O   -1.70853841234550     -1.48721557988504      1.14990344502622
  O   -2.35206095122392     -1.48517424856827     -0.94073617858070
