16
Coordinates from ORCA-job run
  C   0.75922893657141     -0.63678954504658      0.16895645193984
  C   -0.56737024254297     -0.11402915557227     -0.34520340401476
  F   0.97262505814208     -1.87423247495512     -0.43963831184475
  H   -0.55108230556286     -0.09405628833256     -1.43641491791304
  H   0.68151257189300     -0.82328743299232      1.24331846097522
  C   1.92450585239484      0.26733049970692     -0.15876036986881
  H   2.85301815326643     -0.23950106172340      0.10776969800015
  H   1.87329546352841      1.20224551699588      0.40122039670669
  H   1.95000757144042      0.49042424476818     -1.22781838063166
  C   -0.97204153603139      1.22474398780314      0.24634813976590
  H   -1.99050488109550      1.47667354508297     -0.05540038020310
  H   -0.93166275381526      1.18964929608499      1.33635806381704
  H   -0.31053906057735      2.01409337998335     -0.11205359289863
  N   -1.62842327362374     -1.11905296483863      0.00066321746991
  O   -1.75004937714260     -1.40560486418616      1.18946409839989
  O   -2.31352017684492     -1.55760668277838     -0.91880916969990
