16
Coordinates from ORCA-job run
  C   0.90638273338891      0.29837277803812     -0.26082534981658
  C   -0.60339521955247      0.07400745157132     -0.31470970726117
  F   1.20913255854230      1.15189495574402      0.79427273017001
  H   -0.83451364997782     -0.43726740289531     -1.25148623573494
  H   1.17535888600025      0.83019508949632     -1.18102570065281
  C   1.72478049166695     -0.96311765547452     -0.11053939816482
  H   2.78593663800865     -0.71904278709815     -0.17278502892119
  H   1.53433337810973     -1.42027124902918      0.86166500747758
  H   1.47879134168171     -1.68633486887084     -0.89021753256361
  C   -1.40115871975281      1.35196296674146     -0.15486351831181
  H   -1.13452716869188      2.04830695358081     -0.95310928397069
  H   -2.47154532582409      1.14799045440224     -0.21728222365633
  H   -1.18172206549346      1.81436837935500      0.80456789916360
  N   -0.98389759057118     -0.91195040073425      0.74854443889962
  O   -1.08092261174280     -0.49475174366597      1.89989949644520
  O   -1.12403367579200     -2.08336292116107      0.39689440689792
