16
Coordinates from ORCA-job run
  C   0.73793088575401     -0.68079537751408     -0.05814734686257
  C   -0.60290345234897     -0.01669696651106     -0.30034714831985
  F   0.82703438986835     -1.75340544688846     -0.94647351810990
  H   -0.68975326847004      0.24978187068335     -1.35529673367373
  H   0.75472202428856     -1.10423400327101      0.94955812833360
  C   1.91143683390343      0.24045267190519     -0.29651211454530
  H   2.83336572786025     -0.34134038995358     -0.25635855910556
  H   1.96638458129775      1.01938588020044      0.46546384318011
  H   1.84262810054696      0.70690320027646     -1.28189628287214
  C   -0.87873087838165      1.16442578212585      0.61345625448198
  H   -0.74122927745048      0.87986896384567      1.65800701637589
  H   -1.90534372019003      1.51085278942092      0.47990161058340
  H   -0.21092524502302      1.99314915121332      0.37611358308303
  N   -1.67676323619299     -1.04224396481613     -0.07740232666172
  O   -1.69776643634121     -1.58853850559753      1.02315070239114
  O   -2.47008702912092     -1.23956565511937     -0.99321710827837
