13

C	0.0	0.0	0.0
C	-0.533019	0.0183	-1.428153
Cl	1.787659	0.0	0.0
H	-1.64362	0.051144	-1.263805
H	-0.2006	0.916642	-1.953965
C	-0.333733	1.317791	0.616362
N	-0.481901	2.377348	1.103437
N	-0.568387	-1.120576	0.664937
H	-1.606431	-0.934672	0.555579
H	-0.349067	-1.07696	1.656801
C	-0.145391	-1.165511	-2.178875
N	0.136238	-2.094044	-2.840262
H	-2.904107	0.0	0.0
