13

C	0.0	0.0	0.0
C	-0.532139	0.149486	-1.424097
Cl	1.787504	0.0	0.0
H	-0.194243	1.089708	-1.86776
H	-1.642461	0.171855	-1.256524
C	-0.340778	1.244079	0.744906
N	-0.518466	2.239208	1.345114
N	-0.559183	-1.187487	0.551241
H	-1.598156	-0.997065	0.466137
H	-0.333566	-1.239593	1.540663
C	-0.15483	-0.967118	-2.274962
N	0.116479	-1.833622	-3.020291
H	-2.90957	0.0	0.0
