13

C	0.0	0.0	0.0
C	-0.302641	-0.025771	-1.510224
Cl	1.845131	0.0	0.0
H	0.1646	0.839576	-1.992568
H	0.147791	-0.93436	-1.916058
C	-0.760746	1.071027	0.650172
N	-0.774763	2.103486	1.254668
N	-0.343089	-1.312471	0.585248
H	0.506274	-1.844626	0.733724
H	-0.804857	-1.164859	1.473793
C	-1.75118	-0.030649	-1.811946
N	-2.617761	-0.015573	-2.629563
H	-2.088049	0.0	0.0
