16

C	-0.505756	0.005441	-1.432839
C	0.0	0.0	0.0
Br	-0.246687	-1.761854	-2.26811
H	1.09376	0.0	0.0
H	-0.28992	0.993708	0.397749
N	-1.949863	0.240625	-1.454808
H	-2.096809	1.173146	-1.075301
H	-2.26776	0.254789	-2.419404
C	0.313961	1.00019	-2.244767
H	0.149018	2.003481	-1.833767
H	1.379199	0.7702	-2.152628
H	0.00738	0.998081	-3.295208
N	-0.499293	-1.101603	0.803361
H	0.195344	-1.309866	1.508612
H	-1.374476	-0.866726	1.251227
H	3.053742	0.0	0.0
