16

C	-0.548618	0.029351	-1.410635
C	0.0	0.0	0.0
Br	0.028514	-1.75988	-2.306912
H	1.096595	0.0	0.0
H	-0.333852	0.945718	0.448374
N	-1.959473	0.111032	-1.391448
H	-2.29752	-0.565256	-0.713388
H	-2.360536	-0.07346	-2.302153
C	0.114683	1.100137	-2.24602
H	1.199209	0.985791	-2.188829
H	-0.167735	2.072402	-1.828595
H	-0.214986	1.054579	-3.287626
N	-0.609798	-1.10183	0.766072
H	-0.057561	-1.928912	0.559002
H	-0.449983	-0.906095	1.748438
H	3.079519	0.0	0.0
