16

C	-0.391099	-0.044644	-1.464701
C	0.0	0.0	0.0
Br	-0.153091	1.938412	-2.215555
H	1.101352	0.0	0.0
H	-0.322064	-0.969776	0.404334
N	0.490484	-0.911415	-2.105376
H	1.455513	-0.75286	-1.799874
H	0.40513	-0.904692	-3.111927
C	-1.851257	-0.313964	-1.744814
H	-2.461163	0.399713	-1.194118
H	-2.072901	-1.32735	-1.396385
H	-2.080513	-0.243934	-2.811262
N	-0.666018	1.056572	0.763846
H	-0.234356	1.932832	0.485732
H	-0.397129	0.918651	1.732717
H	3.039259	0.0	0.0
