16

C	-0.529149	0.072678	-1.430322
C	0.0	0.0	0.0
Br	-0.272855	-1.720317	-2.255672
H	1.096072	0.0	0.0
H	-0.392627	-0.895159	0.487562
N	-1.949306	0.33117	-1.410825
H	-2.05421	1.10226	-0.756812
H	-2.250868	0.635318	-2.330279
C	0.29253	1.05199	-2.251161
H	-0.034819	1.060426	-3.295502
H	0.143956	2.05041	-1.823547
H	1.354716	0.80149	-2.184583
N	-0.430708	1.228911	0.714116
H	-0.844807	0.971418	1.600207
H	0.416392	1.739164	0.933301
H	3.016824	0.0	0.0
