16

C	-0.528902	0.076337	-1.430893
C	0.0	0.0	0.0
Br	-0.27813	-1.718968	-2.25835
H	1.096155	0.0	0.0
H	-0.393639	-0.895795	0.485736
N	-1.94824	0.343677	-1.412389
H	-2.247874	0.653631	-2.331114
H	-2.047719	1.114628	-0.755241
C	0.29885	1.053517	-2.250395
H	-0.027869	1.067449	-3.295152
H	0.151277	2.049804	-1.819868
H	1.359615	0.80082	-2.182533
N	-0.433756	1.227195	0.715459
H	0.414159	1.74178	0.93418
H	-0.846177	0.966698	1.60218
H	3.023711	0.0	0.0
