16

C	-0.25758	-0.014221	-1.490817
C	0.0	0.0	0.0
Br	-2.248452	0.219324	-1.828087
H	1.097322	0.0	0.0
H	-0.332961	0.966162	0.411449
N	0.408077	1.089069	-2.148268
H	0.170716	1.94184	-1.6467
H	1.403971	0.928385	-1.957981
C	0.177565	-1.314804	-2.1222
H	0.037409	-1.275909	-3.204253
H	1.242635	-1.433081	-1.88427
H	-0.368436	-2.149294	-1.68599
N	-0.500493	-1.163595	0.712721
H	0.151283	-1.380333	1.457594
H	-1.405963	-0.968912	1.122481
H	2.941076	0.0	0.0
