16

C	-0.282605	0.025532	-1.481609
C	0.0	0.0	0.0
Br	-2.310256	0.289631	-1.783398
H	1.098178	0.0	0.0
H	-0.330603	0.951777	0.434831
N	0.389286	1.169811	-2.016529
H	1.320202	1.190052	-1.586368
H	0.501452	1.073765	-3.019913
C	0.055345	-1.288056	-2.154425
H	-0.14227	-1.235659	-3.228977
H	1.126589	-1.447874	-1.983312
H	-0.502275	-2.110834	-1.711686
N	-0.49443	-1.187963	0.678163
H	0.183666	-1.444138	1.386754
H	-1.377007	-0.991954	1.133417
H	2.927707	0.0	0.0
