16

C	-0.445591	0.078722	-1.457135
C	0.0	0.0	0.0
Br	-0.012216	-1.748504	-2.276471
H	1.091761	0.0	0.0
H	-0.395085	-0.91092	0.463635
N	-1.847925	0.328424	-1.572294
H	-2.368934	-0.404536	-1.102728
H	-2.128351	0.346624	-2.54617
C	0.366538	1.086635	-2.24354
H	1.429525	0.879435	-2.093319
H	0.143745	2.084853	-1.854255
H	0.116994	1.057796	-3.308281
N	-0.412397	1.189323	0.75547
H	-1.199986	1.638691	0.305115
H	0.370025	1.832586	0.768587
H	3.020379	0.0	0.0
