18

C	-0.389976	0.054468	-1.488348
C	0.0	0.0	0.0
Cl	-0.021045	-1.569826	-2.20818
H	1.094724	0.0	0.0
C	-1.864545	0.326606	-1.719516
H	-2.116562	1.287453	-1.262226
H	-2.478381	-0.459628	-1.269279
H	-2.087095	0.369987	-2.789237
C	0.535425	1.065041	-2.150944
H	0.457762	1.016394	-3.240255
H	1.55312	0.84654	-1.811104
H	0.257593	2.066244	-1.810419
C	-0.585106	-1.131241	0.704697
N	-1.103346	-1.977592	1.337938
N	-0.362871	1.280615	0.637735
H	0.454252	1.573508	1.162398
H	-1.137569	1.17055	1.281669
F	2.608628	0.0	0.0
