18

C	-0.357068	-0.011159	-1.501236
C	0.0	0.0	0.0
Cl	0.175845	1.586196	-2.168298
H	1.094708	0.0	0.0
C	0.505222	-1.076902	-2.162874
H	1.531029	-0.922322	-1.810808
H	0.165784	-2.070784	-1.850529
H	0.447768	-1.012853	-3.252768
C	-1.843412	-0.131358	-1.774415
H	-2.206247	-1.09868	-1.413517
H	-2.053126	-0.053717	-2.844845
H	-2.373089	0.667244	-1.250652
C	-0.462195	-1.243142	0.599952
N	-0.857788	-2.232079	1.102054
N	-0.542308	1.165468	0.714921
H	-1.054518	0.871426	1.537625
H	0.261334	1.69737	1.028637
F	2.611414	0.0	0.0
