18

C	-0.399949	-0.066125	-1.484736
C	0.0	0.0	0.0
Cl	-0.068969	-1.753335	-2.063539
H	1.107406	0.0	0.0
C	-1.869689	0.214978	-1.727797
H	-2.101927	0.170909	-2.795563
H	-2.09604	1.215891	-1.353605
H	-2.495183	-0.514095	-1.206782
C	0.53496	0.866997	-2.240826
H	1.553579	0.662166	-1.89772
H	0.439348	0.729191	-3.321472
H	0.279457	1.897538	-1.981101
C	-0.58744	-1.061334	0.801857
N	-1.10346	-1.855245	1.501873
N	-0.345396	1.335531	0.529269
H	0.477233	1.65767	1.024299
H	-1.11349	1.288969	1.185687
F	2.6078	0.0	0.0
