18

C	-0.137333	0.085539	-1.526985
C	0.0	0.0	0.0
Cl	-1.893352	0.228397	-2.037413
H	1.098566	0.0	0.0
C	0.614072	1.319788	-1.99889
H	0.656664	1.354848	-3.090523
H	1.619267	1.224063	-1.569305
H	0.141108	2.236256	-1.64097
C	0.470663	-1.160345	-2.145429
H	1.489143	-1.213577	-1.744108
H	-0.083039	-2.057716	-1.864185
H	0.493261	-1.083232	-3.235857
C	-0.555486	-1.240164	0.528954
N	-1.007487	-2.23905	0.953744
N	-0.475293	1.138167	0.770115
H	-1.316356	1.527067	0.356516
H	0.254216	1.83888	0.769719
F	2.639479	0.0	0.0
