15
Coordinates from ORCA-job run
  C   -0.70333439458106      0.24297367300414     -0.26637585942318
  C   0.11885255654397      0.26858835162144      1.00573146366888
  Br  -2.57302679171181      0.87042455582740      0.20215749370334
  H   -0.41230178773855     -0.29890651838825      1.76889613223653
  H   0.14466632559572      1.31009735379127      1.34243914971926
  N   -0.11633527550894      0.93778170794925     -1.32426812003169
  H   -0.64523399070042      0.85931496783945     -2.18277664515129
  H   0.05709230292646      1.90448277092721     -1.08535428796682
  N   -0.95526229707269     -1.18846093161522     -0.74232931920068
  O   -0.96016154007114     -2.06778109382103      0.10872196533434
  O   -1.16154355934252     -1.33748330865026     -1.94084835785176
  C   1.53328542945994     -0.27088802398089      0.80755375413475
  H   2.07298822266993      0.29177993853741      0.04624697987852
  H   1.51484773369577     -1.32107235317119      0.51339041833969
  H   2.08446706583535     -0.19985108987073      1.74781523261010
