15
Coordinates from ORCA-job run
  C   -0.78553816775270      0.36703004259977     -0.15348053032423
  C   0.14538356913546      0.26059842416237      1.03968587306410
  Br  -2.55348595370623      0.97122474618619      0.40423183185397
  H   0.23085938541201      1.26630032647784      1.45751607472540
  H   -0.33004974570391     -0.37678237338408      1.78481644468033
  N   -0.31031853767962      1.22639705584394     -1.15904827152811
  H   -0.93781052627514      1.25511870616420     -1.95238915115527
  H   0.60482342602590      0.93312150157783     -1.47733005811795
  N   -1.02970208107901     -1.09194698106247     -0.67649260733102
  O   -0.88852287343250     -1.26990042317726     -1.88252233717822
  O   -1.31285070910133     -1.94668211052154      0.15159126154903
  C   1.52177541451008     -0.29166383894346      0.67261467239353
  H   2.11655554019399     -0.41529770495101      1.57953801604725
  H   1.45244220808509     -1.27128760116843      0.19396495932669
  H   2.07743905136790      0.38277023019611      0.01730382199451
