15
Coordinates from ORCA-job run
  C   -0.66843598487697      0.40877129499331     -0.19059591738720
  C   0.77412355925613      0.49916933491183      0.28777286117288
  Br  -1.92970047306285      0.69668844004153      1.25157895616793
  H   0.88335358088560      1.49087163171861      0.73242197620188
  H   1.39836440186518      0.47251682883086     -0.61307825506117
  N   -0.92712970128330      1.35205123339835     -1.21170726079307
  H   -1.89350509358049      1.33012429892683     -1.51291046536634
  H   -0.31736790221534      1.18074865935161     -2.00225536187327
  N   -0.84094514941049     -1.06221504441924     -0.69722653827981
  O   -0.33581295855455     -1.24649039623110     -1.80390110502406
  O   -1.35392577541469     -1.91493864917073      0.01048410298605
  C   1.21082841434872     -0.59559127017374      1.25214215089533
  H   2.21889230310188     -0.38255984729588      1.61294670469269
  H   1.23340570401987     -1.57403999451519      0.76895415949797
  H   0.54685507492130     -0.65610652036706      2.11537399217019
