15
Coordinates from ORCA-job run
  C   -0.71502333828942      0.13435789913644     -0.26837437440934
  C   0.38379774714637     -0.53763721664705      0.55869881513173
  Br  -1.85092957609143      1.22155960567588      0.87434537487864
  H   0.87075734067462     -1.25261345102783     -0.11736337923399
  H   -0.08838322736277     -1.11228257801062      1.35977896062947
  N   -0.32874671321327      0.93128275641964     -1.38555351168323
  H   0.27397809329697      0.40843897077071     -2.00870955420799
  H   0.11993367784788      1.78341490162114     -1.08042345629056
  N   -1.54878127765955     -1.03648761688529     -0.81910572069511
  O   -1.25470616629102     -1.39218865647625     -1.95637154244262
  O   -2.33689559191096     -1.59039137733889     -0.06719303765601
  C   1.41529663827770      0.43151265481343      1.11788272046618
  H   1.92475676766165      0.97686117003378      0.32080018478384
  H   0.95717097455597      1.15215080090552      1.79643542769190
  H   2.17577465135726     -0.11897786299061      1.67515309303709
