15
Coordinates from ORCA-job run
  C   -0.61817339300940      0.01094947714082     -0.24585485341017
  C   0.54349214003850     -0.59673376662088      0.51285408995263
  Br  -1.88574222032194      0.86183976545576      1.09560588854161
  H   0.14742680462902     -1.21414918169850      1.31762909058866
  H   1.05137122930131     -1.26188600510157     -0.19297390534954
  N   -0.23163256960237      0.85859013052013     -1.28405879048659
  H   -1.02158187735442      1.16229075712824     -1.83905670819667
  H   0.30161826699176      1.64886790599556     -0.95034209882571
  N   -1.49629720888612     -1.07892465155474     -0.86379172701978
  O   -2.19956604251511     -0.74167171266258     -1.80844630126765
  O   -1.44536520646051     -2.19254886048674     -0.35932582483239
  C   1.51945026031075      0.44518584385787      1.04760000834497
  H   2.04224554226623      0.95994990240354      0.23846615171808
  H   1.01329847280048      1.18283522431138      1.67285433902729
  H   2.27945580181183     -0.04459482868829      1.65884064121526
