15
Coordinates from ORCA-job run
  C   -0.58839159458106      0.03578360542186     -0.30913451361966
  C   0.43011172981150     -0.57351537973565      0.63191771473754
  Br  -1.88149742925583      1.15917582433023      0.78419452612355
  H   0.93125049172995     -1.36457298342982      0.06472968416868
  H   -0.09979040084562     -1.04774406182447      1.45658432839653
  N   -0.02289068337298      0.70733904913763     -1.39308952408276
  H   0.55703962312051      1.48038326417315     -1.09916525619056
  H   -0.72251253621593      1.01117854919171     -2.05823350122606
  N   -1.51234336613353     -1.04006364051367     -0.88381819316088
  O   -2.08576936309594     -0.76330287021898     -1.93044212915088
  O   -1.62289513373167     -2.08080953839106     -0.24978397778574
  C   1.45285441548205      0.43500356983502      1.14253672365809
  H   0.96831272901658      1.28696903593424      1.62275595206732
  H   2.09904638497921     -0.04145489015685      1.88181006585209
  H   2.09847513309275      0.79663046624665      0.33913810021275
