15
Coordinates from ORCA-job run
  C   -0.71720878727412      0.31819975724957     -0.18545394940001
  C   0.61019641956107      0.52750926613837      0.53019235796488
  Br  -2.15848406523487     -0.05190170997428      1.05542163240411
  H   0.45026126359495      1.35220913294663      1.22829616311030
  H   1.31832564047296      0.87450333804454     -0.23140573016223
  N   -1.06514759132897      1.45125609329280     -0.95653944310653
  H   -1.96497233833571      1.34172208383940     -1.40755077233895
  H   -0.35123516999129      1.62665999576489     -1.65345545046673
  N   -0.50797865197590     -0.95188824484574     -1.07597162234010
  O   0.14205370267714     -0.71707478714958     -2.09390481306554
  O   -0.89569021404401     -2.04949863282970     -0.70722883322438
  C   1.17023389700242     -0.69992246814719      1.23665605994412
  H   1.45740303406159     -1.47836385098741      0.52755343417673
  H   2.06304516985132     -0.42094586080733      1.79950700661101
  H   0.44719769096339     -1.12346411253498      1.93488395989333
