15
Coordinates from ORCA-job run
  C   -0.84329614079392      0.29170821714398     -0.24245627191806
  C   0.06645661360695      0.27283157207056      0.98586171733415
  Br  -2.62387484329483      0.87892387543057      0.31305334489039
  H   0.13712777272764      1.30532352695367      1.34157235615720
  H   -0.42105267923277     -0.31044619814222      1.76958220920198
  N   -0.45232399179126      1.06755616504993     -1.36650498843447
  H   0.32884843551006      0.64852820506168     -1.85266745951126
  H   -0.25023448111245      2.01894949809172     -1.09033177672904
  N   -0.94904868078399     -1.16881849077310     -0.70097193644851
  O   -0.39758505107655     -1.45615413675010     -1.75924692943731
  O   -1.48031464205521     -1.95376078879178      0.07133657108018
  C   1.45136068628825     -0.29078734318726      0.68167491714843
  H   1.40578664253660     -1.34474740182623      0.39955176780742
  H   1.94705568101145      0.25942025990344     -0.12071855322019
  H   2.08109467846003     -0.21652696023485      1.57026503207910
