15
Coordinates from ORCA-job run
  C   -0.81782797311135      0.32460236155303     -0.04795482979741
  C   0.24461443865433      0.22039150990732      1.03018512646109
  Br  -2.54540898816447      0.78557069242202      0.73047844279032
  H   -0.10924335702908     -0.47907774994353      1.78720185909413
  H   0.32000178855366      1.20851078604927      1.48970026659845
  N   -0.50881048683904      1.26103744267332     -1.04944075454442
  H   -1.21822734308063      1.28329289456863     -1.77068075353360
  H   0.38428881191245      1.04762679673682     -1.47550886117442
  N   -1.03213669628987     -1.11944152847720     -0.62143741985496
  O   -1.01603439457724     -1.22869527231158     -1.84365006657206
  O   -1.17022422209007     -2.03004911520511      0.18352485991354
  C   1.60021443325968     -0.23044952883519      0.48795675187478
  H   2.29836266537174     -0.35717636473335      1.31744286982483
  H   2.04080513938283      0.50453095281664     -0.18934691808366
  H   1.53162618404707     -1.19067387722109     -0.02847057299662
