15
Coordinates from ORCA-job run
  C   -0.72359638776805      0.30495421176025     -0.24001816051738
  C   0.71934793124826      0.46656533403014      0.23717758078956
  Br  -1.96255499013085      0.65265859492029      1.20732764672398
  H   1.34155116914089      0.39811027080288     -0.66214677277679
  H   0.80999356654637      1.48618505048498      0.62311530026942
  N   -1.12742864642885      1.09988872927120     -1.36358887888224
  H   -0.44582367828710      1.00303101342957     -2.10761399351442
  H   -1.20732516142852      2.07108264517092     -1.09243206777012
  N   -0.84930961181052     -1.15353620264143     -0.70054771758087
  O   -1.42445513268270     -1.98089989106847     -0.01231938151877
  O   -0.25535976953610     -1.36910782266774     -1.75509706140168
  C   1.18484102624680     -0.55201246341683      1.27033939260342
  H   0.54410712495904     -0.54758165853166      2.15280457840987
  H   1.19287216644827     -1.56255586797753      0.85690263590092
  H   2.20314039348306     -0.31778194356657      1.58709689926508
