15
Coordinates from ORCA-job run
  C   -0.78197120158300      0.36927795771491     -0.16077502367924
  C   0.13778049477168      0.26147618854082      1.04091295873201
  Br  -2.55154905374893      0.98360984864758      0.38119902393098
  H   -0.34647497371163     -0.37443289878800      1.78172375119076
  H   0.22202490837810      1.26688933079832      1.45950861294335
  N   -0.29404190064855      1.22479667364061     -1.16413350344791
  H   -0.91724476940132      1.25644631220491     -1.96088411078544
  H   0.61931701772202      0.92098062916436     -1.47812615395405
  N   -1.02847366681806     -1.08933137586397     -0.68272470187462
  O   -0.87766888784429     -1.26959336311970     -1.88732975755333
  O   -1.32369359016379     -1.94131861832279      0.14380282061659
  C   1.51586572292521     -0.29482051024188      0.68610794437119
  H   1.44759108056194     -1.27387657303365      0.20611503966528
  H   2.07863637747474      0.37896711366044      0.03628385813540
  H   2.10190244208587     -0.42107071500196      1.59831924170903
