15
Coordinates from ORCA-job run
  C   -0.85054866096219      0.28469815606359     -0.22456813315709
  C   0.08574758299740      0.27369355126210      0.98370263228012
  Br  -2.62244595221202      0.86153290193354      0.36876785500543
  H   -0.37993752493616     -0.31147730655188      1.77917577737058
  H   0.15690124816798      1.30753036952830      1.33548988184759
  N   -0.48887783147614      1.06199530461921     -1.35744367739465
  H   -0.28894906773618      2.01539952412624     -1.08669274268543
  H   0.28563120989029      0.64850792276378     -1.85879998626130
  N   -0.95687517971044     -1.17678416755607     -0.67902940386292
  O   -0.42549215649103     -1.46160030492248     -1.74825703948003
  O   -1.46742029875505     -1.96429556251683      0.10444006479161
  C   1.46798327915970     -0.27986665058259      0.65009388835127
  H   1.42382772701782     -1.33320315431513      0.36532146189096
  H   1.94414235899947      0.27647323682460     -0.15981668013068
  H   2.11431326604656     -0.20460382067639      1.52661610143452
