12
Coordinates from ORCA-job run
  C   -0.49354091162790      0.29768576995232     -0.19436687965871
  C   0.79064954239847      0.49715125383043     -0.58309485892237
  H   1.03081270044932      1.28655496981426     -1.28987826944498
  C   -1.49845016032676      1.16842137418355     -0.70438047314103
  N   -2.34856321723069      1.87638070855766     -1.10815879214836
  C   -0.88126987709306     -0.80668730715578      0.75693973755630
  H   -0.50726652504615     -1.77263312008334      0.40280384358656
  H   -0.47626269718987     -0.63295572643351      1.76032441572345
  H   -1.96441301471221     -0.88108860647042      0.84821734191420
  N   1.84863721754460     -0.29929314162413     -0.21089842288735
  H   1.73581547662750     -0.83830258956345      0.63285424916967
  H   2.76385146620674      0.10576641499242     -0.31036189174739
