12
Coordinates from ORCA-job run
  C   -0.37401368195021     -0.04040069051836      0.01369177429331
  C   0.97998304907585     -0.13513673179749     -0.02396032258128
  H   1.45311721812443     -1.04482684383198      0.33827071792211
  C   -0.96642500882335      1.16979783721926     -0.45398349033237
  N   -1.41154941626982      2.19062546287959     -0.83950424242367
  C   -1.26992755046558     -1.13953491159647      0.51804793266043
  H   -1.93248710801824     -1.50592320852279     -0.27089331418023
  H   -0.67039791498480     -1.98028174006460      0.87411855704379
  H   -1.89695306898956     -0.79243089203369      1.34348641979632
  N   1.84382518408911      0.78453000830796     -0.56734017201054
  H   1.46553667594350      1.70523011608403     -0.73720209103280
  H   2.77829162226866      0.78935159387454     -0.19473176915508
