12
Coordinates from ORCA-job run
  C   -0.37145029069730     -0.04840258060400      0.01311966448238
  C   0.98066653799615     -0.04500273078016      0.13523805411257
  H   1.47109124648999     -0.90885299516974      0.57787966259207
  C   -0.98668261384276      1.09284907669827     -0.58177956618353
  N   -1.45515297964124      2.04929587474077     -1.08615734852635
  C   -1.24523617330901     -1.18353187287470      0.47419551902197
  H   -0.63149526439749     -1.99051670279516      0.88043681582288
  H   -1.93852942866021     -0.85897093070892      1.25475956906027
  H   -1.83893009869137     -1.58773984660289     -0.34988435289587
  N   1.82116611691488      1.00057068662649     -0.16472898824485
  H   2.76479551146383      0.75080464017594     -0.40892204021834
  H   1.43075743637452      1.73049738129409     -0.74315698902320
