12
Coordinates from ORCA-job run
  C   -0.50724863913650      0.32481035375044     -0.08462523789173
  C   0.76659503737466      0.71141804849159     -0.34541332240326
  H   0.96287218148117      1.68384906804421     -0.78808623612343
  C   -1.56856956348593      1.20631616986918     -0.43788936557540
  N   -2.46529956066380      1.91419751407217     -0.72335696837099
  C   -0.82656766326997     -1.00013712266600      0.56190223214720
  H   -0.57919562547413     -1.83882305633012     -0.09867729778225
  H   -1.88715692112958     -1.07226813592171      0.80105168964471
  H   -0.26349789683174     -1.12264274240812      1.49269838802790
  N   1.88441425104366     -0.01544320914402     -0.00549059519981
  H   2.72763413801241      0.21425530721969     -0.50353659360602
  H   1.75602026207975     -1.00553219497730      0.13042330713308
