12
Coordinates from ORCA-job run
  C   -0.36925495373613     -0.06921126735467     -0.00100034252889
  C   0.98510490180464     -0.04219627457238      0.09148649175895
  H   1.48206641753679     -0.75601662683754      0.74436885197309
  C   -0.99410957091847      0.88740657932215     -0.85480212437814
  N   -1.47052303894461      1.70002353273733     -1.56283766926834
  C   -1.23425886328763     -1.05156285983489      0.74149751686962
  H   -1.79117094348280     -1.69124449264579      0.05152316611252
  H   -0.61763456602338     -1.69286890051418      1.37514091742407
  H   -1.96040046039800     -0.53910596309217      1.37791906252556
  N   1.83335725007862      0.75455878773464     -0.63889514999357
  H   2.72399045404559      0.95750901096573     -0.21746042640805
  H   1.41183337332538      1.54370847409177     -1.10694029408681
