12
Coordinates from ORCA-job run
  C   -0.50406130681403      0.33926779898091      0.02254706341535
  C   0.77325721081508      0.77707133747754     -0.10802610899011
  H   0.97779256806198      1.83726715912169     -0.22734124004214
  C   -1.55817019403658      1.29515903961426     -0.03783495865203
  N   -2.44964063353802      2.06279626477392     -0.08757372356357
  C   -0.83552441035210     -1.11796302536158      0.22733561387208
  H   -1.89587842367775     -1.25103436005315      0.43976649172810
  H   -0.59938956628202     -1.71350231878933     -0.66174284287492
  H   -0.27017296981874     -1.52826452422565      1.07027769915267
  N   1.88441455074756     -0.02897869497897     -0.01785300403700
  H   2.73063375176253      0.33910043956585     -0.41797335374840
  H   1.74673942313208     -1.00991911612547     -0.20158163626002
