12
Coordinates from ORCA-job run
  C   -0.37287707537676     -0.03753803282013      0.02339386312426
  C   0.98138531791209     -0.07188172678951      0.11345359381742
  H   1.45804780561542     -0.94893634392522      0.54503446259495
  C   -0.96880463221726      1.12038886025517     -0.55901479666227
  N   -1.42008420431085      2.08955084633098     -1.05461376794041
  C   -1.26681806515868     -1.14934894184097      0.50205737174238
  H   -0.66641565199260     -1.97309533358397      0.89429434016493
  H   -1.93469174765091     -0.80819018504019      1.29760737030199
  H   -1.88821522520425     -1.53603893741602     -0.30992093026481
  N   1.84297299626066      0.94931901765327     -0.20788751888107
  H   1.46048418402537      1.69122550754691     -0.77632493305814
  H   2.77501629809777      0.67554526962969     -0.46907905493923
