12
Coordinates from ORCA-job run
  C   -0.49199335055523      0.35788132319390      0.00996879543919
  C   0.79446727942275      0.73819615476715     -0.19203584551666
  H   1.03058726812286      1.77735322166964     -0.40292966389241
  C   -1.51455357179774      1.34338958079721     -0.09663727423594
  N   -2.37992174833533      2.13746607860070     -0.18282568293166
  C   -0.86449755788113     -1.06640347961487      0.33815295680832
  H   -0.28974172919196     -1.42999560578636      1.19613891319433
  H   -1.92234225433464     -1.14650596342028      0.58675061387726
  H   -0.67217324715713     -1.73632043474293     -0.50769715269944
  N   1.88071038255721     -0.09695551071138     -0.06696384336704
  H   2.72484214774566      0.20569578072892     -0.52251509910665
  H   1.70561638140467     -1.08480114548170     -0.16040671756930
