12
Coordinates from ORCA-job run
  C   -0.46063922673050      0.38745206823637      0.08638165005651
  C   0.85676031726441      0.69109805149183     -0.02573292745414
  H   1.18262884459263      1.72711347502415     -0.00484592185299
  C   -1.39447051277112      1.45747502765290      0.19439613082395
  N   -2.18735796011783      2.32387083220854      0.28125995915617
  C   -0.95800780868393     -1.03641645117519      0.09663845697352
  H   -0.80953640569135     -1.52076546363316     -0.87528877227773
  H   -2.02232075824893     -1.07709640987639      0.32603477711138
  H   -0.42983873650550     -1.62585062047268      0.85300161820869
  N   1.86752180061631     -0.24082194807179     -0.08175277812540
  H   1.61234706356512     -1.16585289912069     -0.38905255728230
  H   2.74291338271068      0.07979433773609     -0.46003963533765
