12
Coordinates from ORCA-job run
  C   -0.48701983566760      0.35624613652150     -0.07861159121080
  C   0.81225109340017      0.68809384322149     -0.28387134267529
  H   1.07741541673156      1.69609941162568     -0.58984897785445
  C   -1.47933343427551      1.36380944341566     -0.24653222572775
  N   -2.32092417579986      2.17727796681404     -0.37514438183611
  C   -0.90531637965401     -1.03940233254699      0.31234649871631
  H   -0.54738810270473     -1.29960993245379      1.31485112900343
  H   -0.50688353176705     -1.77628201987225     -0.39239828549321
  H   -1.99073965783575     -1.13428621139586      0.31616174555447
  N   1.86112360515779     -0.19871295291727     -0.21388323137372
  H   1.71135262278385     -1.03696556651319      0.32444039174403
  H   2.77446237963116      0.20273221410101     -0.08750972884691
