12
Coordinates from ORCA-job run
  C   -0.36480024494835     -0.08418847386171     -0.02433029464893
  C   0.98171160181460     -0.01070182313269      0.13382906331539
  H   1.47927211573399     -0.75223692009372      0.75451612915765
  C   -0.99176334511789      0.90992376268840     -0.83286388239553
  N   -1.47061488517847      1.75569600750448     -1.49914405270125
  C   -1.21905145851767     -1.15339740562706      0.60137889406212
  H   -1.99202831167452     -0.71941133117543      1.24084922168229
  H   -1.71942001734220     -1.75785940208455     -0.15996465125769
  H   -0.60411032626064     -1.81838768982831      1.21164239733466
  N   1.82671830195941      0.87194703213041     -0.49540576382576
  H   2.68462661855192      1.08097859538243     -0.01315251899021
  H   1.39045995097983      1.67863764809776     -0.91835454173273
