12
Coordinates from ORCA-job run
  C   -0.36316910645581     -0.09376467111958      0.00778510759337
  C   0.95189181666228      0.17587752965061      0.21139717282339
  H   1.46163473245520     -0.29617608418808      1.04807046111527
  C   -1.00327325320272      0.53036786516945     -1.10382207472340
  N   -1.49111745540249      1.05914392778697     -2.03711689621591
  C   -1.17112373572931     -1.00651493489969      0.89000473899098
  H   -1.59941123281980     -1.83393170312360      0.31826751137411
  H   -1.99664047388001     -0.47126895094065      1.36705939955750
  H   -0.54056915032634     -1.42631986036099      1.67682610973231
  N   1.71398569259314      1.07870048933869     -0.49058030234732
  H   1.33343893553780      1.38733476698169     -1.37375004290909
  H   2.70335323056807      0.89755162570519     -0.51614118499121
