12
Coordinates from ORCA-job run
  C   -0.47833093711732      0.37507966338463      0.02942796327827
  C   0.82607694511744      0.72041944722772     -0.10954562272954
  H   1.11429748554592      1.76731559490046     -0.14117227720107
  C   -1.44384123447961      1.41293944084958      0.16572223058547
  N   -2.26269717639608      2.25095310505718      0.28367190997190
  C   -0.92885429791812     -1.06439747125539      0.04198007392439
  H   -0.56601833548122     -1.59080266643360      0.93206069529620
  H   -2.01617649548729     -1.13333803220857      0.03973946697632
  H   -0.55708893622743     -1.59493048727240     -0.84058079426686
  N   1.85053816405295     -0.17695971047205     -0.30630379941327
  H   1.68664959075877     -1.12317536709696     -0.00100973558235
  H   2.77544522763200      0.15689648331938     -0.09399011083945
