12
Coordinates from ORCA-job run
  C   -0.46383634459006      0.38752998170286      0.07278810539760
  C   0.84199610724247      0.69933569968858     -0.12112938378864
  H   1.14983597497335      1.73801625506429     -0.20153259697241
  C   -1.41301362867624      1.44766791274585      0.12996392479103
  N   -2.21924463214218      2.30464333268143      0.17753787928009
  C   -0.93251689798206     -1.03792613194795      0.22585782995379
  H   -1.98604127947599     -1.07595895897912      0.50088805200942
  H   -0.81344568603884     -1.60253478036848     -0.70591126343435
  H   -0.36274122229988     -1.55070271842749      1.00744787519560
  N   1.86545874112219     -0.22003274272298     -0.14271131138059
  H   1.61464416628345     -1.17086644795399     -0.36229942955154
  H   2.71890470158381      0.08082859851698     -0.58189968149999
