12
Coordinates from ORCA-job run
  C   -0.36738978404193     -0.06907215981490      0.01832559032109
  C   0.97339474747195      0.08050576205417      0.17103025392287
  H   1.48910994521002     -0.52621334465548      0.91167556032511
  C   -1.01656653092064      0.73053851963546     -0.96867249343023
  N   -1.51510649773801      1.40114101648306     -1.79961939288599
  C   -1.19682428534129     -1.02334390928940      0.83461857463024
  H   -1.72110935439583     -1.73963144607241      0.19686721282486
  H   -0.55980132613840     -1.58192260076330      1.52388725959502
  H   -1.94856390880895     -0.49126987878407      1.42362949759659
  N   1.76507824016879      1.00804109542320     -0.46316578837635
  H   2.73431644968202      0.76080512712953     -0.57079008182221
  H   1.36446230485227      1.45042181865414     -1.27778619270100
