12
Coordinates from ORCA-job run
  C   -0.47721827889006      0.36985843927978      0.07432507025644
  C   0.83041632506894      0.72334323378415      0.00273684443771
  H   1.11627644391054      1.77071860328873      0.03845506214777
  C   -1.45449213612487      1.40206422188718      0.16095026957437
  N   -2.28340604995932      2.23574452357067      0.22900524834249
  C   -0.91955238947762     -1.07211933916169      0.06363960767860
  H   -0.72097025167167     -1.54605619639521     -0.90431152338157
  H   -1.98867481733326     -1.15430793416081      0.25675231657630
  H   -0.39422054503803     -1.64410255833831      0.83530886366890
  N   1.87635797051076     -0.16999575787608     -0.02905247629619
  H   2.74997182403537      0.18564251819389     -0.37850506216050
  H   1.66551190496920     -1.10178975407230     -0.34930422084431
