17

C	0.0	0.0	0.0
C	-0.695356	0.130451	-1.338541
Cl	1.792609	0.0	0.0
H	-1.91757	0.11032	-0.881237
C	-0.39	1.233444	0.8204
H	0.02549	2.152113	0.398403
H	-1.481111	1.268784	0.860958
H	0.000888	1.105994	1.834194
N	-0.468668	-1.251432	0.558852
H	-0.158991	-1.309897	1.529757
H	-1.492773	-1.14286	0.575671
N	-0.56297	-1.049958	-2.239731
O	0.502506	-1.662128	-2.305714
O	-1.569701	-1.333399	-2.895369
C	-0.38515	1.317417	-2.085958
N	-0.187592	2.306514	-2.695181
H	-2.856881	0.0	0.0
