17

C	0.0	0.0	0.0
C	-0.668827	0.09911	-1.361679
Cl	1.788711	0.0	0.0
H	-1.821544	0.057094	-0.980855
C	-0.402007	1.256138	0.779207
H	-0.028291	1.166541	1.802829
H	0.011065	2.163704	0.334779
H	-1.496881	1.290259	0.791263
N	-0.449735	-1.225995	0.60926
H	-1.478721	-1.179493	0.55342
H	-0.196849	-1.191337	1.591936
N	-0.396928	-1.065257	-2.241797
O	0.414356	-0.921783	-3.16256
O	-1.013904	-2.101169	-2.00416
C	-0.372966	1.325995	-2.065648
N	-0.21152	2.357722	-2.607607
H	-2.905756	0.0	0.0
