17

C	0.0	0.0	0.0
C	-0.535923	0.014862	-1.455474
Cl	1.795	0.0	0.0
H	-1.656451	-0.065229	-1.24941
C	-0.440381	1.299409	0.658146
H	0.016642	2.166836	0.180958
H	-1.534373	1.33865	0.592811
H	-0.137727	1.252859	1.705132
N	-0.501999	-1.085866	0.782252
H	-1.531398	-0.941562	0.749835
H	-0.313761	-1.962572	0.307585
N	-0.07028	-1.167802	-2.228678
O	-0.48999	-2.267429	-1.862082
O	0.712041	-0.994929	-3.165376
C	-0.207128	1.222167	-2.191959
N	0.006447	2.228207	-2.761546
H	-2.966375	0.0	0.0
