16

C	-0.396975	0.009348	-1.461264
C	0.0	0.0	0.0
F	0.187703	-1.003858	-2.145378
H	1.095914	0.0	0.0
H	-0.174685	0.966783	-1.931445
N	-1.897276	-0.189386	-1.587704
O	-2.596562	0.764644	-1.24862
O	-2.315815	-1.282053	-1.955341
C	-0.485439	-1.262064	0.704886
H	-1.575468	-1.261615	0.827747
H	-0.024683	-1.31348	1.693896
H	-0.196838	-2.158646	0.151504
N	-0.402741	1.261665	0.612083
H	0.209049	1.441241	1.400125
H	-1.361403	1.217847	0.941981
Br	3.592213	0.0	0.0
