16

C	-0.357512	0.009977	-1.485964
C	0.0	0.0	0.0
F	0.229081	-1.013841	-2.151963
H	1.096156	0.0	0.0
H	-0.102286	0.958011	-1.963702
N	-1.851515	-0.151622	-1.66444
O	-2.531143	0.841369	-1.39128
O	-2.292687	-1.24424	-2.000742
C	-0.510028	-1.259174	0.678902
H	-1.599188	-1.239197	0.798813
H	-0.056318	-1.314032	1.668504
H	-0.233147	-2.151923	0.115119
N	-0.429222	1.189443	0.720087
H	-1.377157	1.445999	0.468951
H	0.187356	1.961794	0.494418
Br	3.58054	0.0	0.0
