15
Coordinates from ORCA-job run
  C   0.60753202197128      0.02900329527351     -0.42708908783219
  C   -0.86540298079680     -0.31756033612229     -0.14962402062550
  Cl  0.92539271109082      0.08294457003854     -2.16585870108190
  H   -1.15256905117087     -1.18704531673375     -0.73869436102514
  N   1.41959619738909     -1.22848565219780      0.06982168791953
  O   2.50827103378251     -0.98827565334038      0.57038755265117
  O   0.90940259565155     -2.32637159143436     -0.11023469498198
  N   0.99365541367610      1.22137981079864      0.17813731319169
  H   1.97638325854069      1.41690878011838      0.03967345215170
  H   0.75168242583224      1.26355093849184      1.16089700915918
  N   -1.73962095586348      0.83532181737444     -0.59771700986149
  O   -2.17489428252144      0.75170143336996     -1.73950541519455
  O   -1.92045750527397      1.74076709177378      0.20576409620112
  C   -1.06243745938626     -0.55293777116766      1.27432698596828
  N   -1.17553342292146     -0.73990141624285      2.42871519336008
