15
Coordinates from ORCA-job run
  C   0.57690249757441      0.02491256837663     -0.46607679193371
  C   -0.89325259526275     -0.25278948785497     -0.10712793857814
  Cl  0.77841792884538      0.19196723595606     -2.21518863441635
  H   -1.27500963565286     -1.05755270859464     -0.73325691869339
  N   1.33670610299783     -1.31358014093621     -0.12211113440350
  O   2.46802173254364     -1.17877729387002      0.32008297812356
  O   0.74690883022254     -2.36159597993231     -0.35036559773211
  N   1.08040910123314      1.14235765941933      0.19324259990389
  H   0.91265442998511      1.12220164064537      1.19204409559828
  H   2.06101753897837      1.29161390487332     -0.00475129152331
  N   -1.71932371700068      0.97981936946525     -0.40919874932700
  O   -1.78720092744213      1.83232986742001      0.46617463019471
  O   -2.23337261664119      1.00714982341908     -1.52062453032634
  C   -1.00637816483754     -0.58165740164904      1.30726909850625
  N   -1.04850050554327     -0.84739905673787      2.45088818460715
