15
Coordinates from ORCA-job run
  C   0.60454388788033     -0.34234678188501     -0.23813094558891
  C   -0.73149529416177      0.36923312635059      0.09320870272809
  Cl  0.27092319994755     -1.97355039770115     -0.77149998096517
  H   -0.49235333289837      1.27904252049704      0.65309331854574
  N   1.45906415610490     -0.33720782166721      1.05394981485235
  O   1.93018975954585     -1.37520762707717      1.47091032737718
  O   1.63541567836988      0.79674267365647      1.49029963385911
  N   1.42081067164580      0.32746114159873     -1.19027290392644
  H   1.03224732153340      0.27661671021401     -2.12354421283114
  H   1.59261443738624      1.28883459641362     -0.91912916535064
  N   -1.58710074530223     -0.46094871393646      1.02417601172611
  O   -1.00918662647696     -0.82544181200874      2.04062628040506
  O   -2.75140120571762     -0.66767734611630      0.71674630610715
  C   -1.43900140203488      0.68459209982603     -1.13635417966140
  N   -1.93427050582211      0.96085763183555     -2.16507900727710
