15
Coordinates from ORCA-job run
  C   0.65152097590036     -0.15383264408366     -0.38833262740862
  C   -0.86375678776695      0.08162500426140     -0.42811364215271
  Cl  1.04866001313096     -1.16290245451299     -1.84052590038544
  H   -1.07728244719040      0.66008324014687     -1.33057779353273
  N   1.06932021602899     -1.01668583991540      0.81630273071487
  O   2.07095017647114     -0.65608133488261      1.41916028888817
  O   0.39148360198235     -2.00588167948689      1.03163753897269
  N   1.30569055334975      1.07615597438131     -0.29293404176908
  H   1.21459198831636      1.63092260488398     -1.13334172615937
  H   2.27335675037710      0.97411577786939     -0.01658147164754
  N   -1.21532842423439      0.99670652136141      0.72734490535729
  O   -1.02819748934590      0.54348438275618      1.84791224262996
  O   -1.63141430398873      2.10773529841876      0.42828470660923
  C   -1.71719566633228     -1.09662722847333     -0.40150754890782
  N   -2.49339915669833     -1.97681762272442     -0.43772766120890
