15

C	-0.435163	0.077729	-1.459515
C	0.0	0.0	0.0
Br	-0.144091	-1.693412	-2.394104
H	1.089007	0.0	0.0
H	-0.359945	0.912443	0.477917
N	-1.856756	0.296253	-1.578572
H	-2.13083	0.250522	-2.552026
H	-2.045482	1.233702	-1.231269
N	0.374879	1.098206	-2.03
H	0.24745	1.146363	-3.033025
H	1.360382	0.943226	-1.820432
N	-0.589772	-1.115346	0.767242
O	-0.039239	-2.211055	0.723815
O	-1.607327	-0.860062	1.41777
Br	3.499484	0.0	0.0
