18

C	0.0	0.0	0.0
C	-0.441651	0.097029	-1.466101
Br	2.05682	0.0	0.0
H	-1.53887	0.141284	-1.413612
N	-0.483294	1.041335	0.814813
H	-1.01719	1.722067	0.292443
H	-1.060426	0.669446	1.556677
C	-0.376955	-1.364205	0.55247
H	-1.466431	-1.448058	0.484844
H	0.09757	-2.16839	-0.003979
H	-0.069853	-1.413966	1.600655
N	-0.000222	-0.986255	-2.26092
H	-0.491162	-0.992235	-3.144413
H	0.995608	-0.912372	-2.432898
N	-0.01867	1.455391	-2.060364
O	-0.562452	2.466613	-1.617342
O	0.814971	1.450349	-2.962025
Br	-3.808694	0.0	0.0
