18

C	0.0	0.0	0.0
C	-0.450082	-0.033007	-1.480176
Br	1.994927	0.0	0.0
H	-1.541722	0.090201	-1.440343
N	-0.476343	1.099614	0.77405
H	-1.473509	0.923707	0.927762
H	-0.407401	1.959838	0.243647
C	-0.42517	-1.296207	0.67394
H	0.027314	-2.161326	0.19704
H	-0.130441	-1.240815	1.723256
H	-1.514555	-1.368356	0.603688
N	-0.092086	-1.228085	-2.151971
H	-0.574385	-1.289685	-3.037696
H	0.905578	-1.249017	-2.321403
N	0.06641	1.212767	-2.222281
O	-0.315503	2.315755	-1.832673
O	0.82712	1.039179	-3.173472
Br	-3.815337	0.0	0.0
