18

C	0.0	0.0	0.0
C	-0.323678	-0.134888	-1.529201
Br	2.014343	0.0	0.0
H	0.293908	0.599741	-2.051665
N	-0.512408	1.252624	0.393157
H	-0.611717	1.35547	1.391921
H	-0.034159	2.042278	-0.01548
C	-0.544719	-1.092765	0.888498
H	-0.2705	-0.888745	1.92701
H	-0.165787	-2.07227	0.609438
H	-1.63657	-1.072315	0.79791
N	-1.680791	0.006297	-1.935873
H	-1.987268	0.947596	-1.717808
H	-2.320616	-0.575492	-1.397714
N	0.151432	-1.460555	-2.065132
O	1.11404	-1.4694	-2.830058
O	-0.493527	-2.451726	-1.728039
Br	-4.394003	0.0	0.0
