10
Coordinates from ORCA-job run
  C   -0.12222370932802     -0.13672706217657     -0.39363454346038
  C   0.90118399230822      0.32553803572387      0.34603799613862
  H   0.05721872726593     -0.37036531355432     -1.44179277727452
  H   0.76844841922786      0.57172367104895      1.39628240573426
  C   -1.50230924742762     -0.35202609385281      0.13665936331766
  H   -2.22678376704177      0.24981474489865     -0.41940688335660
  H   -1.80091718442696     -1.39780742681914      0.02044480900849
  H   -1.57153836628115     -0.08758320971287      1.19320862718541
  C   2.20940511268403      0.51810118355793     -0.19944538692697
  N   3.28851602301950      0.68033147088631     -0.63735361036596
