10
Coordinates from ORCA-job run
  C   -0.07242010095867     -0.29627029180014     -0.31141921907288
  C   0.82536992675384      0.55559396054403      0.21441054895024
  H   0.22020923484157     -0.89629464548750     -1.17132434521306
  H   0.57550282444915      1.17324609873596      1.07305020230088
  C   -1.45935766762236     -0.47233131033388      0.21600480752462
  H   -1.62560771285025     -1.50873182662006      0.52379459701138
  H   -2.19820573580860     -0.24738045345299     -0.55846234791745
  H   -1.64720798190940      0.17719788919926      1.07272068919943
  C   2.14612986689354      0.69562495498875     -0.31624998508262
  N   3.23458734621119      0.81934562422656     -0.74352494770055
