10
Coordinates from ORCA-job run
  C   -0.17047095596601     -0.09672830718259     -0.38786926224489
  C   0.90042137046662      0.40276487791222      0.25383887440800
  H   -0.14742724601015     -0.15121414604477     -1.47504314833770
  H   0.92088159225465      0.47587586390387      1.33804676598506
  C   -1.40164063075544     -0.58584737149992      0.30315333320802
  H   -1.58508494620682     -1.63740598129949      0.06473961004144
  H   -2.27943543680479     -0.02555365735516     -0.03137201388481
  H   -1.31951214841605     -0.48610567325170      1.38682951897632
  C   2.06157069315594      0.86163840077477     -0.44408064061413
  N   3.02069770828206      1.24157599404277     -1.00824303753733
