10
Coordinates from ORCA-job run
  C   -0.13012385467466     -0.47128818781589     -0.63820436077916
  C   1.15934861879102     -0.15510082221171     -0.41566010461118
  H   -0.34345035836774     -1.10838729024052     -1.49431568518182
  H   1.94461611492741     -0.52411458838985     -1.06749295047089
  C   -1.29259625497133     -0.02451830556859      0.18681624373528
  H   -0.98116867587957      0.60793121495128      1.01911618708911
  H   -1.82949798990992     -0.88892765371046      0.58785301183306
  H   -2.00317266070512      0.53464018391673     -0.42871241488560
  C   1.56835990096474      0.67418641366116      0.67687865876038
  N   1.90668515982516      1.35557903540785      1.57372141451082
