10
Coordinates from ORCA-job run
  C   -0.20934488421457      0.11636849390834     -0.36136079354234
  C   0.97235390146703      0.12023110618727      0.28026960456311
  H   -0.26640380202260      0.56994008314719     -1.34952147976189
  H   1.07585753823263     -0.32110527410256      1.26803913019108
  C   -1.46046459290002     -0.47605441339748      0.20073106325714
  H   -1.83984565623476     -1.26671744333907     -0.45299617199448
  H   -2.24593198610906      0.28156990712179      0.27365971327261
  H   -1.29338254021165     -0.89801399694932      1.19341176889383
  C   2.14755990692613      0.69930273082774     -0.29393910107769
  N   3.11760211506687      1.17347880659608     -0.75929373380138
