10
Coordinates from ORCA-job run
  C   -0.03730058470624     -0.43132593041192     -0.01548296659993
  C   0.82130095360591      0.60349392302122     -0.02384382978505
  H   0.36440127928987     -1.44128150018579     -0.07929431048360
  H   0.46519846776011      1.62846258064443      0.03784918273334
  C   -1.52100336953765     -0.28199043132830      0.07681712592885
  H   -2.00796265000258     -0.72643005105305     -0.79599676073933
  H   -1.81511882035013      0.76721449239225      0.14053581933326
  H   -1.90622917826847     -0.80425996118836      0.95720807930103
  C   2.23666667119855      0.41651800079613     -0.11302660613717
  N   3.40104723101063      0.27059887731338     -0.18576573355140
