10
Coordinates from ORCA-job run
  C   -0.10199740011924     -0.75059334001542     -0.27001048682814
  C   1.14030039533880     -0.25402659160053     -0.41964555772868
  H   -0.27611934762103     -1.76470678269360     -0.62443475370509
  H   1.92696340897784     -0.84686751368023     -0.87503055802911
  C   -1.26090182127412     -0.03162657992384      0.33954493745617
  H   -0.99035919315371      0.97413366592586      0.66354784276115
  H   -1.64086018336017     -0.58545341376865      1.20287782237053
  H   -2.08277908100223      0.04296453029141     -0.37828335909252
  C   1.49537789863073      1.06561023394920      0.00578237353803
  N   1.78937532358315      2.14956579151580      0.35465173925767
