10
Coordinates from ORCA-job run
  C   -0.07216805486686     -0.74827998752012     -0.28499966776487
  C   1.17315343711526     -0.23891513122404     -0.32844314266172
  H   -0.20707208930992     -1.76007314106658     -0.66234570342739
  H   1.99959698022459     -0.81975365769193     -0.72491022097873
  C   -1.28380317427601     -0.04663145847253      0.23583933315872
  H   -2.04559085731893      0.02793958226938     -0.54546685419968
  H   -1.72693179743201     -0.61310699780367      1.05994226373389
  H   -1.05052050718584      0.95802240105084      0.59072114361761
  C   1.47928572519848      1.07913130711379      0.13776655263423
  N   1.73305033785125      2.16166708334488      0.52089629588794
