10
Coordinates from ORCA-job run
  C   -0.25185541631397      0.15545835996191     -0.31911782096429
  C   1.00034980855758      0.09101540061531      0.16681793354283
  H   -0.42598971091140      0.71268921142991     -1.23811573257684
  H   1.21919056505962     -0.45469752998856      1.08091531551579
  C   -1.43046088337693     -0.49530894900904      0.32907409646479
  H   -2.19076276901243      0.24922138420847      0.58200310526319
  H   -1.89894291802825     -1.21056606070815     -0.35302192503918
  H   -1.14551591682847     -1.02279434709194      1.24106973574073
  C   2.10449293101680      0.72810491998382     -0.48204935088058
  N   3.01949430983745      1.24787761059828     -1.00657535706644
