12
Coordinates from ORCA-job run
  C   0.69085948654059     -0.15227030930127     -0.32054271708948
  C   -0.61325313711168     -0.35885572959589      0.44391394439167
  F   0.52349456968686     -0.59736325485076     -1.61050394930104
  H   -0.53734489416467      0.01604779366418      1.46656001408989
  H   -0.86687098684578     -1.41856314807581      0.45596387328298
  C   1.14730484023024      1.24770902452199     -0.32609272857498
  N   1.57716847191424      2.33932981213960     -0.27532137753592
  C   1.72276126107945     -0.97720298017874      0.33715499724471
  N   2.51470127510555     -1.64941788835241      0.88549549251926
  N   -1.76610966599820      0.34582889753617     -0.20538981294465
  O   -1.52142805801480      1.29948843570006     -0.93511269835472
  O   -2.87128316242180     -0.09473065320712      0.08387496227229
