12
Coordinates from ORCA-job run
  C   0.67226104187687     -0.20929134124130     -0.32637716712144
  C   -0.56826422157680     -0.25608450085089      0.56057443076210
  F   0.43351051014960     -0.94842287179644     -1.46077692408033
  H   -0.43729092988489      0.35157064191338      1.45823150760218
  H   -0.78105847517678     -1.28798456661595      0.83838321845463
  C   1.07621992341933      1.15835536545993     -0.69334977722399
  N   1.47042791771877      2.23813805120249     -0.93347923444386
  C   1.77604978968795     -0.83623781700600      0.42632940157436
  N   2.62736612613029     -1.34701056335439      1.05413227456422
  N   -1.78776722322094      0.25266087298535     -0.14738539752942
  O   -1.62869529659016      1.01932177897476     -1.09001701050994
  O   -2.85375916253323     -0.13501504967093      0.31373467795148
