12
Coordinates from ORCA-job run
  C   0.68133305171896     -0.18774364304637     -0.32103711823635
  C   -0.59592989383832     -0.30312844317828      0.50542181015176
  F   0.47608951075252     -0.79044926959303     -1.53969417407011
  H   -0.49058438500452      0.19663112422127      1.47042318400461
  H   -0.84016950058270     -1.35418357564763      0.65705576920818
  C   1.12636624029827      1.20227609712866     -0.51620779951699
  N   1.55001803600602      2.29273313776441     -0.61835860387066
  C   1.74052786809957     -0.92062967811491      0.39924210409679
  N   2.55482659412742     -1.51802365958726      0.99907946008353
  N   -1.77444288122316      0.31057474479855     -0.18838021718544
  O   -2.86633829804412     -0.09717723534946      0.18671484794037
  O   -1.56069634230995      1.17012040060407     -1.03525926260569
