12
Coordinates from ORCA-job run
  C   0.72553875498807     -0.01611053723323     -0.27301087291198
  C   -0.61077512060445     -0.50115669351958      0.28122995587895
  F   0.70587697082136     -0.13733547868219     -1.64237513511526
  H   -0.75995236824443     -1.54718551240036      0.01512057927052
  H   -0.65735097393144     -0.38316801030062      1.36572059908809
  C   1.04561369560552      1.37068251162353      0.10445056378548
  N   1.36775105453764      2.44343544843368      0.45743556706451
  C   1.77491101382109     -0.90144230416726      0.26791629679261
  N   2.58071949431710     -1.63048198095609      0.71394234888649
  N   -1.76858554962522      0.25388066867022     -0.29912050894309
  O   -2.84380313923917     -0.32986358175099     -0.25213190804432
  O   -1.55994383244608      1.37874547028289     -0.73817748575201
