12
Coordinates from ORCA-job run
  C   0.70641001331974      0.04606379399974      0.33191263490774
  C   -0.61978542573393     -0.54362252450797     -0.13726260812366
  F   0.60075928133446      0.38190594175614      1.66084459476111
  H   -0.58049747615317     -0.82249281120466     -1.19198233164146
  H   -0.86268818465831     -1.41876991897387      0.46549984775537
  C   1.73029811117690     -1.00740111122225      0.19037870818527
  N   2.51426252087479     -1.87433396300063      0.07390635108664
  C   1.12853902340692      1.21804653595497     -0.45298487742869
  N   1.52214421002233      2.10159177043516     -1.11887359769107
  N   -1.76216370545282      0.41380753925278      0.02675927871656
  O   -2.87280902254641     -0.09782221634891     -0.03134642331290
  O   -1.50546934559051      1.60202696385946      0.18214842278511
