12
Coordinates from ORCA-job run
  C   0.83173677362548     -0.03617351669495      0.29940632063557
  C   -0.64015125242627     -0.18780309901028      0.68649487649595
  F   1.53887855457083     -0.28132903925964      1.46458690958816
  H   -0.89099171360781      0.53534100493701      1.46364655699212
  H   -0.81977206178924     -1.19813536968740      1.05631747303410
  C   1.24094437283518     -1.02892217068710     -0.70489789090623
  N   1.58064223915446     -1.86628864570348     -1.45511855355395
  C   1.14401880441190      1.32846203663648     -0.14995471670982
  N   1.40398313716051      2.43585753740800     -0.44232904239333
  N   -1.56598501639607      0.04385663563863     -0.46153972127757
  O   -1.06706455799731      0.32115155329086     -1.55011361372947
  O   -2.75723927954167     -0.06601692686816     -0.20649859817552
