12
Coordinates from ORCA-job run
  C   0.84277300963799     -0.04746183233977      0.26912732895436
  C   -0.61590733875353     -0.17741286947862      0.71173117203379
  F   1.58964689547309     -0.30422508942542      1.40656507788733
  H   -0.79520268699040     -1.18448448118633      1.09042630206796
  H   -0.82702215305081      0.55094062126939      1.49577510279398
  C   1.19947105443311     -1.04503341145876     -0.75004993932995
  N   1.49608285642928     -1.88866181780891     -1.51144483648710
  C   1.15798076693919      1.31228574382371     -0.19241578455013
  N   1.41649721778614      2.41295508267795     -0.51023684660516
  N   -1.58119714199899      0.06557811383070     -0.40087775797405
  O   -1.11981777461314      0.33454293284880     -1.50794689342870
  O   -2.76330470529192     -0.02802299275270     -0.10065292536233
