12
Coordinates from ORCA-job run
  C   0.80771084756539     -0.01830306244268      0.35900755372606
  C   -0.66231035806577     -0.37770031727756      0.58068711427970
  F   1.45520345002105     -0.41513707622346      1.51697465026865
  H   -0.75745007267963     -1.45304712303455      0.73716791973851
  H   -1.04161715264852      0.15304975386574      1.45481828198750
  C   1.39202212641603     -0.75586192985394     -0.77075881279520
  N   1.88642263506459     -1.38141634867600     -1.63306536506675
  C   0.99947640350374      1.43042492841734      0.19732088233699
  N   1.15106520730872      2.59380697959425      0.14320506283416
  N   -1.52728665729616     -0.01225423267958     -0.57998958599715
  O   -0.98568531734060      0.50386619381036     -1.55522430596438
  O   -2.71655111184886     -0.26742776549992     -0.45014339534808
