12
Coordinates from ORCA-job run
  C   0.73948601464498     -0.02319656521620      0.23800099689641
  C   -0.69530993292644      0.46414101901092      0.06035049801005
  F   0.83291225575304     -0.70163019916962      1.43013537761354
  H   -0.96043807951975      1.12754915336749      0.88323491863204
  H   -0.82309294613286      0.98399821718232     -0.89118169387046
  C   1.20488725950569     -0.87910374853986     -0.86602658671784
  N   1.62961351196397     -1.49640326973505     -1.77024811800037
  C   1.60594951287738      1.16986134730639      0.30087006483489
  N   2.26416120372757      2.14182765807861      0.34398091855644
  N   -1.68344051868594     -0.66272352651775      0.08961937310074
  O   -1.28066667319314     -1.79005220339700     -0.17237132716587
  O   -2.83306160801449     -0.33526788237028      0.35463557811039
