12
Coordinates from ORCA-job run
  C   0.83405432678987     -0.07591239858121      0.28576643568921
  C   -0.63683075051859     -0.18910594523328      0.68898374324241
  F   1.54762267254852     -0.38654271306596      1.43134121305760
  H   -0.84763886279523     -1.20478310773360      1.02610169948491
  H   -0.85083364977884      0.51416704239413      1.49481315037720
  C   1.19442713258385     -1.04634747904859     -0.75827389319228
  N   1.49162079615887     -1.86936969449889     -1.54161332150221
  C   1.18878021131410      1.29176679186602     -0.12087720465404
  N   1.48374559852681      2.39801330044609     -0.38278015819771
  N   -1.56949273908192      0.11599875492861     -0.43599069872530
  O   -1.07623046825371      0.41077804549134     -1.52256195825547
  O   -2.76022426749373      0.04233740303535     -0.16590900732432
