12
Coordinates from ORCA-job run
  C   0.74738720756877      0.07813972752758      0.19373985526861
  C   -0.65414833649622     -0.51585166837566      0.09149136891332
  F   0.85450037974229      0.75660400056191      1.38480688941240
  H   -0.82040622542172     -1.20662745375070      0.91762018217820
  H   -0.79787299560192     -1.03286211120555     -0.85940893454998
  C   1.70328134170726     -1.04625371416153      0.19936255832220
  N   2.43210842589922     -1.96742252562305      0.20626972787030
  C   1.08601246678668      0.97198189737260     -0.92630525412072
  N   1.41439410758354      1.62255738395776     -1.84710631355813
  N   -1.72031114189566      0.53283500127634      0.19424865123037
  O   -1.42425754041763      1.68544481088830     -0.09830246013275
  O   -2.81968768945461      0.12145465153200      0.54258372916617
