12
Coordinates from ORCA-job run
  C   0.74561748079312     -0.00931116563400     -0.18939281379052
  C   -0.63782449390707     -0.49897503421912      0.22985320461606
  F   0.85715778690853     -0.12720792090664     -1.55524489616068
  H   -0.80022569948899     -0.35619662833457      1.30015238188579
  H   -0.74990945780095     -1.55095508865441     -0.02957393407435
  C   1.02646790123901      1.37781251396247      0.21707679209740
  N   1.31493894619563      2.45117358543333      0.59620464009780
  C   1.74050901388964     -0.89359877993307      0.44726497368668
  N   2.50209022071065     -1.62857183658944      0.95674768288161
  N   -1.72719876701096      0.23544715336441     -0.49064120683619
  O   -1.50762897976546      1.39316444705570     -0.82717633696881
  O   -2.76499395176314     -0.39378124554467     -0.65427048743481
