12
Coordinates from ORCA-job run
  C   0.83050049601956     -0.03773810424302      0.29246689935309
  C   -0.61508213345326     -0.32686442109079      0.71184679283346
  F   1.61273045872912     -0.35734988848710      1.38434631331977
  H   -0.71595101334063     -1.38954105079863      0.92795310211220
  H   -0.85976426067621      0.29120994122782      1.57413362099257
  C   1.25133388345252     -0.86731725888794     -0.84710255003027
  N   1.60674491003245     -1.54857879319030     -1.73560500077926
  C   1.02249873660071      1.38576461048959     -0.02778256893736
  N   1.17800962245145      2.52708458416938     -0.25839622558870
  N   -1.54929008638199      0.01986272243840     -0.39592957066839
  O   -1.72418508669079     -0.84307051675054     -1.25311890821813
  O   -2.03854552674297      1.14653817512315     -0.37281190438896
