12
Coordinates from ORCA-job run
  C   0.79937053348814     -0.06342444138184      0.36632635313658
  C   -0.68718810803539     -0.29571932650338      0.65872220376760
  F   1.47205899115977     -0.41813896175778      1.51866261759912
  H   -0.98672179848320      0.34300419955946      1.48821330528550
  H   -0.84299364806719     -1.35104161727954      0.87735346028662
  C   1.27642805849016     -0.90938333697980     -0.73879036360557
  N   1.66786158832099     -1.60291265330020     -1.60236372926182
  C   1.08143623477894      1.34990253589062      0.07000974794426
  N   1.31775622677104      2.47987059193359     -0.14744125656047
  N   -1.50610303001894      0.06464919662676     -0.53268963223799
  O   -1.88872633696252      1.23006625473517     -0.60392964444178
  O   -1.70217871144182     -0.82787244154305     -1.35407306191204
