12
Coordinates from ORCA-job run
  C   0.75137214146603      0.12353683853558      0.14890267378538
  C   -0.62856361325999     -0.52691066840676      0.17520527655734
  F   0.88292733289101      0.92580779732103      1.25779836648708
  H   -0.72932943028936     -1.13534296611346      1.07347204259141
  H   -0.79432649527389     -1.14231026857701     -0.71134310924264
  C   1.75071948223501     -0.95991819196340      0.22320273130397
  N   2.51536778943916     -1.85015762591972      0.27340012158165
  C   1.00483695374474      0.90796765473964     -1.07113433972272
  N   1.26453321433210      1.47675079680555     -2.06511382524477
  N   -1.72965287010903      0.48901733867097      0.22486481966461
  O   -2.79241338185796      0.07980209486666      0.67478833459214
  O   -1.49547112331779      1.61275720004093     -0.20404309235345
