12
Coordinates from ORCA-job run
  C   0.80472939227924     -0.02176719406078      0.36030005185081
  C   -0.66532516153371     -0.32917697580468      0.66643860387265
  F   1.50525166872535     -0.34256770753273      1.50586191059726
  H   -0.99080724352346      0.29603744114373      1.49645617668915
  H   -0.76421773109566     -1.39044264947861      0.88923896689899
  C   1.31249361711401     -0.84232831852678     -0.75045999331029
  N   1.72922967167467     -1.50872244674118     -1.62346193737078
  C   1.01322088278611      1.40379156113195      0.06175826738689
  N   1.19063426396336      2.54384323572749     -0.15888414068297
  N   -1.51176830975757     -0.01596203202515     -0.51939576405373
  O   -1.67941720216593     -0.92427040766822     -1.32965938285289
  O   -1.94402384846640      1.13156549383498     -0.59719275902507
