12
Coordinates from ORCA-job run
  C   0.82625349898345     -0.03319798549199      0.30835181001973
  C   -0.62663659667659     -0.31623309985383      0.70591445367082
  F   1.59088553221255     -0.35932012897999      1.41068180628721
  H   -0.72951506630628     -1.37512999329848      0.93777641098916
  H   -0.88925164063715      0.31562896259848      1.55293297352877
  C   1.25293904781100     -0.86735892249639     -0.82597424287593
  N   1.60595029513676     -1.55140934981697     -1.71337569966583
  C   1.03556939938799      1.38804826478757     -0.00937802164964
  N   1.20873865340919      2.52598184940043     -0.24367912945310
  N   -1.54085540008976      0.00891378315826     -0.42519610010242
  O   -1.96444380550227      1.16117614463870     -0.47474293269048
  O   -1.76863391772887     -0.89609952464580     -1.22431132805829
