12
Coordinates from ORCA-job run
  C   0.75735417130636      0.11071127315527      0.12884040336986
  C   -0.63453228322327     -0.50983016143129      0.20055836016590
  F   0.93403364258025      0.92959244550410      1.21914484170094
  H   -0.83249476070244     -1.14092327521120     -0.66816486167699
  H   -0.72755932143240     -1.09718145007156      1.11365385851109
  C   1.73636919205119     -0.99122875750095      0.19880037035807
  N   2.48503153080335     -1.89414627196854      0.26208641722321
  C   0.99486068108077      0.86719306086911     -1.11206519415346
  N   1.24134020338332      1.40605816312832     -2.12592490204446
  N   -1.71374616580910      0.52926481069977      0.25268531339285
  O   -2.77825208266463      0.14701038366337      0.72160352728465
  O   -1.46240480737343      1.64347977916361     -0.19121813413170
