12
Coordinates from ORCA-job run
  C   0.73745246997021     -0.00144862706422     -0.24206218680868
  C   -0.60657987381520     -0.51294848024824      0.26750890774643
  F   0.78360947096992     -0.16181992339120     -1.60679733685766
  H   -0.70228560371862     -0.37107599929200      1.34585656484317
  H   -0.71320712003168     -1.56923039788458      0.02200052031176
  C   0.99725255700675      1.40509375333875      0.10792356390783
  N   1.26696560275987      2.49792961882916      0.44253504511792
  C   1.78818292261645     -0.83720895478040      0.37063366135951
  N   2.59429952643097     -1.52788474416894      0.87351244538105
  N   -1.76082517232161      0.19152402888744     -0.37943067347962
  O   -1.56509450491789      1.30614660471396     -0.84957563067070
  O   -2.82177027494922     -0.41907687893969     -0.35110488085100
