12
Coordinates from ORCA-job run
  C   0.81510436234872     -0.07345755496610      0.32874851914993
  C   -0.65605769159856     -0.32879400196245      0.67553398374510
  F   1.53968573997690     -0.47358169944559      1.43353238166299
  H   -0.79539798195533     -1.39357987168856      0.85602781174033
  H   -0.92263316478248      0.27221315746507      1.54356036245833
  C   1.24637543012368     -0.86692698096299     -0.83287324173523
  N   1.60158085916348     -1.51394759761337     -1.74665384681243
  C   1.07692282177424      1.35319774669254      0.08193004334192
  N   1.29687992369679      2.49326780842412     -0.09633888404002
  N   -1.52806152462489      0.07522428154488     -0.46287910505868
  O   -1.91400536694353      1.24170640508241     -0.47130135119176
  O   -1.76139340717902     -0.78532169256999     -1.30828667326048
