12
Coordinates from ORCA-job run
  C   0.81390301893003     -0.06147311904125      0.33321979530181
  C   -0.65681671975820     -0.31907196457293      0.67923778052084
  F   1.53605056730738     -0.43015968407013      1.45069419230077
  H   -0.93102279536993      0.29857573432903      1.53304116808055
  H   -0.79078705944125     -1.38065929161148      0.88148716756730
  C   1.25827191566555     -0.87766844214867     -0.80739967083858
  N   1.62787543535133     -1.53992245329956     -1.70445274966211
  C   1.06560642391840      1.36134522340328      0.05527777392066
  N   1.27557061717683      2.49961927214719     -0.14511595786538
  N   -1.52671759660163      0.05512341912100     -0.47129501302204
  O   -1.73687156278976     -0.82038383037740     -1.30741200839267
  O   -1.93506224438879      1.21367513612093     -0.49728247791111
