12
Coordinates from ORCA-job run
  C   0.69865517918529      0.80789618190572      0.28595578279342
  C   -0.61437786179219      0.01997612681180      0.39720807253306
  Cl  1.75498721485767      0.39081636111360      1.65373180980817
  H   -1.07871317013399      0.23393351095110      1.36175935616176
  H   0.44664108939322      1.86688696749461      0.38831893320651
  C   1.38634846330486      0.61593461878096     -0.98605022388561
  N   1.95701437650089      0.53135468864379     -2.00926510138163
  N   -0.33815661895516     -1.46960737922107      0.39597741272014
  O   -0.60318390804578     -2.06538342529193      1.43256422932901
  O   0.13537926446844     -1.93009430391910     -0.63443878155656
  C   -1.50997892569441      0.34780090120233     -0.70410284887711
  N   -2.23161510308884      0.64948575152822     -1.58065864085116
