12
Coordinates from ORCA-job run
  C   0.61683695792829      0.82043443902117      0.41329901725574
  C   -0.67978143281823      0.01041621009424      0.27128056681270
  Cl  1.39445342162203      0.42410023845854      1.96245200268253
  H   -1.32499935177747      0.21565740554959      1.12749044547896
  H   0.33253952280910      1.87542828722608      0.45928798717682
  C   1.54092353662795      0.63662958040056     -0.70054701106645
  N   2.29836346357500      0.55682803102525     -1.59473678202831
  N   -0.38418906974287     -1.47432566484835      0.32689352845200
  O   -0.82774608479703     -2.07388715380100      1.29822139199922
  O   0.27881938585722     -1.92813597506481     -0.59659150944996
  C   -1.35116972842847      0.32360431401300     -0.98319047379292
  N   -1.89405062085552      0.61325028792573     -1.98385916352032
