12
Coordinates from ORCA-job run
  C   0.59995751962249      0.86746637522573     -0.07862634350643
  C   -0.46144981797940     -0.13195064728209      0.40440382858081
  Cl  0.54832674002988      2.31156351355472      0.95423638916509
  H   -0.25975944726162     -0.44364674891939      1.43077435247377
  H   0.36470378926635      1.17266521090406     -1.09962193482582
  C   1.92074222692386      0.24848361939809     -0.04107254652931
  N   2.97339221271651     -0.27221871480245     -0.01661098454509
  N   -0.35508131185013     -1.37603992991810     -0.45738224547053
  O   -0.19675805446829     -2.43792950567560      0.12943007015459
  O   -0.42989256020597     -1.19010820802631     -1.66646140803938
  C   -1.80768138571942      0.41012986278783      0.27251950268456
  N   -2.89449991107427      0.84258517275351      0.16741131985775
