12
Coordinates from ORCA-job run
  C   0.60344256071582      0.86336072556446     -0.08556351434777
  C   -0.47006419018077     -0.12350085574534      0.39693433140781
  Cl  0.53474364562947      2.32897656867425      0.91591989417046
  H   -0.28929274164533     -0.41500200248417      1.43313168667611
  H   0.38919884478517      1.14803238925108     -1.11695663805720
  C   1.92118389293501      0.24216539252300     -0.00576924695255
  N   2.97079566675841     -0.28119123159002      0.06031704008583
  N   -0.35071431595652     -1.38449197897135     -0.43802870597006
  O   -0.20365533350772     -2.43472710811290      0.17214459491434
  O   -0.40308919173258     -1.22224420868018     -1.65166769140088
  C   -1.81160379843311      0.42011753017264      0.22856990412131
  N   -2.89294503936784      0.85750477939853      0.09196834535259
