13
Coordinates from ORCA-job run
  C   -0.55627445672519      0.37902707930527     -0.07463099758692
  C   0.84868608458317     -0.16984522831341      0.12424763064656
  Br  -0.53490330313737      1.80495759933271     -1.41129883827430
  H   1.24055367856724     -0.47857895907304     -0.84887275476669
  H   -0.89156737676141      0.86841560342861      0.84385376927383
  H   0.74777848643731     -1.08112187155589      0.73717865790164
  C   -1.54321218847626     -0.69412781083839     -0.49768330825220
  H   -1.60288930077041     -1.46828872085692      0.27386728480257
  H   -1.22637648120559     -1.15984448929651     -1.43348021950347
  H   -2.53995109396600     -0.27768901895019     -0.64559281109609
  N   1.74467954363354      0.82403995577366      0.69699168893177
  H   1.60467836586881      0.88812230158912      1.69715148316287
  H   2.70879804195214      0.56493355945498      0.53826841476043
