13
Coordinates from ORCA-job run
  C   -0.70713938153683      0.36672717851108      0.22988248102098
  C   0.80314951289764      0.57845729251326      0.22359468756440
  Br  -1.57153280577747      2.10459252861208     -0.04606774287110
  H   1.10266652094178      0.88289831668863     -0.78343673528269
  H   -1.03077768075740      0.05556760197685      1.22661643534170
  H   1.05743591438228      1.40266276182681      0.90198979714503
  C   -1.17814593752849     -0.61908798241383     -0.81891675931180
  H   -2.25675347430236     -0.77234050651966     -0.76228437877074
  H   -0.93462063437338     -0.25450976001598     -1.81968892188963
  H   -0.66674193411698     -1.56915803180774     -0.65669355870094
  N   1.46043552523500     -0.68659910617223      0.55265932221230
  H   1.51518110269926     -0.79705932303335      1.55736890044864
  H   2.40684327223694     -0.69315097016593      0.19597647309385
