13
Coordinates from ORCA-job run
  C   -0.57440268533267      0.32244661613513      0.02763600835688
  C   0.82794090486106     -0.22260959329428      0.22233835822306
  Br  -0.49938250232754      1.88661742168873     -1.16320515356114
  H   1.22432364151802     -0.52733180426536     -0.75859615066253
  H   -0.93195778133989      0.72142201766006      0.97818001076620
  H   0.73046884013243     -1.12761482775639      0.83344711753738
  C   -1.53378655059346     -0.69741126980301     -0.55365072770983
  H   -1.61763142691138     -1.54771768270646      0.13058828144974
  H   -2.52755342887527     -0.27107257673362     -0.69455291843875
  H   -1.17659777508003     -1.06131344114355     -1.51925473705594
  N   1.66545927286382      0.72049229276446      0.95214980474742
  H   2.54973891596174      0.28512233009576      1.18293708398081
  H   1.86538057512319      1.51897051735855      0.36198302236671
