17

C	0.0	0.0	0.0
C	-0.588628	0.029837	-1.408728
Cl	1.794999	0.0	0.0
H	-1.696942	0.022177	-1.217599
N	-0.447429	1.229134	0.611355
H	-1.466059	1.104379	0.716795
H	-0.014596	1.31996	1.523989
N	-0.45646	-1.245485	0.561743
H	-1.488408	-1.157473	0.535594
H	-0.174533	-1.265143	1.537251
N	-0.215427	-1.155421	-2.228729
O	0.819352	-1.070814	-2.89209
O	-0.963773	-2.125398	-2.190136
N	-0.269426	1.214728	-2.256227
O	-1.002897	1.323656	-3.241914
O	0.653644	1.966387	-1.972582
H	-2.950107	0.0	0.0
