17

C	0.0	0.0	0.0
C	-0.560027	-0.047203	-1.433943
Cl	1.787724	0.0	0.0
H	-1.674404	-0.149463	-1.241484
N	-0.479774	1.260469	0.499996
H	-0.223893	1.282736	1.482704
H	-1.511575	1.159865	0.458032
N	-0.448716	-1.091423	0.822527
H	-0.166204	-1.968363	0.40198
H	-1.478142	-1.017265	0.785097
N	-0.051877	-1.147103	-2.285606
O	0.018716	-0.944127	-3.498998
O	0.202073	-2.224988	-1.744007
N	-0.337025	1.223697	-2.185492
O	0.820387	1.522042	-2.464723
O	-1.335718	1.878884	-2.471851
H	-2.92463	0.0	0.0
