17

C	0.0	0.0	0.0
C	-0.341394	0.055873	-1.521376
Cl	1.792835	0.0	0.0
H	0.422291	-0.487298	-2.070033
N	-0.427628	1.198571	0.669972
H	-1.448148	1.202925	0.622415
H	-0.150383	1.116202	1.64528
N	-0.392715	-1.276909	0.518529
H	-0.072584	-1.332747	1.479662
H	-1.412354	-1.331832	0.499351
N	-0.272016	1.477326	-2.022235
O	-1.16225	2.274317	-1.740702
O	0.726461	1.732584	-2.720848
N	-1.622731	-0.568841	-1.924424
O	-2.691636	0.073342	-1.63082
O	-1.5412	-1.810014	-2.070948
H	-3.197096	0.0	0.0
