17

C	0.0	0.0	0.0
C	-0.343956	-0.163895	-1.500428
Cl	1.793108	0.0	0.0
H	0.162218	0.625126	-2.045164
N	-0.437833	1.329775	0.347489
H	-0.271974	1.470504	1.340153
H	-1.449388	1.359249	0.184807
N	-0.460648	-1.11484	0.773185
H	-0.413807	-0.860467	1.755043
H	-1.440289	-1.252786	0.519085
N	-1.784669	-0.051672	-1.862176
O	-2.584942	-0.890064	-1.308719
O	-2.153493	1.127147	-2.107695
N	0.169402	-1.44716	-2.077336
O	-0.293515	-2.507814	-1.680575
O	1.014649	-1.330095	-2.97135
H	-3.157297	0.0	0.0
