17
Coordinates from ORCA-job run
  C   -0.53063734720213      0.49635988397364      0.18275327833418
  C   0.87666467516660      0.69662643878664     -0.38475229155225
  Br  -1.30272262675614      2.31138367686605      0.38873973254795
  H   1.43613226110221      1.33871579254532      0.30314085833398
  H   0.79192988604583      1.24950254605753     -1.32583040641701
  C   -1.44109204798855     -0.26649777281478     -0.76796025576913
  H   -1.09199355543424     -1.29844929673812     -0.86787304283290
  H   -1.45250035114406      0.19635663893979     -1.75716484280027
  H   -2.46414434955383     -0.29094146414379     -0.38800466973268
  C   -0.51838971936749     -0.13879063306913      1.56520395146789
  H   0.13080536021479      0.41551846382440      2.24650838736886
  H   -1.52373105239651     -0.16082280286203      1.98994410607594
  H   -0.15676036348800     -1.16900346750298      1.49692185312193
  C   1.65168437883058     -0.60031252305777     -0.62021349310281
  H   2.63969199214119     -0.36612868729901     -1.02385980619079
  H   1.80319891118811     -1.16168919635138      0.30378598552830
  H   1.15286394864165     -1.25182759715439     -1.34033934438121
