16

C	-0.434186	0.041804	-1.476324
C	0.0	0.0	0.0
Cl	0.083309	-1.49309	-2.243411
H	1.092191	0.0	0.0
C	-1.883883	0.16177	-1.646801
N	-3.031176	0.320704	-1.847677
C	0.286367	1.208117	-2.148381
H	1.359674	1.096068	-1.976582
H	-0.056377	2.153374	-1.719426
H	0.068741	1.202233	-3.216768
N	-0.531106	-1.237929	0.673064
O	-1.74972	-1.278182	0.850417
O	0.275547	-2.108812	0.972012
C	-0.515106	1.164104	0.7069
N	-0.913934	2.124307	1.254502
Cl	3.204372	0.0	0.0
