16

C	-0.548771	-0.062803	-1.437705
C	0.0	0.0	0.0
Cl	0.285628	1.268447	-2.315395
H	1.090937	0.0	0.0
C	-0.17009	-1.320544	-2.088455
N	0.064762	-2.309815	-2.677685
C	-2.05042	0.17781	-1.556731
H	-2.336492	0.140325	-2.608873
H	-2.287704	1.168786	-1.160645
H	-2.593685	-0.588067	-1.002441
N	-0.419311	-1.182788	0.834001
O	0.077439	-1.244852	1.948858
O	-1.208833	-1.994435	0.352108
C	-0.473395	1.194924	0.689063
N	-0.87022	2.161266	1.227783
Cl	3.116456	0.0	0.0
