16

C	-0.439226	0.011929	-1.470691
C	0.0	0.0	0.0
Cl	0.379913	-1.309143	-2.36346
H	1.109767	0.0	0.0
C	-1.885732	-0.154941	-1.624723
N	-3.046663	-0.216516	-1.795947
C	0.020395	1.331079	-2.094344
H	1.092822	1.4359	-1.917513
H	-0.514715	2.170628	-1.647134
H	-0.176084	1.309586	-3.166908
N	-0.443243	-1.208965	0.779231
O	-0.237145	-1.162305	1.984793
O	-0.941853	-2.148513	0.169508
C	-0.490404	1.177279	0.700894
N	-0.877369	2.155401	1.222252
Cl	3.12985	0.0	0.0
