16

C	-0.422557	0.025898	-1.482617
C	0.0	0.0	0.0
Cl	0.056273	-1.538744	-2.218783
H	1.109909	0.0	0.0
C	-1.867046	0.182823	-1.676176
N	-3.007668	0.354381	-1.904505
C	0.342088	1.151329	-2.175094
H	0.13331	1.131328	-3.245657
H	0.027313	2.114901	-1.767229
H	1.409663	1.007104	-1.990577
N	-0.54267	-1.221481	0.689237
O	0.262336	-2.052096	1.087257
O	-1.768561	-1.291521	0.77733
C	-0.512444	1.178752	0.683109
N	-0.917587	2.15197	1.202526
Cl	3.206465	0.0	0.0
