15

C	-0.465944	-0.029254	-1.454682
C	0.0	0.0	0.0
Cl	0.148625	1.530675	-2.228827
H	1.090813	0.0	0.0
C	0.258062	-1.101881	-2.147271
N	0.725172	-1.983935	-2.766461
N	-1.859745	-0.224156	-1.627599
H	-2.361795	0.467217	-1.0841
H	-2.120581	-0.17344	-2.601869
C	-0.518889	-1.132912	0.740167
N	-0.897887	-2.058515	1.35937
N	-0.48333	1.241118	0.687771
O	-1.656074	1.589962	0.512419
O	0.317469	1.828643	1.399042
F	2.451678	0.0	0.0
