15

C	-0.453891	-0.039493	-1.46072
C	0.0	0.0	0.0
Cl	0.155396	1.521427	-2.237234
H	1.091101	0.0	0.0
C	0.272681	-1.113819	-2.151118
N	0.734672	-1.995671	-2.77417
N	-1.845633	-0.239461	-1.642975
H	-2.35682	0.44716	-1.102098
H	-2.097828	-0.190563	-2.621885
C	-0.525762	-1.1246	0.745803
N	-0.910806	-2.040414	1.375275
N	-0.489239	1.248809	0.677574
O	-1.664382	1.587126	0.501297
O	0.307033	1.84724	1.386473
F	2.455912	0.0	0.0
