15

C	-0.39853	0.152748	-1.457523
C	0.0	0.0	0.0
Cl	-2.220559	0.666834	-1.560161
H	1.092963	0.0	0.0
C	0.327246	1.223039	-2.149226
N	0.860787	2.01274	-2.835307
N	-0.173673	-1.058681	-2.143149
H	-0.677038	-1.829201	-1.722032
H	-0.395328	-0.977079	-3.125908
C	-0.53008	-1.219719	0.5579
N	-0.935074	-2.26817	0.906626
N	-0.367404	1.161262	0.826545
O	-0.652732	0.959022	2.006688
O	-0.278653	2.267209	0.298313
F	2.407331	0.0	0.0
