15

C	-0.15141	-0.049643	-1.519838
C	0.0	0.0	0.0
Cl	-1.84657	-0.397411	-2.067241
H	1.092982	0.0	0.0
C	0.23213	1.21777	-2.173722
N	0.602234	2.096523	-2.861283
N	0.721398	-1.128466	-1.908844
H	0.842928	-1.124391	-2.913956
H	1.621965	-0.934413	-1.438591
C	-0.496456	-1.197562	0.64218
N	-0.895608	-2.158753	1.188505
N	-0.532901	1.200171	0.675673
O	-0.931031	2.137363	-0.01543
O	-0.498831	1.190147	1.904209
F	2.495858	0.0	0.0
