15

C	-0.175874	0.06822	-1.538832
C	0.0	0.0	0.0
Cl	-0.222334	-1.731323	-2.143802
H	1.097902	0.0	0.0
C	-1.479604	0.579315	-1.97707
N	-2.525758	0.986844	-2.323703
N	0.906047	0.772274	-2.056534
H	1.767719	0.544195	-1.525524
H	0.99042	0.709833	-3.060229
C	-0.602304	-1.132974	0.662653
N	-1.069685	-2.061471	1.211536
N	-0.444852	1.259551	0.669781
O	-0.436143	2.297093	0.01383
O	-0.734736	1.177249	1.862309
F	2.526512	0.0	0.0
