15

C	-0.12349	0.041578	-1.545849
C	0.0	0.0	0.0
Cl	0.086634	-1.740661	-2.113272
H	1.091523	0.0	0.0
C	-1.452834	0.403591	-2.048035
N	-2.525799	0.674193	-2.444927
N	0.888883	0.894524	-1.989611
H	1.015627	0.875472	-2.991153
H	1.757703	0.690309	-1.45034
C	-0.680035	-1.089891	0.654672
N	-1.192568	-1.980825	1.224702
N	-0.499286	1.30708	0.54501
O	-1.684282	1.362377	0.88658
O	0.301438	2.233255	0.602617
F	2.551234	0.0	0.0
