16

C	-0.340072	0.086487	-1.48376
C	0.0	0.0	0.0
Cl	-2.100881	0.367608	-1.750258
H	1.094182	0.0	0.0
N	0.405108	1.104524	-2.141495
H	0.195426	1.949694	-1.615812
H	1.389867	0.889345	-1.946557
N	0.006606	-1.25775	-2.131774
O	1.039885	-1.304396	-2.788332
O	-0.740505	-2.202007	-1.894426
C	-0.547102	-1.134625	0.722611
N	-0.964563	-1.994637	1.409181
N	-0.304555	1.286007	0.619711
H	-1.166347	1.24937	1.148705
H	0.468906	1.503302	1.24315
H	2.619217	0.0	0.0
