16

C	-0.25905	-0.014339	-1.50061
C	0.0	0.0	0.0
Cl	-0.034196	1.669604	-2.174619
H	1.096977	0.0	0.0
N	0.569893	-0.987725	-2.063251
H	0.547546	-0.977697	-3.07255
H	1.522166	-0.855448	-1.692916
N	-1.715886	-0.321957	-1.870675
O	-1.927757	-0.746415	-3.002614
O	-2.569709	-0.105129	-1.015606
C	-0.419922	-1.278241	0.571008
N	-0.762014	-2.265239	1.112094
N	-0.467926	1.152944	0.727145
H	-1.336826	0.961466	1.206892
H	0.252111	1.411005	1.393662
H	2.672532	0.0	0.0
