16

C	-0.546466	0.06672	-1.424234
C	0.0	0.0	0.0
Cl	0.230876	-1.249313	-2.414375
H	1.093306	0.0	0.0
N	-1.961947	0.046615	-1.468674
H	-2.28445	0.071079	-2.428191
H	-2.300741	-0.788667	-1.00638
N	-0.135659	1.354356	-2.135072
O	-0.731737	1.589266	-3.186957
O	0.741234	2.045269	-1.639984
C	-0.483294	-1.259842	0.568307
N	-0.906351	-2.265372	1.008529
N	-0.407775	1.109428	0.84477
H	-1.281155	1.511391	0.5279
H	0.333777	1.798752	0.797371
H	2.663447	0.0	0.0
