16

C	-0.163518	-0.057426	-1.528846
C	0.0	0.0	0.0
Cl	0.027739	1.670807	-2.209173
H	1.106459	0.0	0.0
N	0.739391	-0.976029	-2.020329
H	1.66087	-0.812447	-1.57532
H	0.774919	-1.021549	-3.02833
N	-1.579317	-0.390411	-2.005102
O	-1.694856	-0.990067	-3.068177
O	-2.504082	-0.001777	-1.297032
C	-0.477221	-1.263155	0.552015
N	-0.861154	-2.275023	1.010338
N	-0.490972	1.122965	0.751464
H	-1.393801	1.421084	0.407017
H	0.176329	1.87781	0.65771
H	2.673471	0.0	0.0
