16

C	-0.582245	-0.155349	-1.394802
C	0.0	0.0	0.0
Cl	-0.034871	-1.675357	-2.132436
H	1.108888	0.0	0.0
N	-1.995101	-0.087731	-1.396293
H	-2.244108	0.741302	-0.862179
H	-2.337144	-0.017565	-2.347994
N	-0.01038	0.968038	-2.313276
O	-0.484228	1.003237	-3.44936
O	0.803722	1.755479	-1.855768
C	-0.448089	-1.113954	0.819652
N	-0.773512	-1.98066	1.545007
N	-0.475177	1.282897	0.557315
H	0.351702	1.873487	0.602628
H	-0.800793	1.141007	1.504949
H	2.652049	0.0	0.0
