16

C	-0.624759	0.014714	-1.383709
C	0.0	0.0	0.0
Cl	-0.050554	-1.361887	-2.354222
H	1.106819	0.0	0.0
N	-2.038906	0.019187	-1.33189
H	-2.296565	0.766041	-0.692196
H	-2.41571	0.206591	-2.254391
N	-0.120047	1.274583	-2.149432
O	0.837589	1.89239	-1.710217
O	-0.758392	1.559742	-3.163523
C	-0.44765	-1.190139	0.705604
N	-0.778971	-2.116156	1.350532
N	-0.441456	1.225842	0.70093
H	0.407509	1.779742	0.814258
H	-0.764847	0.985495	1.630533
H	2.651277	0.0	0.0
