16

C	-0.617791	-0.173742	-1.375675
C	0.0	0.0	0.0
Cl	0.201067	-1.587575	-2.20437
H	1.094147	0.0	0.0
N	-2.025622	-0.284698	-1.34795
H	-2.390506	-0.330809	-2.290661
H	-2.287499	-1.111853	-0.825555
N	-0.281262	1.013955	-2.270608
O	-1.048564	1.198511	-3.217992
O	0.732744	1.647541	-2.03129
C	-0.437953	-1.124238	0.823019
N	-0.824706	-2.002443	1.505039
N	-0.384881	1.293185	0.547465
H	0.440049	1.667927	1.010593
H	-1.151512	1.222286	1.202401
H	2.63976	0.0	0.0
