19

C 3.192613 2.945493 0.284643
C 1.775321 2.551565 -0.159942
C 1.600222 1.053949 -0.327716
C 0.725774 0.526348 0.539005
C 0.316494 -0.905488 0.679809
O -1.09614 -1.068741 0.612968
C 0.106683 1.623452 1.349514
O -0.618009 2.577591 0.536392
C 0.72739 2.881426 0.902888
H 3.449028 2.462125 1.233149
H 3.935025 2.641726 -0.460025
H 3.269624 4.030354 0.418578
H 1.536251 3.074208 -1.096209
H 2.134793 0.493173 -1.088764
H 0.834715 -1.520302 -0.07266
H 0.596187 -1.294897 1.667101
H -1.402536 -0.621727 -0.186577
H -0.305643 1.452937 2.338954
H 0.855687 3.74979 1.545631
