19

C 0.152703 0.160753 -0.303599
C 1.440845 -0.234529 0.384858
C 1.262415 -1.042871 1.676925
C 2.651864 -1.384663 2.287281
C 3.775487 -0.825197 1.429547
C 3.545029 0.494 0.716276
O 2.207202 0.937277 0.689896
C 3.576424 -0.77821 -0.074407
O 2.255658 -0.99807 -0.513889
H -0.454993 0.777003 0.364406
H 0.382678 0.729856 -1.206832
H -0.415385 -0.732431 -0.576176
H 0.661081 -0.453513 2.375677
H 0.702217 -1.953209 1.443203
H 2.731512 -0.977611 3.300523
H 2.770133 -2.469761 2.376944
H 4.789239 -1.01358 1.772419
H 4.264123 1.301957 0.676079
H 4.32339 -1.0735 -0.79943
