19

C 1.086192 -0.551688 -0.855968
C 0.874143 -0.115886 0.58795
C 1.961904 -0.74456 1.620413
O 2.552259 -1.965557 1.291137
C 2.820126 0.569751 1.424302
C 2.766635 2.029549 1.990361
C 1.330398 1.810057 2.456152
C 1.515988 1.210822 1.029904
O 2.219023 2.48145 0.644667
H 0.917121 -1.629466 -0.9532
H 0.388755 -0.035896 -1.521598
H 2.099164 -0.326283 -1.206873
H -0.173577 -0.245721 0.878649
H 1.531217 -0.880025 2.61221
H 3.015761 -1.868475 0.449492
H 3.525783 0.458696 0.596183
H 3.554806 2.6678 2.396323
H 1.150975 1.12884 3.290705
H 0.712897 2.707233 2.497411
