19

C -1.799875 1.20871 -2.255315
C -1.270157 1.950651 -1.062274
C -1.269222 3.468981 -0.937157
C -1.93819 2.632594 0.106235
O -0.964523 2.147329 1.04156
C -0.304337 1.4071 -0.008147
C 1.228138 1.460252 -0.115879
O 1.311414 0.019279 -0.078291
C -0.09571 -0.10122 0.217666
H -2.148967 0.20611 -1.986362
H -2.642475 1.747968 -2.699954
H -1.03034 1.100715 -3.029636
H -0.365738 4.015319 -0.679291
H -1.927187 3.971755 -1.640764
H -2.96685 2.708404 0.437744
H 1.644985 1.877346 -1.040682
H 1.709142 1.92793 0.752734
H -0.60206 -0.792148 -0.466005
H -0.282378 -0.401277 1.256488
