19

C -1.847663 0.236649 -0.959709
C -0.943414 1.070296 0.009977
C 0.187838 0.332654 0.713034
O 1.012847 -0.370846 -0.200933
C 1.668103 0.47963 -1.121462
C 0.71167 1.325665 -1.946145
O -0.175886 0.540176 -2.782141
C -1.347531 1.092178 -2.146506
C -0.481687 1.949752 -1.190381
H -1.593963 -0.821736 -1.05017
H -2.917107 0.343676 -0.756263
H -1.523743 1.634379 0.745758
H 0.797098 1.046964 1.295949
H -0.203028 -0.423164 1.402574
H 2.36593 1.154502 -0.592067
H 2.249296 -0.174549 -1.77889
H 1.285929 2.037544 -2.555285
H -2.071185 1.474009 -2.870789
H -0.524983 3.034643 -1.099571
