19

C 1.035566 -1.104957 -0.053672
C 0.711343 0.346094 -0.467786
C 1.961342 1.198247 -0.497514
O 2.559547 1.480269 -1.512722
C 2.489622 1.702378 0.872085
O 1.866634 1.444254 1.885741
C 3.742664 2.484712 0.848615
C 3.89123 3.590732 1.889903
C 4.676137 2.339435 2.046984
H 1.448005 -1.13576 0.957739
H 0.123781 -1.708322 -0.070719
H 1.757025 -1.555426 -0.742487
H 0.276016 0.368648 -1.470209
H 0.004496 0.773912 0.249053
H 4.17935 2.637223 -0.128557
H 4.394317 4.494435 1.567183
H 3.039147 3.735024 2.544335
H 5.739366 2.35185 1.837468
H 4.354472 1.637461 2.808179
