19

C -0.477985 1.850302 -1.390313
C -0.765365 1.240446 -0.003772
C -2.206717 0.787073 0.156921
C -2.552433 0.03159 1.412811
C -2.264665 -0.732891 0.146041
C -0.869704 -1.280846 0.001064
O -0.701522 -1.769808 -1.328545
C 0.053416 -0.047941 0.162031
O 1.25093 -0.118873 0.294476
H -0.753135 1.146546 -2.181716
H -1.052817 2.771114 -1.527402
H 0.585795 2.084002 -1.48578
H -0.455705 1.952373 0.770546
H -2.982735 1.366923 -0.330038
H -1.823788 0.003269 2.220185
H -3.58076 0.056903 1.754621
H -3.066298 -1.267344 -0.348764
H -0.616481 -2.053267 0.740995
H 0.228558 -2.017531 -1.423871
