19

C 0.065198 0.215999 0.10048
C 1.56385 -0.026824 -0.082084
O 1.797043 -0.677008 -1.323422
C 2.263041 -0.709135 1.097211
C 2.733819 0.402002 2.043291
C 2.331464 1.733939 1.414198
C 2.463754 1.242349 -0.043286
O 3.788969 0.693574 -0.063744
C 3.678279 -0.199622 1.028763
H -0.176546 0.663703 1.067103
H -0.314153 0.862069 -0.698111
H -0.472184 -0.738256 0.041888
H 1.338924 -1.526134 -1.304641
H 1.997634 -1.701414 1.439565
H 2.846392 0.253924 3.109272
H 1.328578 2.07614 1.674855
H 3.050262 2.529551 1.630412
H 2.341834 1.953433 -0.857685
H 4.571724 -0.765979 1.248246
