19

C 0.325493 0.992408 1.001108
C 1.683459 0.514728 0.511464
C 2.104847 -0.845666 1.085263
C 3.619314 -1.02031 0.981193
O 4.112859 -0.560865 -0.273385
C 3.522934 0.638111 -0.67255
C 2.818863 1.588037 0.347604
O 2.097549 2.17051 -0.795642
C 2.004382 0.712422 -1.001985
H 0.338042 1.140582 2.087293
H 0.050794 1.932957 0.521061
H -0.445749 0.245345 0.778997
H 1.80449 -0.926643 2.13683
H 1.58081 -1.641491 0.541187
H 4.110565 -0.451624 1.786182
H 3.924851 -2.06586 1.070422
H 4.166876 1.135754 -1.398296
H 3.236912 2.283447 1.077582
H 1.453708 0.355086 -1.873828
