19

C 3.745885 1.338466 -0.355546
C 3.276593 0.326977 -1.383949
O 4.048385 -0.258456 -2.112859
C 1.781122 0.08599 -1.453031
C 1.208754 -1.259944 -2.004684
C -0.065769 -0.937823 -1.159182
C 1.008804 -0.397552 -0.188899
O 1.737374 -1.570279 0.204431
C 1.888295 -2.264794 -1.065715
H 3.59844 0.916233 0.646041
H 4.804408 1.556957 -0.504331
H 3.156848 2.260592 -0.408863
H 1.292707 0.953962 -1.909401
H 1.17678 -1.492186 -3.067176
H -0.690216 -0.158692 -1.599054
H -0.668883 -1.776998 -0.80419
H 0.804196 0.22221 0.682706
H 2.947713 -2.422979 -1.276728
H 1.368236 -3.228136 -1.023081
