19

O -0.509453 -1.563522 1.959783
C -0.077252 -0.394381 1.282793
C -0.426503 0.888876 2.052284
C 0.011389 2.12508 1.315471
C -0.8018 2.77166 0.195837
C -0.445523 3.617019 1.363713
C 0.998093 4.115807 1.205417
C 1.42224 2.624195 1.239356
O 2.48199 2.078308 1.399287
H 0.017023 -1.650945 2.763729
H 1.003135 -0.417178 1.081817
H -0.595932 -0.403115 0.318762
H -1.507426 0.913021 2.232822
H 0.066817 0.858263 3.033019
H -0.355397 2.963638 -0.776543
H -1.824582 2.410108 0.149463
H -1.180672 4.031668 2.040878
H 1.220742 4.691719 0.301919
H 1.402659 4.638958 2.076803
