19

C 2.589087 2.519692 0.683762
C 3.105847 1.136996 1.077203
O 4.525469 1.074752 0.992361
C 2.580426 0.015313 0.150928
C 1.118355 -0.02473 0.14161
C -0.082463 -0.083386 0.145433
C 3.136838 -1.342859 0.563695
C 4.387278 -1.860139 0.010806
O 3.120896 -2.362035 -0.432503
H 2.990587 3.280288 1.363554
H 2.906747 2.76544 -0.334892
H 1.497729 2.56003 0.734539
H 2.777195 0.907993 2.104428
H 4.88513 1.81294 1.498486
H 2.944253 0.225464 -0.863411
H -1.143195 -0.136894 0.145874
H 2.823375 -1.675743 1.553998
H 4.934375 -1.260522 -0.71313
H 4.98887 -2.556241 0.592701
