19

O 1.491212 0.860536 -0.269071
C 0.202263 0.395404 0.102979
C -0.820662 1.249612 -0.633766
C -2.280959 0.843412 -0.332728
C -2.639292 1.040158 1.07232
C -2.950937 1.234073 2.217823
C -3.241166 1.625191 -1.220234
C -4.448737 1.017006 -1.782018
O -3.283249 1.229657 -2.588931
H 2.147901 0.348605 0.21652
H 0.067959 -0.664644 -0.171851
H 0.045 0.477644 1.189394
H -0.66886 2.300752 -0.363485
H -0.65686 1.157451 -1.712472
H -2.403786 -0.219429 -0.585479
H -3.22257 1.39928 3.230953
H -3.228905 2.70446 -1.060069
H -4.675953 -0.024447 -1.559845
H -5.30587 1.640088 -2.029851
