19

C 6.799401 -1.157234 -1.884921
O 5.86016 -1.139875 -0.824185
C 4.687065 -0.47065 -1.150067
C 4.627104 1.020999 -1.002327
C 3.926976 0.114114 0.014695
C 2.497464 0.041165 0.057138
C 1.292398 -0.02391 0.077589
C -0.168672 -0.051988 0.126562
O -0.766886 1.235813 0.034532
H 6.39751 -1.677727 -2.766725
H 7.091774 -0.139742 -2.179166
H 7.676978 -1.696192 -1.520995
H 4.102003 -0.929462 -1.94768
H 5.523449 1.521635 -0.654935
H 4.002857 1.590444 -1.680444
H 4.441116 0.016375 0.96678
H -0.568757 -0.62077 -0.720893
H -0.491561 -0.574045 1.042733
H -0.319217 1.80582 0.672189
