19

O 0.994411 0.2835 -0.539948
C 0.189857 -0.140348 0.250436
C -0.479834 0.721651 1.308848
C -1.107119 1.990171 0.721887
C -1.678753 2.850499 1.859194
C -2.423067 2.022616 2.896262
C -3.559061 1.090631 2.531003
C -2.220525 0.528103 2.930489
O -1.453981 -0.098124 1.933635
H -0.125419 -1.206345 0.268425
H 0.302629 1.011614 2.034093
H -0.349468 2.538879 0.155983
H -1.892361 1.691723 0.016974
H -0.84409 3.35539 2.36214
H -2.326233 3.638043 1.455659
H -2.510454 2.503011 3.866617
H -4.395195 1.001633 3.215773
H -3.820691 0.98878 1.483383
H -2.124886 0.026923 3.890225
