19

C 0.604039 -2.682922 -2.269925
C 0.828059 -1.421312 -1.485781
C 2.2002 -0.912924 -1.023458
C 1.790275 0.558732 -1.346222
C 0.425553 0.074863 -1.825576
C -0.300025 0.577047 -2.988733
O 0.078256 1.506392 -3.673679
C -0.239572 -0.743214 -0.714025
O -1.522447 -1.237971 -0.943436
H 0.876631 -3.551267 -1.65664
H -0.443186 -2.790867 -2.557803
H 1.224646 -2.702622 -3.171316
H 2.453324 -1.136822 0.018343
H 3.008417 -1.27161 -1.664301
H 1.772344 1.252999 -0.499398
H 2.373104 1.003824 -2.153658
H -1.242405 0.037757 -3.22632
H -0.048807 -0.421729 0.314326
H -2.158357 -0.529265 -0.782891
