19

C -3.596871 2.712295 -0.000287
C -2.124141 2.461831 0.000931
C -1.230963 1.96233 -1.151732
C -0.265006 1.355772 -0.085977
C 1.247622 1.613907 -0.007659
O 1.51943 0.200675 0.135097
C 0.136758 -0.130752 -0.094181
C -1.206483 1.884764 0.998996
O -1.286956 3.306824 0.810471
H -3.950576 2.906769 1.015926
H -3.840193 3.582656 -0.620937
H -4.136608 1.849053 -0.403899
H -1.704214 1.18909 -1.765118
H -0.822408 2.744747 -1.797816
H 1.693716 2.021928 -0.924667
H 1.597337 2.195385 0.853222
H -0.009257 -0.6412 -1.05707
H -0.277845 -0.756717 0.707233
H -1.375832 1.50159 2.000358
