19

C 1.694935 -1.74513 -2.332995
C 0.777169 -1.560127 -1.14884
O -0.644855 -1.649645 -1.511694
C -0.946015 -0.740709 -0.417296
C -1.056361 -1.534997 0.892101
C 0.115915 -2.484368 0.99454
C 1.020524 -2.494722 0.016711
C 0.448484 -0.125815 -0.60364
O 1.055689 0.401389 0.541584
H 1.60944 -2.762741 -2.729894
H 1.443526 -1.040249 -3.130873
H 2.738242 -1.586518 -2.034594
H -1.82697 -0.125822 -0.620725
H -1.06803 -0.844948 1.746168
H -2.005584 -2.086431 0.912861
H 0.189929 -3.132774 1.863147
H 1.900101 -3.131081 0.027114
H 0.442837 0.588689 -1.4375
H 1.910724 0.775818 0.299326
