19

C -0.228873 -1.095775 -1.215308
C 0.878717 -0.475765 -0.403974
C 2.020036 -0.041439 -1.333144
C 1.022875 0.878363 -2.093074
O 1.333077 2.242778 -1.839708
C 0.177151 3.031991 -1.701282
O -0.606291 2.669346 -0.594947
C -1.17256 1.370048 -0.763982
C -0.111489 0.396033 -1.178548
H -0.007807 -1.650452 -2.125965
H -1.054943 -1.5068 -0.640623
H 0.958194 -0.635072 0.664957
H 2.780585 0.569232 -0.844834
H 2.500648 -0.836828 -1.911594
H 0.896632 0.717981 -3.175183
H 0.516857 4.054837 -1.528501
H -0.431844 2.979982 -2.624829
H -1.633591 1.09906 0.190861
H -1.968253 1.41944 -1.528794
