19

C 1.249119 -0.345288 -1.319232
C 1.303165 0.229271 0.091453
C 2.340971 1.371021 0.351474
C 1.912288 2.371859 1.432092
O 2.340366 1.480436 2.490676
C 2.93366 0.562916 1.548907
C 2.031362 -0.604426 1.166302
C 2.386382 -2.026825 1.135986
O 1.431169 -1.507236 2.070047
H 0.60885 -1.233164 -1.356458
H 0.844358 0.389706 -2.023433
H 2.247433 -0.632634 -1.667485
H 0.29792 0.515665 0.419975
H 2.918844 1.719496 -0.503166
H 2.489983 3.304646 1.448814
H 0.842309 2.605502 1.493066
H 3.99104 0.375428 1.757189
H 1.976385 -2.670939 0.3595
H 3.329587 -2.357322 1.569384
