19

C 5.481648 -2.452432 -0.848614
C 4.530269 -1.290277 -1.026879
C 3.256791 -1.442202 -1.803144
O 2.885789 -0.38368 -2.640105
C 3.199857 -1.250732 -0.303374
C 2.673213 0.063471 0.248965
O 3.130712 0.329247 1.570539
C 1.204035 0.102603 0.160882
C 0.00292 0.097095 0.083188
H 6.082633 -2.333166 0.0596
H 4.936397 -3.399147 -0.765481
H 6.166405 -2.535079 -1.700382
H 5.003502 -0.318297 -1.144945
H 3.019619 -2.434533 -2.188335
H 1.928835 -0.266287 -2.562699
H 2.922173 -2.120573 0.289284
H 3.07736 0.882935 -0.354191
H 2.730185 -0.325943 2.157128
H -1.057703 0.110647 0.022873
