19

O 1.63635 0.685418 -0.273595
C 0.667511 0.054239 0.546853
C -0.356984 1.041165 1.125359
C -1.393654 0.376457 2.01706
C -2.642791 0.683071 1.660251
C -2.671656 1.571794 0.458018
O -3.65926 2.547209 0.334069
C -2.141698 0.962326 -0.80475
C -1.207438 1.766919 0.082037
H 2.120682 1.317975 0.271635
H 0.167407 -0.674483 -0.099092
H 1.14459 -0.503825 1.369321
H 0.215017 1.778408 1.714631
H -1.116088 -0.300855 2.818012
H -3.5515 0.329829 2.134812
H -3.578826 3.149626 1.085747
H -2.04984 -0.116916 -0.866006
H -2.435183 1.451499 -1.726931
H -0.86968 2.716825 -0.312571
