19

C 1.124972 -0.579283 0.227043
O -0.110804 -0.451655 0.89187
C -0.473249 0.893406 1.121134
C -1.806854 0.894128 1.854186
C -2.309645 2.287604 2.160615
O -1.674922 3.285312 1.907016
C -3.719231 2.420912 2.77707
C -4.119537 1.354388 3.684048
C -4.440554 0.470629 4.433502
H 1.94658 -0.136572 0.812278
H 1.313138 -1.647903 0.0974
H 1.104996 -0.094128 -0.761395
H 0.292605 1.408574 1.721865
H -0.55608 1.443138 0.169865
H -2.567618 0.358573 1.270474
H -1.727379 0.336462 2.795393
H -3.759412 3.399038 3.267479
H -4.419263 2.467927 1.929046
H -4.730765 -0.305731 5.097531
