19

C -0.436771 -1.54539 -4.292708
C 0.052543 -1.499097 -2.858989
O -0.236348 -2.354184 -2.05122
C 0.924808 -0.300123 -2.437213
C 0.104598 1.007835 -2.380268
O -0.083124 1.579542 -3.663731
C 1.131562 1.982692 -4.271552
C 2.228921 0.96551 -4.134373
C 2.128984 -0.083583 -3.320164
H -0.861805 -0.579087 -4.580993
H 0.41145 -1.725626 -4.962927
H -1.16818 -2.347335 -4.403001
H 1.250226 -0.540715 -1.418662
H -0.896216 0.836131 -1.974682
H 0.626951 1.718494 -1.720774
H 0.894998 2.15512 -5.328035
H 1.461358 2.951582 -3.854102
H 3.123038 1.133855 -4.729349
H 2.933138 -0.81195 -3.25257
