19

C 1.156333 1.600135 -0.276212
C -0.319059 1.485677 0.205314
C -0.158284 -0.041244 0.16843
C 1.375321 0.123655 0.162465
O -0.770554 -0.874717 1.1861
C -1.377235 -1.729881 0.203876
C -2.758708 -1.241559 -0.260772
O -2.153245 -0.410261 -1.28928
C -0.833231 -0.866325 -0.94585
H 1.229022 1.725891 -1.359508
H 1.779188 2.355229 0.205682
H -0.44015 1.831232 1.23572
H -1.112964 1.905385 -0.415298
H 1.76513 0.051884 1.181684
H 1.953139 -0.538294 -0.489071
H -1.206924 -2.791561 0.38878
H -3.401387 -2.009095 -0.709897
H -3.318525 -0.660183 0.478989
H -0.246166 -1.178898 -1.812151
