19

O 0.129872 0.075798 0.409029
C -0.98408 0.867472 0.075842
C -1.234184 2.035608 1.049416
C -2.195136 3.099235 0.499276
C -3.493745 2.463008 -0.001999
C -3.564669 1.621745 -1.253105
C -3.569017 0.954026 0.102865
C -2.309082 0.353156 0.689344
O -1.970647 1.108509 1.910549
H 0.070505 -0.099158 1.359628
H -0.911803 1.063008 -0.994377
H -0.363791 2.465093 1.554975
H -2.435117 3.789931 1.314614
H -1.693559 3.685538 -0.282183
H -4.392971 3.018485 0.241055
H -4.50231 1.630949 -1.798883
H -2.693615 1.531809 -1.891311
H -4.495935 0.501548 0.439986
H -2.376056 -0.721341 0.881107
