19

C -1.175771 1.900847 -1.328279
C -1.052491 1.083619 -0.050163
C -1.075133 1.927323 1.216243
O -2.058974 0.010307 0.0016
C -1.066739 -1.015796 -0.029605
C -1.161981 -2.303253 0.738977
C -1.221219 -2.314903 -0.768167
C 0.036181 -0.010871 -0.082762
O 1.233349 -0.033844 -0.130757
H -1.182454 1.251119 -2.207733
H -2.106818 2.477342 -1.315063
H -0.334558 2.596885 -1.412554
H -1.010297 1.296178 2.106711
H -0.231406 2.625526 1.21869
H -2.005436 2.503185 1.26554
H -0.264062 -2.658628 1.233174
H -2.0875 -2.46131 1.281519
H -0.365948 -2.678522 -1.32763
H -2.186493 -2.479512 -1.234211
