19

C 0.916451 -1.964423 1.445028
C 2.350467 -1.962224 0.950048
C 2.664568 -2.426837 -0.458763
C 3.017556 -3.328983 0.679481
C 4.436822 -3.614749 1.031295
C 4.948973 -4.990771 1.024311
O 4.647882 -4.333471 2.256201
C 3.2089 -0.878134 1.501444
O 4.29416 -0.55383 1.072559
H 0.87396 -2.047602 2.53726
H 0.394242 -1.045122 1.154258
H 0.361323 -2.807454 1.023491
H 1.825621 -2.69031 -1.093594
H 3.479266 -1.907328 -0.951825
H 2.350555 -4.166573 0.86862
H 5.138294 -2.801398 0.861486
H 4.282388 -5.810299 0.758046
H 6.005897 -5.171698 0.834381
H 2.771253 -0.352185 2.379842
