19

O -1.713655 1.380444 1.672748
C -1.558788 0.336598 0.770627
C -2.451471 0.267033 -0.498414
C -1.872566 -1.171033 -0.504925
C -1.972576 -1.152856 1.038727
O -0.462881 -0.968787 -0.751745
C -0.187999 0.11479 0.131931
C 0.758693 1.194696 -0.261851
C 1.12424 0.201052 0.837896
H -1.168537 1.198313 2.449623
H -3.515786 0.304137 -0.260416
H -2.199828 0.917131 -1.338487
H -2.242734 -1.977291 -1.13346
H -2.994319 -1.235964 1.41253
H -1.281391 -1.79387 1.590847
H 1.265432 1.093316 -1.215032
H 0.516445 2.21145 0.02999
H 1.862372 -0.558367 0.6041
H 1.15291 0.556647 1.864271
