19

C 1.614422 -0.332161 0.03587
O 0.24073 -0.004454 -0.049184
C -0.375673 0.598173 1.086669
C -0.105612 -0.125615 2.403988
C 0.032043 2.10666 1.137115
C -0.585873 2.865719 2.215051
C -1.091873 3.482989 3.113963
C -1.865083 0.531206 0.723519
O -2.762003 0.411075 1.514498
H 1.806535 -1.111456 0.784315
H 1.893377 -0.711983 -0.949745
H 2.24316 0.539474 0.264272
H -0.277619 -1.199116 2.283309
H 0.920651 0.035164 2.747111
H -0.790949 0.250805 3.164919
H 1.12409 2.156414 1.232349
H -0.215951 2.55443 0.166005
H -1.55299 4.033723 3.895943
H -2.044712 0.613173 -0.371517
