19

C -0.057698 -0.23025 0.327279
C 1.426506 -0.014236 0.228558
C 2.546683 -1.104214 0.107461
C 3.301275 0.270318 0.094869
O 4.65613 0.520426 0.050166
C 2.370444 0.718762 1.245766
C 2.197871 0.755028 -0.855985
C 1.966776 1.9115 -1.701281
O 2.136746 0.574573 -2.252252
H -0.309942 -0.853557 1.191926
H -0.58718 0.723181 0.431879
H -0.434276 -0.729808 -0.572278
H 2.704185 -1.724996 0.993856
H 2.561295 -1.686644 -0.816949
H 4.992471 0.20537 -0.79941
H 2.518131 0.206421 2.19944
H 2.223192 1.794468 1.373213
H 0.965002 2.323702 -1.811858
H 2.780469 2.601435 -1.919889
