19

C -0.690726 -2.437827 -0.333486
C -0.989994 -1.001472 0.017346
C -1.65936 0.023389 -0.970148
C -1.03033 1.118644 -0.044215
C -1.79649 0.88689 1.266607
O -3.101961 1.423153 1.143444
C -1.755643 -0.682468 1.326404
C 0.101991 0.084133 0.092046
O 1.299058 0.098514 0.053856
H -0.123257 -2.921868 0.469258
H -1.612987 -3.009948 -0.484818
H -0.093767 -2.500563 -1.249003
H -1.218886 0.001234 -1.96869
H -2.749697 0.015607 -1.016032
H -0.859413 2.14503 -0.360155
H -1.275738 1.341808 2.120174
H -3.590157 1.211501 1.949128
H -1.240554 -1.065029 2.213176
H -2.771209 -1.091206 1.305078
