19

C -1.974542 -2.729065 -0.09432
C -2.687081 -2.877508 1.24216
O -3.137279 -3.949707 1.600422
C -2.83398 -1.679301 2.098905
C -1.989629 -0.426832 2.002932
C -3.445931 -0.29659 1.72117
C -4.257887 -0.293748 3.027445
O -5.65531 -0.290871 2.873138
C -3.621011 -1.668227 3.415316
H -0.894888 -2.63051 0.068799
H -2.161885 -3.62057 -0.695063
H -2.30649 -1.837859 -0.638004
H -1.570088 -0.020453 2.920712
H -1.329947 -0.353617 1.144778
H -3.825655 0.021864 0.756818
H -4.038659 0.544689 3.695923
H -5.905394 -1.06718 2.354427
H -3.027518 -1.711865 4.333477
H -4.375668 -2.457458 3.444504
