19

C 1.339265 -0.002999 -0.238897
O -0.049307 0.189325 -0.040658
C -0.438757 0.669125 1.242734
C -0.028318 2.164194 1.468742
C -1.373217 2.876304 1.683135
O -2.31503 2.106902 0.953147
C -1.994619 0.757294 1.219473
C 0.031155 -0.216457 2.314495
C 0.399774 -0.943038 3.199547
H 1.744551 -0.7523 0.453351
H 1.451797 -0.358008 -1.265755
H 1.906431 0.931609 -0.122393
H 0.663692 2.292159 2.30265
H 0.446499 2.524485 0.553017
H -1.639964 2.899071 2.753097
H -1.397181 3.897063 1.294872
H -2.399461 0.443665 2.19296
H -2.404034 0.130236 0.425915
H 0.727343 -1.591059 3.974867
