19

O 1.849494 0.312913 0.046574
C 0.425405 0.387437 0.062385
C -0.098246 1.031951 -1.218027
C -0.107251 0.226534 -2.578068
C -0.637949 1.309431 -3.516871
C -1.644233 1.857777 -2.820775
C -1.64593 1.066103 -1.516533
C -1.485719 -0.384109 -2.148267
O -1.375986 -1.494278 -1.293674
H 2.094764 -0.346977 -0.613108
H -0.021813 -0.591278 0.250291
H 0.180852 1.043197 0.906878
H 0.383777 2.009153 -1.314229
H 0.719083 -0.40508 -2.907703
H -0.278824 1.529877 -4.511408
H -2.33192 2.644138 -3.098729
H -2.39059 1.293896 -0.751986
H -2.177617 -0.593864 -2.973959
H -2.265836 -1.78956 -1.065782
