19

C -3.282848 0.642066 -0.940956
C -2.119202 0.415901 0.01463
C -0.7079 0.904062 -0.449692
C -0.162115 -0.490455 -0.141999
O 0.929804 -0.980113 -0.085269
C -1.584984 -1.037638 0.15214
C -1.735597 -1.75424 1.486643
C -1.074923 -3.113371 1.570613
O -2.313325 -1.238895 2.41764
H -4.190109 0.149929 -0.57595
H -3.499801 1.709869 -1.049214
H -3.059234 0.243619 -1.938286
H -2.361681 0.796663 1.009289
H -0.647061 1.13206 -1.520209
H -0.240922 1.720819 0.10693
H -1.892648 -1.709839 -0.659649
H -1.130843 -3.4941 2.591507
H -1.572494 -3.812363 0.888079
H -0.031488 -3.031884 1.244033
