19

C 1.407557 1.39384 0.083891
C 1.036552 -0.096488 0.076838
C 1.732632 -0.874529 -1.003633
C 3.221584 -1.195574 -1.166081
C 2.788651 -2.126014 -2.325475
O 2.299967 -1.204596 -3.337949
C 1.196756 -0.95264 -2.472864
C 1.332064 -2.190209 -1.671121
O 0.424168 -3.169729 -1.370017
H 0.881281 1.924436 0.88333
H 2.483022 1.52951 0.239318
H 1.146786 1.865665 -0.869241
H 1.274063 -0.534357 1.057135
H -0.049384 -0.20635 -0.047998
H 3.912295 -0.391728 -1.440323
H 3.605577 -1.75693 -0.308133
H 3.411879 -2.924935 -2.722438
H 0.340075 -0.401026 -2.836922
H 0.632165 -3.532315 -0.498147
