19

O 0.555013 -0.136551 0.429226
C -0.675594 0.523729 0.302685
C -1.97308 -0.293573 0.370916
C -2.087944 -0.964157 1.701924
C -2.412975 0.503703 1.616544
C -1.132644 1.309759 1.5781
C -1.080496 2.844725 1.632281
C -0.008082 2.638461 2.717598
O -0.209151 1.202815 2.695096
H 0.832217 0.007536 1.349293
H -0.651868 1.169244 -0.58434
H -2.572908 -0.590046 -0.480357
H -2.947077 -1.614959 1.827165
H -1.198161 -1.296752 2.226541
H -3.389142 0.896207 1.875892
H -0.758119 3.340063 0.714817
H -2.001938 3.307969 1.991118
H 1.013593 2.906284 2.426823
H -0.225052 3.053932 3.706655
