19

C -1.287106 -0.582601 -0.215667
C -0.33072 -1.122883 -1.255379
C -0.817092 -2.157518 -2.2642
C -0.392561 -0.785118 -2.71866
O 0.897134 -0.629684 -3.252279
C 1.820765 -1.230473 -2.350115
C 1.17118 -1.1957 -0.937714
C 1.626348 0.041881 -0.191505
O 2.10584 0.040693 0.914414
H -1.325949 -1.237136 0.662757
H -0.997859 0.416803 0.127525
H -2.300022 -0.514632 -0.624699
H -0.194366 -3.011194 -2.507941
H -1.881013 -2.371655 -2.253682
H -1.098082 -0.086413 -3.15336
H 2.031206 -2.26737 -2.641869
H 2.756635 -0.665907 -2.410558
H 1.443863 -2.070572 -0.339942
H 1.501798 0.991219 -0.764125
