19

O 0.425081 0.637666 0.248189
C -0.845202 0.459551 0.762471
C -1.449353 0.705413 2.14774
C -2.286804 -0.563325 2.036959
C -1.754977 -0.7663 0.569124
O -2.708737 -0.70813 -0.471398
C -3.04093 0.606283 -0.912305
C -3.087071 1.640776 0.221724
C -1.753972 1.625087 0.967038
H 0.984032 -0.089433 0.552616
H -0.976232 1.094059 3.041152
H -1.950106 -1.360703 2.705086
H -3.37284 -0.463135 2.123458
H -1.217612 -1.711488 0.448407
H -2.30052 0.93749 -1.656708
H -4.009331 0.513062 -1.41312
H -3.26445 2.628274 -0.21646
H -3.928577 1.434586 0.892835
H -1.218848 2.567797 1.029034
