19

O -1.956022 3.693476 2.509104
C -2.122161 2.449469 1.85914
C -2.860138 2.68098 0.548713
C -2.643292 1.51861 -0.403797
C -2.200332 0.171642 0.168216
C -0.830872 0.483269 0.838372
O 0.270309 0.08238 0.034104
C -0.870588 2.002604 1.031917
C -1.568584 2.561653 -0.243398
H -1.350215 3.564331 3.249905
H -2.537861 1.701709 2.55415
H -3.679359 3.379829 0.4266
H -3.258568 1.543506 -1.297189
H -2.923717 -0.234901 0.88365
H -2.056943 -0.57859 -0.615259
H -0.701207 -0.055157 1.782631
H 0.213552 0.572123 -0.797608
H 0.073703 2.442335 1.35419
H -1.160814 3.197042 -1.018001
