19

C -3.556917 1.532609 2.3132
C -3.126993 2.739108 1.470195
C -1.642726 2.758698 1.175168
C -1.088506 3.4321 -0.025444
C -1.100044 1.90683 0.018536
C 0.180646 1.214032 0.229129
O 1.129173 1.662324 0.846563
C 0.325585 -0.193696 -0.366302
O -0.540657 -0.757728 -0.98461
H -3.033267 1.519956 3.274651
H -4.631873 1.559243 2.515802
H -3.331219 0.593482 1.796699
H -3.681863 2.751004 0.523785
H -3.391513 3.667896 1.993555
H -0.990562 2.753419 2.045879
H -1.77552 3.896186 -0.725445
H -0.111869 3.896416 0.052437
H -1.819822 1.378293 -0.59517
H 1.321408 -0.641242 -0.162111
