19

C 0.506105 -0.928191 0.185225
C 1.166438 -0.010559 1.222221
O 0.053128 0.390219 2.057686
C -1.002036 0.674684 1.090257
C -0.215747 0.424838 -0.18467
C -0.479604 0.797063 -1.623365
C 0.97813 0.982368 -2.153601
O 1.873158 1.042703 -1.022128
C 1.126958 1.125335 0.167412
H 1.183987 -1.272807 -0.593604
H -0.112915 -1.743155 0.566575
H 2.013295 -0.270291 1.855049
H -1.847379 -0.002736 1.257174
H -1.338928 1.711362 1.205128
H -1.021834 0.037871 -2.193996
H -1.039903 1.736543 -1.686603
H 1.2937 0.139484 -2.77815
H 1.082146 1.90108 -2.743503
H 1.109599 2.144219 0.575324
