19

O 0.455483 0.848917 -0.048556
C -0.72292 0.847488 0.725938
C -1.363151 2.239438 0.746165
C -2.374524 2.326598 1.972431
C -1.489234 3.461742 2.55495
C -0.358007 2.703535 1.846794
C -0.462949 1.146592 2.217956
O 0.57331 0.415654 2.79712
C -1.888179 1.108793 2.795519
H 1.108081 0.329227 0.441503
H -1.349818 -0.028039 0.49866
H -1.577068 2.813223 -0.152911
H -3.448368 2.448677 1.829237
H -1.672998 4.4288 2.077581
H -1.472798 3.586984 3.644251
H 0.630979 3.100997 1.631824
H 0.775809 0.782336 3.666608
H -2.401857 0.168954 2.572771
H -1.935041 1.289234 3.875247
