19

O -0.595777 1.405493 -0.006632
C -1.426425 1.145995 1.106142
C -0.965571 -0.038437 2.02364
C -2.237688 -0.900393 1.972148
C -3.363278 0.177756 2.144238
C -2.847428 0.651353 0.756674
C -2.614111 -0.855205 0.45211
C -2.287847 -2.187361 2.726461
O -1.378332 -2.641791 3.378624
H -0.478377 0.584361 -0.500732
H -1.462402 2.094842 1.648657
H -0.094066 -0.548762 1.603758
H -0.714389 0.271683 3.040206
H -4.368494 -0.248287 2.102608
H -3.270485 0.859788 2.994681
H -3.438285 1.290484 0.100421
H -3.541238 -1.389738 0.23257
H -1.840185 -1.147348 -0.265627
H -3.259622 -2.730613 2.646914
