19

O 2.69399 2.495815 1.460402
C 2.733043 1.321313 2.282746
C 3.159758 0.085947 1.502968
C 4.563672 -0.440488 1.658627
C 3.408317 -1.17794 2.285437
C 2.564017 -0.010664 0.097584
O 3.233194 0.855001 -0.807506
C 1.111194 0.252388 0.11393
C -0.064041 0.513785 0.137412
H 1.799259 2.552305 1.099108
H 3.447075 1.521582 3.088904
H 1.747682 1.158956 2.736384
H 5.038951 -0.870338 0.784393
H 5.238404 0.106091 2.309252
H 3.096 -2.119856 1.848161
H 3.292969 -1.13345 3.364157
H 2.727157 -1.023569 -0.290861
H 3.305991 1.705343 -0.343569
H -1.10432 0.729558 0.140749
