19

C -0.688103 1.721113 -1.544416
C 0.205758 2.979497 -1.36995
C -0.550246 3.643886 -0.19151
O -0.81045 2.488729 0.665941
C -0.17028 1.478189 -0.095747
C 0.155425 0.107537 0.425807
O 1.250957 -0.295499 -0.407453
C 1.904581 0.842091 -1.032387
C 1.182125 2.092107 -0.537334
H -1.765346 1.867876 -1.652898
H -0.318512 1.005558 -2.277407
H 0.508863 3.630231 -2.190888
H 0.048124 4.37533 0.362999
H -1.499041 4.100786 -0.492291
H 0.449465 0.152618 1.485268
H -0.640793 -0.634143 0.306157
H 2.957018 0.842537 -0.728496
H 1.866332 0.698252 -2.118426
H 1.740183 2.609065 0.248421
