19

C -0.478343 2.080351 -1.248461
C -0.867624 1.356054 0.055719
C -2.316605 0.822942 0.071978
C -2.227758 -0.655113 -0.316529
O -2.023807 -0.861286 -1.741029
C -0.787883 -1.568846 -1.502236
C -0.80143 -1.154666 -0.012613
C 0.014988 0.109243 0.255749
O 1.182464 0.126675 0.559084
H -0.715319 1.463371 -2.119836
H -1.035899 3.017667 -1.33632
H 0.590728 2.310423 -1.252066
H -0.675069 2.031564 0.89519
H -2.744987 0.895194 1.078948
H -2.979795 1.364065 -0.609663
H -3.068042 -1.25561 0.048806
H -0.902655 -2.648621 -1.659099
H 0.036644 -1.195976 -2.119361
H -0.616588 -1.931831 0.729037
