19

C -0.1635 -0.329864 -0.59009
C 1.304023 -0.278482 -0.313061
O 2.041987 -0.026613 -1.513362
C 1.399722 1.281758 -1.644864
C 0.524138 1.009775 -0.422428
C 2.413171 2.393699 -1.497629
C 1.897422 3.803949 -1.866798
O 2.718876 3.843347 -3.049591
C 3.35037 2.589245 -2.708912
H -0.510126 -0.654628 -1.567181
H -0.792752 -0.623835 0.24459
H 1.817515 -0.772609 0.503395
H 0.876412 1.365385 -2.607665
H 0.240682 1.735716 0.328081
H 2.914297 2.313693 -0.530682
H 0.828146 3.880305 -2.106068
H 2.161044 4.59833 -1.156766
H 3.256492 1.848145 -3.512129
H 4.41078 2.720648 -2.461697
