19

O 0.495597 -0.18798 0.541144
C -0.64047 0.578927 0.821622
C -1.976793 0.070619 0.334483
O -3.150102 0.531608 0.953491
C -3.154853 1.962165 0.924965
C -2.178714 2.388858 -0.17799
C -2.628088 3.227912 -1.345901
C -1.713798 3.81408 -0.295255
C -1.292345 1.194819 -0.3971
H 0.502034 -0.944329 1.141962
H -0.603446 1.159606 1.74447
H -2.065694 -0.938189 -0.052273
H -4.183425 2.293223 0.746129
H -2.835114 2.350952 1.90309
H -2.211978 3.00818 -2.323734
H -3.661156 3.559634 -1.366802
H -0.676386 3.992073 -0.556287
H -2.130745 4.544681 0.391581
H -0.809443 1.046402 -1.355645
