19

C 5.501393 1.562408 0.892498
C 4.689985 0.68555 -0.033048
O 5.148288 -0.245037 -0.659502
C 3.229428 1.01664 -0.159769
C 2.002888 0.155339 0.238339
C 1.518898 1.571508 -0.170572
C 0.172883 2.20727 -0.014549
C 2.453823 1.512969 -1.407548
O 2.657301 2.14383 0.612888
H 5.067974 1.539186 1.898842
H 6.537981 1.223385 0.912687
H 5.443436 2.604778 0.558833
H 1.746497 -0.688199 -0.405471
H 1.929235 -0.071596 1.302792
H -0.155225 2.155438 1.028389
H 0.209198 3.257779 -0.318983
H -0.562009 1.688285 -0.638136
H 2.234799 0.784589 -2.190702
H 2.776257 2.481549 -1.79212
