19

C -0.398509 1.308822 -0.057843
O -0.212711 -0.01014 -0.643052
C 1.144471 -0.073438 -0.131379
C 2.343893 -0.240386 -1.083029
C 2.910603 1.20308 -0.99059
C 3.417845 1.547666 0.447421
C 2.083516 1.897965 1.203223
C 1.110342 1.443982 0.126333
O 1.704597 1.969816 -1.070378
H -0.861915 2.013302 -0.754128
H -0.973403 1.254744 0.875187
H 1.187857 -0.721551 0.751967
H 3.041913 -1.018155 -0.760102
H 2.017223 -0.451098 -2.104141
H 3.590725 1.490296 -1.793188
H 3.954426 0.714568 0.910163
H 4.090805 2.407341 0.417743
H 1.970448 1.350677 2.142343
H 2.007926 2.968721 1.406879
