19

C -3.041841 -0.144374 1.238741
C -2.105671 -0.040318 0.042011
C -0.897313 -1.035363 0.042548
C 0.058696 0.160569 -0.089945
O 1.240365 0.266024 -0.25087
C -1.114866 1.18408 -0.002494
O -1.36597 1.938981 -1.163739
C -1.928943 1.043757 -2.125017
C -2.827072 0.091407 -1.316143
H -3.643752 -1.059606 1.192971
H -2.480902 -0.163587 2.180359
H -3.729371 0.708774 1.272203
H -0.765913 -1.587012 0.979974
H -0.843936 -1.750156 -0.786207
H -1.07459 1.858504 0.858629
H -2.469133 1.646832 -2.85816
H -1.13005 0.495261 -2.647397
H -3.809554 0.549901 -1.164253
H -2.975423 -0.870205 -1.815549
