19

C 1.375406 -0.185771 1.098524
C 0.947477 0.295749 -0.292005
C 1.633671 -0.467791 -1.420747
O 1.330008 -1.875016 -1.340507
C 0.649446 -2.160842 -2.584727
O -0.083087 -0.983153 -2.837185
C 1.077136 -0.127259 -2.84741
C 1.99033 -0.83943 -3.834783
C 1.714966 -2.135568 -3.678522
H 1.14008 -1.246166 1.223263
H 2.454581 -0.059208 1.244812
H 0.860521 0.37796 1.881971
H -0.135702 0.185863 -0.415266
H 1.184373 1.362521 -0.408713
H 2.722424 -0.338149 -1.372223
H 0.009508 -3.03223 -2.459953
H 0.803188 0.910854 -3.026598
H 2.771179 -0.370303 -4.416804
H 2.205075 -2.9992 -4.103766
