19

C 1.465062 -0.14191 0.353963
O 0.067113 -0.0296 0.151411
C -0.573612 0.8122 1.051296
O -0.118719 2.150875 0.843945
C -0.151395 2.973404 1.987205
C -1.491732 3.165814 2.638342
C -2.661723 2.567661 2.36329
C -2.945461 1.496216 1.411672
C -2.052915 0.69673 0.817003
H 1.687193 -0.510692 1.367529
H 1.829304 -0.864985 -0.378929
H 1.96809 0.819121 0.204581
H -0.318691 0.530569 2.09359
H 0.57347 2.627232 2.748798
H 0.215609 3.948099 1.638721
H -1.480462 3.924076 3.421114
H -3.526468 2.908162 2.929217
H -4.000184 1.3298 1.204859
H -2.362971 -0.080932 0.12673
