19

C 0.301095 0.608183 0.104748
C 1.154336 -0.634245 -0.083026
C 2.299682 -0.503239 -1.105933
C 3.36854 -1.476886 -0.603669
C 3.082708 -2.965802 -0.843708
O 3.928234 -3.701279 0.049431
C 2.694561 -3.185372 0.55879
C 2.957322 -1.705177 0.907387
O 1.806983 -0.933951 1.158302
H -0.445559 0.446851 0.887606
H 0.928265 1.458042 0.391958
H -0.221818 0.855434 -0.824969
H 0.508564 -1.481518 -0.36286
H 1.965974 -0.719299 -2.125658
H 2.692119 0.519295 -1.091074
H 4.390882 -1.16492 -0.823592
H 2.765264 -3.465991 -1.752233
H 1.993419 -3.879576 1.008284
H 3.68429 -1.524661 1.701825
