19

O 0.647789 0.664205 0.060717
C -0.641416 0.691494 0.621705
C -1.135393 2.078624 1.075516
C -2.16986 1.327419 1.9658
C -2.721994 2.071261 3.174024
O -1.715431 2.360401 4.127649
C -0.498054 2.782251 3.53344
C -0.157993 1.976526 2.289513
C -0.822076 0.563607 2.164285
H 0.938838 -0.254366 0.014714
H -1.355005 0.110999 0.019642
H -1.319646 2.951657 0.446476
H -2.957575 0.792631 1.423047
H -3.226734 2.997551 2.845364
H -3.462466 1.458974 3.69993
H -0.538429 3.858912 3.286699
H 0.268322 2.648303 4.304904
H 0.900944 2.031316 2.034849
H -0.646473 -0.313145 2.790046
