19

C 1.622383 -0.159466 1.434153
C 1.162875 0.112803 -0.006378
C 2.042988 -0.580703 -1.031269
C 3.408009 -0.04959 -1.366703
C 2.348089 0.051193 -2.426174
C 1.783397 1.373268 -2.791263
O 1.806225 2.359847 -2.088357
C 1.888113 -2.067745 -1.119473
O 2.558454 -2.790923 -1.818724
H 1.616872 -1.229988 1.667727
H 2.640011 0.210915 1.594805
H 0.962648 0.342261 2.147922
H 0.126931 -0.229124 -0.13487
H 1.165929 1.188603 -0.194741
H 3.691178 0.884236 -0.893485
H 4.195005 -0.775872 -1.532491
H 2.387928 -0.677823 -3.229269
H 1.319923 1.410419 -3.800569
H 1.075002 -2.48375 -0.484092
