19

C -2.246524 2.862319 2.273671
C -0.794577 2.722698 1.783551
C -0.542628 3.679869 0.629368
O 0.286461 4.552854 0.624108
C -0.493056 1.306105 1.316719
C 0.898143 0.773217 1.293591
C -0.073444 0.264107 2.3502
C -0.609786 -1.10789 2.213388
O -0.903834 -1.830562 3.133904
H -2.444028 2.148114 3.078346
H -2.439224 3.871633 2.649361
H -2.954363 2.659826 1.461397
H -0.096647 2.998317 2.581992
H -1.204997 3.510457 -0.254114
H -1.159795 0.938856 0.537599
H 1.176883 0.088177 0.499858
H 1.70187 1.410184 1.644798
H 0.065519 0.598898 3.372893
H -0.731084 -1.443377 1.154292
