19

C -0.185592 1.132677 0.573587
O 0.032422 -0.161028 -0.025416
C 1.312155 0.233296 -0.56877
C 1.376844 0.118553 -2.10751
C 1.211407 1.497182 -2.746306
C 2.170425 2.538629 -2.129114
C 1.012906 2.696401 -1.124111
O 0.083895 2.177101 -2.117927
C 1.136447 1.676215 -0.003238
H -1.093852 1.607945 0.187596
H -0.233826 1.07084 1.667779
H 2.115679 -0.346967 -0.099353
H 2.325818 -0.326435 -2.431989
H 0.567585 -0.545941 -2.427676
H 1.111046 1.458096 -3.83453
H 3.137993 2.195075 -1.753415
H 2.298486 3.416377 -2.763976
H 0.729358 3.696029 -0.781069
H 1.883302 1.983936 0.733737
