19

O 0.500693 0.404877 -0.112724
C -0.771648 0.89536 0.246743
C -1.860727 -0.167236 0.093017
C -3.219887 0.520619 -0.063787
O -3.326113 1.647671 0.793338
C -2.148022 2.406194 0.846778
C -1.086273 2.324107 -0.299641
C -0.074159 2.880619 0.740029
C -0.877826 1.803552 1.517963
H 0.656006 -0.41215 0.378089
H -1.652366 -0.779036 -0.791742
H -1.853718 -0.830354 0.969518
H -3.341064 0.846647 -1.10848
H -4.054161 -0.141892 0.182185
H -2.421533 3.411713 1.173015
H -1.195299 2.621777 -1.343366
H 0.972807 2.655239 0.550588
H -0.224059 3.917817 1.052727
H -0.766263 1.496347 2.559587
