19

O 0.724261 0.072848 1.132546
C -0.16842 0.076987 0.313965
C -0.779144 1.382382 -0.194892
C -1.708791 1.222935 -1.406336
C -2.749212 0.127923 -1.13163
C -2.051203 -1.22762 -1.020674
O -2.665233 -2.12678 -0.067425
C -1.490534 -2.136725 0.769842
C -0.723111 -1.231317 -0.225637
H -1.345643 1.803945 0.647697
H 0.043943 2.079033 -0.384847
H -2.199697 2.177161 -1.62293
H -1.123286 0.966147 -2.299871
H -3.260887 0.333793 -0.183166
H -3.516591 0.100184 -1.911879
H -1.977759 -1.701713 -2.007907
H -1.677902 -1.695219 1.756068
H -1.085983 -3.145684 0.899357
H 0.095303 -1.75584 -0.724941
