19

C 0.299882 -0.432089 -0.111242
C 1.008468 0.881344 0.155083
O 2.457915 0.720472 0.141926
C 2.572186 1.140588 1.510884
C 2.83799 2.662981 1.655034
C 1.316929 2.868156 1.764977
C 0.569863 3.874223 2.519356
O 0.583177 3.873176 1.084984
C 1.035199 1.372918 1.619678
H 0.579628 -1.184147 0.633858
H -0.787073 -0.291712 -0.081299
H 0.573397 -0.809954 -1.101666
H 0.693742 1.644556 -0.567034
H 3.158147 0.449886 2.121125
H 3.389767 2.948715 2.555877
H 3.309819 3.109843 0.77699
H -0.384037 3.613493 2.976721
H 1.102059 4.701096 2.98889
H 0.364081 0.890084 2.330817
