19

C -0.727396 -3.758509 1.150411
C -1.47406 -3.767214 -0.17136
O -1.629005 -4.79208 -0.805604
C -2.03982 -2.486304 -0.699401
C -1.467381 -1.102731 -0.355503
C -2.791978 -1.490246 0.169347
C -4.186558 -0.926733 -0.079028
C -4.413675 -1.265806 1.409411
O -3.034859 -1.69467 1.559762
H -1.345814 -3.308239 1.93271
H -0.465431 -4.784534 1.410082
H 0.188706 -3.162014 1.070383
H -2.440451 -2.609797 -1.701105
H -0.651458 -1.071187 0.35867
H -1.401888 -0.374525 -1.157416
H -4.209079 0.139166 -0.314453
H -4.798938 -1.475845 -0.795356
H -4.639726 -0.424687 2.0716
H -5.110828 -2.087927 1.603662
