19

C -0.739183 -1.240852 4.28803
C -0.806105 0.140161 3.62134
C -0.423936 1.265349 4.601613
O -0.756784 2.550088 4.119925
C 0.105442 0.173004 2.410488
O 0.138154 1.383796 1.639425
C -0.405343 0.196775 1.023749
C 0.332277 -0.369756 -0.072372
C 0.931673 -0.876412 -0.983291
H -1.439013 -1.298006 5.127151
H -0.990637 -2.036737 3.579917
H 0.266979 -1.442045 4.67419
H -1.833495 0.341948 3.293428
H -0.977332 1.136286 5.538291
H 0.65088 1.187066 4.843688
H -0.43129 2.612685 3.210996
H 1.095601 -0.262426 2.55778
H -1.48697 0.230356 0.892567
H 1.461353 -1.30922 -1.795906
