19

C 1.276587 0.343926 -0.752206
C -0.109302 -0.149497 -0.29866
C -0.259537 1.261687 0.306216
C -1.501051 2.151072 0.013635
C -1.738494 2.305959 1.53336
O -1.114428 3.485416 2.074445
C 0.094919 2.750875 2.396765
C -0.480558 1.441573 1.830667
O 1.013532 1.666632 -0.234671
H 2.131402 -0.124475 -0.250707
H 1.459001 0.361244 -1.83234
H -0.807054 -0.364713 -1.110523
H -0.118496 -0.974503 0.417076
H -1.270344 3.093855 -0.487316
H -2.293428 1.628148 -0.531096
H -2.740822 2.137811 1.933964
H 0.976668 3.14404 1.881107
H 0.269119 2.740926 3.479117
H -0.452844 0.550834 2.459
