19

C -0.019587 2.504512 0.336972
C -0.857144 1.263598 0.024581
C -2.072583 1.107132 0.954808
C -2.923812 -0.110746 0.600885
O -3.647241 0.208839 -0.594424
C -2.073557 -1.342976 0.397375
C -0.762087 -1.291576 0.14117
C -0.016405 -0.012727 0.030045
O 1.194579 -0.007773 -0.086396
H 0.345764 2.479377 1.369362
H 0.850173 2.558532 -0.320455
H -0.619752 3.411204 0.208378
H -1.246979 1.341544 -1.001129
H -1.731807 1.005961 1.993105
H -2.703285 2.000696 0.904461
H -3.638041 -0.30223 1.416503
H -4.057403 -0.598083 -0.930133
H -2.580934 -2.306018 0.450828
H -0.16609 -2.189637 0.004643
