19

C -0.030448 -0.099498 0.380113
C 1.402035 -0.071042 -0.090063
O 1.868206 -1.428787 -0.379227
C 2.848777 -1.373553 0.700451
C 2.702863 0.137034 0.71563
C 2.555037 1.4254 1.508421
C 1.953556 2.244505 0.288578
C 2.028562 1.137104 -0.821513
O 3.343809 0.61463 -0.526228
H -0.140482 -0.734446 1.265335
H -0.418388 0.895525 0.610878
H -0.651581 -0.532426 -0.412663
H 2.483191 -1.894969 1.594346
H 3.824247 -1.760162 0.395535
H 1.859772 1.335471 2.347579
H 3.499379 1.840047 1.864052
H 0.952655 2.637282 0.48262
H 2.603995 3.073131 0.003884
H 1.865335 1.438003 -1.858756
