19

C 1.29396 0.78462 0.20643
C -0.05478 0.1764 0.017039
C -1.25675 0.758977 -0.087005
C -2.304921 -0.337711 -0.121387
C -2.26324 -1.014493 1.277658
O -0.961623 -1.626478 1.320524
C -0.334523 -1.322585 0.045047
C -1.533859 -1.444795 -0.906602
O -1.193808 -1.164147 -2.24059
H 1.73881 0.458479 1.155679
H 1.983388 0.475857 -0.590383
H 1.242276 1.877888 0.210081
H -1.474151 1.819624 -0.044484
H -3.304142 -0.072572 -0.471392
H -2.366797 -0.295068 2.097512
H -3.028575 -1.793851 1.385754
H 0.5062 -2.002509 -0.091286
H -2.013668 -2.429712 -0.815096
H -2.007746 -1.089074 -2.752588
