19

C 2.797234 -1.124755 1.450226
C 1.997318 -0.32252 0.416214
C 2.221828 -0.826202 -0.988377
O 1.820761 0.021346 -2.065549
C 3.205681 -0.215429 -1.909981
C 4.148502 -0.865884 -2.937868
C 5.301076 0.060617 -2.437249
C 4.2722 0.815863 -1.565368
O 4.296844 1.819333 -0.910132
H 2.538598 -2.18949 1.41853
H 3.874758 -1.034701 1.272249
H 2.593734 -0.761663 2.461761
H 0.924613 -0.391136 0.638625
H 2.270154 0.736521 0.455393
H 2.004219 -1.884002 -1.159818
H 4.309194 -1.939017 -2.819426
H 3.845477 -0.657431 -3.966591
H 6.068785 -0.440615 -1.840797
H 5.790753 0.680854 -3.191712
