19

O 0.60943 0.17484 0.66577
C -0.757191 0.478507 0.846956
C -1.247097 0.437226 2.329282
C -1.848805 1.865232 2.538854
O -2.618661 2.053466 3.696354
C -2.501726 2.093532 1.147829
C -1.1642 1.928253 0.391596
C -0.282601 2.88452 1.182435
C -0.687007 2.838015 2.456575
H 1.114972 0.833136 1.16263
H -1.289997 -0.25854 0.239747
H -2.0226 -0.325024 2.473858
H -0.42809 0.219959 3.018724
H -3.269445 1.341861 3.744592
H -3.250315 1.333207 0.894513
H -2.93368 3.092474 1.052378
H -1.166855 2.058259 -0.691396
H 0.567539 3.422245 0.781659
H -0.254792 3.315152 3.326592
