19

C 1.395819 0.676119 -0.126302
C -0.017786 0.527894 0.343201
C -1.131065 0.863575 -0.315433
C -2.384519 0.567239 0.472565
O -2.368823 1.299227 1.693269
C -1.199443 0.993468 2.457105
C -0.355874 -0.055996 1.699184
C -1.291255 -1.2627 1.463107
O -2.454957 -0.826308 0.755844
H 1.97422 1.315408 0.553785
H 1.906994 -0.295087 -0.155654
H 1.436064 1.115481 -1.127002
H -1.167051 1.300692 -1.306413
H -3.314075 0.827651 -0.032806
H -0.629676 1.916219 2.626511
H -1.518504 0.594368 3.428887
H 0.522774 -0.348184 2.280789
H -0.791252 -2.047474 0.880768
H -1.612041 -1.688073 2.423274
