19

C 0.689482 1.25967 -0.264756
C 1.627336 0.098736 0.029874
C 0.152655 -0.104131 0.090728
O -0.42371 -0.884322 -0.93514
C -1.834856 -0.860572 -0.716299
C -2.011788 -0.876243 0.800284
O -1.804177 -2.177249 1.383327
C -0.533236 -1.780477 1.944065
C -0.651157 -0.361673 1.345143
H 0.614682 2.062506 0.461767
H 0.595236 1.565354 -1.300409
H 2.147248 -0.348508 -0.809386
H 2.186207 0.10559 0.95967
H -2.278967 0.054465 -1.140311
H -2.267532 -1.738122 -1.202514
H -2.946002 -0.417729 1.140243
H -0.545742 -1.830675 3.039862
H 0.29349 -2.386973 1.556185
H -0.649869 0.466302 2.053958
