19

O -0.049952 0.330053 -0.454084
C -0.939704 0.421524 0.647935
C -2.281148 -0.257482 0.263692
C -3.075217 0.806586 -0.563316
C -2.60112 2.131658 0.006216
C -2.582457 2.346302 1.510816
C -1.357064 1.866886 0.815194
O -0.60629 2.941333 0.216109
C -1.744224 3.204802 -0.672521
H 0.396354 1.187935 -0.517306
H -0.489238 -0.039275 1.538933
H -2.089695 -1.174195 -0.299417
H -2.829974 -0.537999 1.169536
H -2.789168 0.745471 -1.61838
H -4.156894 0.644763 -0.504948
H -2.580336 3.358144 1.903645
H -3.135715 1.628997 2.107144
H -2.066323 4.249793 -0.602553
H -1.484815 2.958634 -1.707836
