19

C 4.971113 -0.387127 1.740769
C 5.282438 -0.834627 0.30965
O 5.749788 0.239386 -0.488229
C 4.08464 -1.525925 -0.343711
O 4.402758 -2.49933 -1.355523
C 3.850771 -2.972708 -0.1269
C 2.491502 -3.619479 -0.173729
C 2.984407 -0.639396 -0.650372
C 2.106224 0.151806 -0.877782
H 4.72027 -1.241168 2.378832
H 5.843071 0.121587 2.160251
H 4.124354 0.308693 1.751364
H 6.101255 -1.561932 0.311482
H 5.01204 0.853537 -0.612847
H 4.581953 -3.476997 0.510515
H 2.083784 -3.715533 0.838342
H 1.800262 -3.029785 -0.779613
H 2.570362 -4.622665 -0.604928
H 1.313849 0.828802 -1.085062
