19

O 1.550115 -0.318616 0.749174
C 0.469454 0.060707 0.372657
C -0.536947 0.791869 1.263938
C -1.252609 1.891143 0.457637
O -2.007643 1.33903 -0.601276
C -3.36872 1.018746 -0.34677
C -3.716578 0.642237 1.102443
C -2.781307 -0.342681 1.764151
C -1.451995 -0.258855 1.850957
H 0.114236 -0.123186 -0.662424
H 0.050555 1.246816 2.073755
H -1.859939 2.520211 1.120385
H -0.505145 2.544373 -0.008565
H -4.008444 1.861904 -0.651687
H -3.589808 0.176326 -1.011678
H -3.787517 1.550202 1.715117
H -4.730987 0.228316 1.083073
H -3.257619 -1.185332 2.260356
H -0.924092 -1.03934 2.395878
