19

C -4.060432 0.965471 1.226414
C -2.661282 0.381526 1.202527
O -1.645934 1.427782 1.175741
C -1.179966 1.025632 -0.137592
C -1.068091 2.155511 -1.122147
C -2.162052 -0.199698 -0.131922
C -0.976137 -1.188087 0.014218
C -0.010245 0.017433 0.03013
O 1.178362 0.134877 0.105673
H -4.194507 1.584083 2.119445
H -4.238656 1.589573 0.344504
H -4.806436 0.162572 1.244181
H -2.507411 -0.277993 2.067271
H -0.778288 1.782253 -2.110098
H -2.01776 2.692413 -1.208981
H -0.299083 2.859383 -0.785782
H -2.894052 -0.39177 -0.915244
H -0.966003 -1.831709 0.899312
H -0.805828 -1.811173 -0.870959
