19

C -1.061057 0.839999 0.177234
C -0.560412 0.403728 -1.169334
O -1.259671 0.998712 -2.226371
C -1.104046 0.204829 -3.408395
C -0.70165 -1.21272 -2.941841
C -0.116052 -0.951728 -1.565481
C 0.954309 0.14029 -1.463249
C 1.916316 0.071297 -0.351319
O 1.756629 -0.564957 0.67125
H -0.474837 0.375989 0.970873
H -0.999378 1.928849 0.273012
H -2.11003 0.546675 0.287912
H -2.050654 0.233965 -3.954621
H -0.328532 0.647513 -4.047145
H -1.578481 -1.861561 -2.842051
H -0.005807 -1.68841 -3.639343
H -0.037624 -1.748036 -0.833364
H 1.333644 0.587436 -2.376646
H 2.842224 0.669301 -0.500872
