19

C -0.976732 2.478725 4.359683
C -0.802077 1.456607 3.277987
O 0.430026 0.670949 3.190328
C -0.867716 0.007895 3.195746
C -1.513259 0.068261 1.784513
C -2.711191 -0.790099 1.474364
C -0.671518 0.808303 0.782316
O 0.681939 0.674525 0.520203
C -1.356583 1.629397 1.841875
H -0.609103 2.104306 5.318961
H -0.431956 3.391597 4.101769
H -2.037734 2.729621 4.468971
H -1.049037 -0.79461 3.903501
H -3.455755 -0.741504 2.278118
H -3.200791 -0.477214 0.546608
H -2.409763 -1.839988 1.358637
H -1.216391 0.90419 -0.158332
H 1.097121 0.66807 1.39942
H -2.098459 2.39482 1.63173
