19

O 1.495335 3.824332 1.539811
C 1.489326 2.848543 0.532925
C 1.391574 3.306154 -0.903678
C 2.707201 2.817068 -0.336107
C 0.83488 1.588217 0.964966
C 0.443995 0.301771 0.1931
C -0.2295 0.286154 1.585189
C 1.095009 0.735573 2.23584
O -0.598363 1.708303 1.397193
H 0.576793 3.932117 1.825554
H 0.868561 2.67992 -1.617251
H 1.279944 4.373439 -1.054509
H 3.088375 1.855748 -0.661516
H 3.465869 3.557314 -0.110268
H -0.234752 0.453192 -0.647216
H 1.228477 -0.432312 -0.009579
H -1.000141 -0.381418 1.968387
H 0.995852 1.272349 3.178801
H 1.941524 0.044177 2.218651
