19

O 1.34654 0.8346 -0.001156
C 0.449594 -0.103901 0.557002
C -0.732823 0.610879 1.191137
O -1.378217 1.454139 0.195827
C -2.567156 0.621236 0.186593
C -3.825198 1.365032 0.660476
C -3.858799 1.07359 2.144187
C -2.9109 0.215865 2.526344
C -2.031661 -0.209441 1.384139
H 0.799355 1.428044 -0.536607
H 0.085531 -0.81409 -0.205634
H 1.004615 -0.67335 1.311656
H -0.404991 1.2112 2.04787
H -2.688241 0.120724 -0.778854
H -3.732415 2.434904 0.438348
H -4.731835 1.008037 0.153534
H -4.591633 1.522749 2.805814
H -2.755985 -0.133487 3.541239
H -1.921631 -1.2922 1.272711
