19

C -0.872812 1.039351 1.985167
C 0.482676 0.411303 1.982926
O 1.541619 1.149472 2.610842
C 2.253645 -0.101874 2.858725
C 3.2494 -0.259982 1.721109
O 2.422091 -0.293762 0.552503
C 1.091624 -0.555739 0.965261
C 0.27161 -1.224308 -0.100834
C 1.032204 -0.933494 2.421994
H -1.187347 1.266522 3.008968
H -0.856328 1.974675 1.414951
H -1.613742 0.375552 1.531808
H 2.641598 -0.169328 3.876439
H 3.926112 0.596931 1.646907
H 3.836153 -1.188222 1.807903
H -0.742652 -1.428968 0.252155
H 0.205643 -0.588329 -0.989448
H 0.73348 -2.173035 -0.391185
H 0.599775 -1.814555 2.878098
