19

O -0.799247 0.635394 0.464165
C -2.036116 0.043675 0.219905
C -2.29689 -1.395167 0.63865
C -3.796707 -1.534257 0.307973
C -4.412604 -0.198909 0.787103
C -3.357416 0.796042 0.328964
C -2.756227 0.455696 -1.025578
C -3.434105 -0.603543 -1.875335
O -3.971327 -1.677437 -1.098817
H -0.664747 0.666899 1.421102
H -1.695021 -2.128856 0.095218
H -2.114559 -1.519582 1.715046
H -4.263871 -2.417113 0.748499
H -5.400572 -0.047994 0.34062
H -4.523996 -0.184271 1.878359
H -3.379611 1.832225 0.646879
H -2.306679 1.276975 -1.57425
H -4.255331 -0.155257 -2.45327
H -2.721355 -1.029378 -2.595921
