19

C 1.640168 -0.072699 1.200587
C 1.076207 0.258607 -0.186604
C 1.792317 -0.47272 -1.319338
C 1.458159 -1.961396 -1.43591
C 1.558048 -2.259149 -2.965379
O 1.965607 -1.057255 -3.612997
C 1.091541 -0.342422 -2.700113
C 0.306945 -1.702241 -2.378635
O -1.000446 -2.091788 -2.283668
H 1.529464 -1.138079 1.429021
H 2.706709 0.172589 1.260209
H 1.121433 0.492927 1.980491
H 0.005878 0.014782 -0.21729
H 1.156785 1.340628 -0.362075
H 2.856888 -0.208792 -1.347454
H 1.557156 -2.753731 -0.704411
H 1.833037 -3.217062 -3.385753
H 0.723949 0.605752 -3.090288
H -1.369186 -2.162779 -3.175083
