19

C 3.049139 -0.578182 -1.205575
C 2.616098 0.017433 0.124002
C 1.218341 -0.378793 0.801479
C 0.498732 0.503305 -0.237213
C 1.748516 1.31219 0.246916
O 1.82922 2.704947 0.223335
C 0.95496 3.0829 1.316512
O 0.508645 1.910436 2.028963
C 1.446454 0.910636 1.663572
H 3.382122 -1.611885 -1.063369
H 2.258326 -0.581092 -1.959367
H 3.894381 -0.011123 -1.609468
H 3.451377 -0.005152 0.832901
H 0.94302 -1.376502 1.136205
H 0.485048 0.16035 -1.269933
H -0.467609 0.903271 0.065863
H 1.525457 3.745151 1.980481
H 0.066231 3.592067 0.928739
H 2.27356 0.861943 2.38102
