19

O 1.714903 0.675218 0.07544
C 0.312363 0.532626 -0.107765
C 0.089341 0.126151 -1.555349
C 0.343845 1.264637 -2.580477
C -1.184822 1.516253 -2.658992
C -1.432712 0.142054 -1.975423
O -2.39522 0.223495 -0.935037
C -1.76246 -0.931648 -2.906556
C -2.041982 -1.849385 -3.633048
H 1.867679 1.000184 0.969929
H -0.102431 -0.235244 0.563088
H -0.216262 1.473074 0.110486
H 0.613007 -0.813698 -1.747159
H 0.964113 2.088485 -2.224115
H 0.757107 0.894754 -3.520629
H -1.517237 2.311942 -1.988254
H -1.637521 1.66076 -3.64063
H -2.6857 -0.672656 -0.722113
H -2.292422 -2.645511 -4.290008
