19

O -2.216828 0.707147 2.904565
C -1.837277 -0.463336 2.199619
C -0.343601 -0.502873 1.869475
C 0.047787 -1.743448 1.058459
C 1.554452 -1.785156 0.736403
C 1.938161 -3.020945 -0.056786
O 2.312602 -2.981444 -1.21031
C 1.818746 -4.290222 0.64878
C 1.737575 -5.335009 1.243022
H -1.73408 0.720144 3.739937
H -2.122159 -1.373033 2.754306
H -2.426307 -0.449833 1.276303
H -0.081625 0.409022 1.319026
H 0.231996 -0.483126 2.806229
H -0.229562 -2.65034 1.610101
H -0.517838 -1.761686 0.118814
H 1.848191 -0.914984 0.141889
H 2.125631 -1.778439 1.673555
H 1.669576 -6.265289 1.753192
