19

C 2.501275 -0.688838 -0.905349
C 2.232243 -2.000665 -1.602976
C 3.236213 -2.674506 -2.43326
O 2.152652 -1.961819 -3.034161
C 1.282446 0.221808 -0.919481
C 0.153649 0.006643 0.131466
C -0.309539 1.464935 -0.080349
C 1.228973 1.428732 0.057009
O 1.072946 0.485751 1.193004
H 2.795631 -0.875715 0.132624
H 3.33636 -0.187712 -1.409462
H 1.461792 -2.624207 -1.143522
H 4.218397 -2.220245 -2.556542
H 3.207695 -3.756669 -2.554314
H 0.938067 0.425989 -1.938468
H -0.438694 -0.882955 0.348155
H -0.737135 1.737135 -1.048305
H -0.836453 1.907672 0.765276
H 1.936333 2.249615 0.182945
