19

O 1.902983 0.045414 3.417199
C 1.770933 -0.005952 2.222697
C 1.899453 -1.320731 1.453464
C 0.820725 -1.714923 0.424657
C 0.457431 -0.620417 -0.585597
C -0.291834 0.57048 0.078131
C 1.06991 1.287326 0.231797
C 1.628575 0.362812 -0.881729
O 1.632085 1.165876 1.541696
H 2.873825 -1.278547 0.950837
H 1.977169 -2.092476 2.221394
H 1.1944 -2.598303 -0.106191
H -0.089915 -2.031422 0.948266
H -0.033173 -1.063727 -1.455286
H -0.943848 1.096557 -0.624562
H -0.845202 0.377973 1.001826
H 1.103946 2.360838 0.043511
H 1.510915 0.848899 -1.854401
H 2.658689 0.012454 -0.793399
