19

C -2.905104 1.208881 -2.046442
C -3.127359 0.172621 -0.95586
C -4.114953 0.477577 0.209796
C -3.101215 -0.165974 1.197043
C -2.022369 -0.05361 0.105813
C -0.794023 -0.956222 -0.058206
C -0.006307 0.334997 0.149276
O 1.129839 0.684955 0.196427
O -1.130268 1.111342 0.293701
H -2.610927 2.169074 -1.614356
H -2.11689 0.896691 -2.741024
H -3.822695 1.356088 -2.626417
H -3.372814 -0.800669 -1.399112
H -4.221284 1.552799 0.376998
H -5.10846 0.029113 0.149412
H -2.885882 0.365286 2.126089
H -3.3363 -1.209287 1.424683
H -0.639331 -1.706437 0.720625
H -0.661089 -1.411566 -1.042287
