19

O 1.610323 0.731046 -0.129178
C 0.27317 0.32915 0.12854
C -0.746163 1.167552 -0.652833
C -2.169773 0.722405 -0.40313
O -2.52777 0.866246 0.939873
C -2.750216 -0.423007 -1.182898
C -3.238732 1.001668 -1.461705
C -4.527825 1.409328 -0.993308
C -5.574634 1.763521 -0.510726
H 1.726315 1.619288 0.229689
H 0.215899 -0.718059 -0.18696
H 0.039276 0.365656 1.201298
H -0.65135 2.221501 -0.358043
H -0.514682 1.101534 -1.72207
H -3.440291 1.19206 0.979651
H -2.154266 -0.895019 -1.956611
H -3.436643 -1.07803 -0.660175
H -2.903302 1.465044 -2.384372
H -6.517315 2.066835 -0.12753
