19

O -0.640359 4.462128 2.558935
C -0.410385 4.166085 1.213111
C -1.616378 4.100927 0.332041
C -0.846981 2.833604 0.660328
C -0.021138 2.143887 -0.400879
O 1.067503 1.4283 0.202767
C 1.059257 0.062368 -0.20397
C -0.162305 -0.0814 -1.067579
C -0.76468 1.095317 -1.188692
H 0.013758 3.980898 3.081797
H 0.495857 4.602054 0.790972
H -2.577437 4.233873 0.813628
H -1.545413 4.509598 -0.670478
H -1.317823 2.164496 1.375347
H 0.395983 2.918683 -1.06942
H 1.98762 -0.170744 -0.750625
H 1.033569 -0.587714 0.684295
H -0.467525 -1.020288 -1.511279
H -1.663914 1.316029 -1.74892
