19

O 2.335927 2.427824 -1.89489
C 2.227563 1.348984 -0.965388
C 1.735439 0.113417 -1.687115
C 0.575332 -0.540157 -1.580246
C -0.595828 -0.285946 -0.665237
C -0.394887 0.789956 0.390529
C 0.923161 0.698277 1.187804
C 1.390633 1.800308 0.223371
O 0.024237 2.049394 -0.204822
H 1.424946 2.643764 -2.144352
H 3.254754 1.172403 -0.61746
H 2.435771 -0.228402 -2.447442
H 0.421387 -1.381023 -2.255575
H -1.467869 -0.018924 -1.280733
H -0.870611 -1.224251 -0.159598
H -1.309995 0.924093 0.977632
H 0.824482 1.045518 2.21727
H 1.458918 -0.25172 1.162998
H 1.836568 2.701177 0.656694
