19

C 1.963921 -0.891026 1.410776
C 1.510757 -0.159904 0.139889
C 2.126658 -0.660576 -1.181646
C 1.452229 -0.066809 -2.455647
C 0.845317 -1.442743 -2.730427
O 0.015931 -1.853564 -3.489941
C 1.643614 -2.107035 -1.594254
C 3.635301 -0.557105 -1.188959
O 4.282582 0.028524 -2.022527
H 1.811082 -1.972968 1.326826
H 3.020683 -0.717551 1.634445
H 1.38547 -0.540222 2.270585
H 0.420601 -0.251696 0.044678
H 1.717844 0.913763 0.235737
H 0.738228 0.748352 -2.308906
H 2.188052 0.232834 -3.209051
H 1.043917 -2.650717 -0.858144
H 2.434267 -2.771074 -1.960662
H 4.145229 -1.098683 -0.362122
