19

C 2.236478 1.535231 -0.115953
C 2.916035 1.838036 -1.45742
C 2.941821 0.659886 -2.394694
C 3.467417 0.68634 -3.853108
C 2.797533 -0.728809 -3.864918
C 1.703417 -0.106335 -2.933747
C 3.654105 -1.403952 -2.802756
O 4.168848 -2.480723 -2.742269
O 3.735797 -0.443332 -1.822181
H 2.744859 0.715161 0.397753
H 2.257994 2.415947 0.532967
H 1.188985 1.249411 -0.259759
H 2.40027 2.660769 -1.967719
H 3.949466 2.16561 -1.291109
H 2.94221 1.404939 -4.485873
H 4.548932 0.749687 -3.993871
H 2.586538 -1.302275 -4.763321
H 1.004685 0.53411 -3.476182
H 1.178441 -0.76709 -2.240683
