19

O 0.289351 -1.176035 0.034306
C 0.448863 -0.011133 -0.232355
C -0.265112 0.728895 -1.345425
C -1.045472 1.912299 -0.797646
C -1.287775 3.135537 -1.679049
C -0.33779 3.205692 -0.531061
C -0.334285 4.098721 0.704236
C 1.184116 4.186155 0.441165
O 1.074879 3.331335 -0.726312
H 1.154054 0.623032 0.3515
H 0.504131 1.100155 -2.035536
H -0.912606 0.028634 -1.882194
H -1.843814 1.651952 -0.105872
H -0.855649 3.117316 -2.674495
H -2.239433 3.652034 -1.603995
H -0.879737 5.038241 0.598257
H -0.624902 3.611616 1.637231
H 1.566015 5.176818 0.174086
H 1.829086 3.740017 1.205458
