19

C 1.491587 0.02051 -0.102347
O 0.095292 -0.13759 0.107788
C -0.397515 0.605815 1.174282
C -1.901506 0.416655 1.486202
C -1.604845 0.994913 2.898903
C -0.448804 -0.016727 2.61675
C -1.557141 -0.986211 2.07061
C 0.655511 -0.378776 3.545698
O 1.832859 -0.358775 3.268384
H 2.062895 -0.263314 0.789207
H 1.756905 -0.626923 -0.941098
H 1.730805 1.062699 -0.362777
H -0.038005 1.644679 1.138421
H -2.735285 0.671979 0.832819
H -1.324008 2.050349 2.961083
H -2.305721 0.712661 3.687174
H -1.217651 -1.742551 1.364429
H -2.250813 -1.386943 2.814153
H 0.320739 -0.69043 4.562509
