19

C -0.972429 2.109321 1.156684
C -0.849267 1.010062 0.110634
C -1.993853 -0.044276 -0.082187
C -0.934898 -1.193229 -0.115405
C 0.089566 -0.17335 0.401051
O 1.154601 -0.25978 0.943859
C -2.870617 0.12393 -1.288854
C -4.204749 0.732821 -1.219111
O -4.050016 -0.680941 -1.355804
H -1.263283 1.693957 2.127128
H -0.013521 2.620403 1.285375
H -1.72148 2.852554 0.864323
H -0.573278 1.437139 -0.864759
H -2.617336 -0.114232 0.814454
H -1.106782 -2.072373 0.509317
H -0.69918 -1.524571 -1.133011
H -2.331779 0.195382 -2.238316
H -4.591084 1.067003 -0.257122
H -4.614105 1.244907 -2.088487
