19

O 0.181943 -0.053574 0.30947
C -1.032075 0.647584 0.20963
C -1.016766 2.107136 0.739881
C -2.39252 2.257203 1.337262
C -3.021464 1.087476 1.470824
C -2.174829 -0.05159 0.999273
C -2.802391 -1.325107 0.388257
C -2.123806 -2.07894 1.54214
O -1.612526 -0.846491 2.106916
H 0.165914 -0.450493 1.196991
H -1.309051 0.662383 -0.851848
H -0.234395 2.226887 1.500329
H -0.807135 2.836872 -0.049934
H -2.800648 3.217688 1.634305
H -4.00291 0.937787 1.906266
H -3.894543 -1.340911 0.400201
H -2.444478 -1.57166 -0.612661
H -2.787832 -2.590998 2.247384
H -1.31305 -2.755553 1.250593
