19

C -4.197663 -0.930366 -1.249732
C -2.801005 -0.320057 -1.308319
C -1.655265 -1.370114 -1.460641
C -1.223043 -1.152826 0.024554
C -2.219198 0.088164 0.065784
C -0.996817 1.070007 -0.024689
O -0.887184 2.102686 0.913525
C -0.116713 -0.15303 0.289067
O 0.906557 -0.198474 0.922761
H -4.245986 -1.735078 -0.505938
H -4.944198 -0.176336 -0.978008
H -4.478415 -1.353078 -2.220796
H -2.782819 0.487117 -2.050324
H -2.003949 -2.385399 -1.662468
H -0.885706 -1.120323 -2.195225
H -1.259394 -2.018336 0.686514
H -2.880003 0.283155 0.91016
H -0.883521 1.467966 -1.043544
H -0.114538 1.899644 1.46266
