19

O -1.840374 3.315282 -1.776588
C -1.520728 2.890422 -0.463084
C -1.898214 1.430277 -0.203512
C -1.595374 1.004145 1.247477
C -1.913302 -0.396078 1.510311
C -2.191092 -1.554206 1.693666
C -2.461925 -2.968286 1.919799
C -1.176722 -3.767664 2.14237
O -0.979108 -4.859104 1.679453
H -1.339479 2.770012 -2.395703
H -0.451331 3.04546 -0.241509
H -2.08807 3.551178 0.201786
H -2.962488 1.289871 -0.417987
H -1.342826 0.7796 -0.890887
H -0.533147 1.180454 1.465766
H -2.158577 1.644247 1.939826
H -3.077877 -3.097088 2.824176
H -3.010353 -3.426376 1.089235
H -0.426831 -3.256956 2.785574
