19

C -2.514811 -0.939501 -2.454466
C -2.817671 -1.087671 -0.986503
C -1.402739 -1.251976 -1.489701
C -0.372272 -0.194707 -1.165872
O 0.652294 -0.099815 -2.166754
C 1.840125 -0.764294 -1.744112
C 1.741269 -0.862798 -0.239978
O 1.452912 0.394887 0.379597
C 0.369319 -0.503223 0.121321
H -2.840728 -1.721867 -3.129724
H -2.540448 0.057252 -2.881301
H -3.054109 -0.19003 -0.423959
H -3.348897 -1.971202 -0.651817
H -1.011316 -2.266435 -1.512018
H -0.857082 0.789963 -1.126811
H 1.917852 -1.772253 -2.182548
H 2.69422 -0.168776 -2.084669
H 2.359295 -1.554926 0.325722
H -0.158024 -0.895377 0.986253
