19

C 0.009824 0.018244 0.030697
C 1.522913 0.065847 0.016679
C 2.270908 -0.930137 -0.832846
C 2.291168 -1.047436 0.684335
C 3.771901 -0.802957 0.971451
O 4.483036 -1.988341 0.603607
C 4.525825 -1.942712 -0.836215
C 3.742142 -0.641709 -1.136317
O 4.154292 0.148678 -0.005851
H -0.387406 0.444565 0.958571
H -0.409019 0.587628 -0.806541
H -0.357321 -1.010941 -0.047457
H 1.953681 1.060375 0.089832
H 1.731941 -1.637405 -1.452914
H 1.780546 -1.843949 1.211717
H 4.075553 -0.487061 1.969171
H 5.569399 -1.886835 -1.164681
H 4.051873 -2.83535 -1.257817
H 3.990124 -0.125643 -2.063483
