19

O 0.151089 4.478611 -0.240234
C -0.260869 3.152801 -0.53153
C -1.787944 3.055329 -0.640251
O -2.207087 1.737205 -0.948207
C -1.827951 0.799049 0.037905
C -0.290752 0.726427 0.183729
C 0.258367 2.139001 0.492367
C 0.090033 -0.249536 1.197792
C 0.378558 -1.057174 2.04103
H -0.160278 4.699772 0.647473
H 0.169657 2.932061 -1.515202
H -2.241731 3.389659 0.312083
H -2.158238 3.700597 -1.44103
H -2.272948 1.057846 1.013132
H -2.229821 -0.165871 -0.280245
H 0.110094 0.405246 -0.787478
H -0.07937 2.437278 1.495924
H 1.352099 2.136532 0.505643
H 0.638861 -1.766142 2.787519
