19

C 3.983112 1.559259 0.191376
C 2.521899 1.420951 -0.190996
O 1.841151 2.383848 -0.486351
C 1.98175 0.025882 -0.189762
C 0.75583 -0.29761 -0.988792
C 0.635476 -0.283932 0.516052
C -0.169072 0.787454 1.223494
C 0.612852 -1.634933 1.158283
O 1.233932 -2.596622 0.768927
H 4.15757 1.127536 1.183851
H 4.608451 0.998325 -0.513212
H 4.270775 2.611186 0.184595
H 2.709851 -0.771018 -0.078838
H 0.298257 0.533512 -1.513764
H 0.727399 -1.263983 -1.478647
H 0.171527 0.921829 2.256551
H -0.083003 1.744613 0.708591
H -1.227439 0.503252 1.253829
H -0.044787 -1.7055 2.053383
