19

O 1.178444 0.067904 -0.279833
C 0.034215 0.828565 0.119485
C -1.172284 0.324461 -0.606105
C -1.88934 0.980387 -1.521968
C -3.075761 0.192656 -2.021192
C -3.111753 -1.046911 -1.089118
C -1.77975 -1.013848 -0.332767
C -1.000585 -2.211325 0.015411
O -1.748887 -1.506666 1.016647
H 1.88996 0.262356 0.342122
H -0.134842 0.722584 1.201934
H 0.177922 1.896652 -0.103372
H -1.650847 1.970878 -1.895031
H -4.004535 0.774628 -1.985267
H -2.93542 -0.094243 -3.071846
H -3.923386 -0.963474 -0.35943
H -3.256591 -1.981476 -1.636428
H -1.39735 -3.191264 -0.249926
H 0.0806 -2.138305 0.102463
