19

C 0.961899 0.619155 -1.098479
C 1.017179 -0.769924 -0.440445
C 1.583076 -1.815837 -1.37545
C 2.709125 -2.470525 -1.093988
C 3.429293 -2.159414 0.196796
C 2.72431 -2.815028 1.399787
O 1.621144 -1.933532 1.61677
C 1.862841 -0.75437 0.848546
O 3.23657 -0.775521 0.527716
H 0.472901 1.344826 -0.439323
H 1.973121 0.974908 -1.316832
H 0.401202 0.58492 -2.037748
H 0.000177 -1.066214 -0.150445
H 1.04354 -2.000066 -2.301563
H 3.11511 -3.235656 -1.748839
H 4.503192 -2.348847 0.150437
H 2.347734 -3.820461 1.192601
H 3.374812 -2.835674 2.284389
H 1.664185 0.12845 1.46536
