19

C -0.07612 0.173319 -0.048799
C 1.413691 -0.026419 -0.050161
C 2.317505 0.361262 1.081774
C 2.565343 0.976637 -0.268618
C 3.262874 0.011266 -1.244984
O 3.52897 0.629267 -2.46215
C 4.224904 -1.061772 -0.681873
O 3.106403 -1.927961 -0.35876
C 2.151637 -1.027493 -0.978321
H -0.345306 1.095224 0.478244
H -0.472651 0.243842 -1.068388
H -0.586552 -0.658469 0.452989
H 1.872077 1.037159 1.806037
H 2.998647 -0.363484 1.514502
H 2.525812 2.04636 -0.439083
H 3.818122 -0.043405 -3.092642
H 4.867164 -1.513725 -1.452769
H 4.833196 -0.812234 0.194846
H 1.549345 -1.501824 -1.758564
