19

C 0.461914 0.615652 -2.110765
C 1.727834 0.409774 -1.315267
C 2.31576 1.575029 -0.514799
C 3.578214 0.910763 0.096466
C 3.445051 -0.494704 -0.482196
O 4.446289 -1.420211 -0.235795
C 2.899507 -0.426228 -1.93217
O 2.143203 -1.672167 -1.749732
C 1.929308 -0.913316 -0.51126
H -0.365108 0.918613 -1.458153
H 0.595147 1.401079 -2.864026
H 0.183034 -0.311258 -2.618769
H 2.560901 2.424317 -1.160628
H 1.615541 1.935799 0.2463
H 4.512188 1.384837 -0.220265
H 3.565718 0.899315 1.193086
H 4.607393 -1.45375 0.715469
H 3.442728 -0.287182 -2.868311
H 1.303838 -1.360444 0.264154
