19

O 0.56338 0.631171 0.53953
C -0.600454 -0.034637 0.9884
C -1.728235 0.038907 -0.053122
C -2.835364 -0.754331 0.693115
C -2.827756 0.464798 1.64229
C -2.507616 1.333764 0.405063
O -1.776123 2.4731 0.790273
C -1.172097 2.152025 2.055046
C -1.373117 0.637849 2.181329
H 1.266493 0.48043 1.182705
H -0.361772 -1.082072 1.219745
H -1.453609 -0.160922 -1.088101
H -3.767931 -0.821194 0.127943
H -2.572389 -1.738011 1.090456
H -3.644816 0.694496 2.327341
H -3.334107 1.619275 -0.24697
H -0.118796 2.440677 2.021946
H -1.67523 2.708052 2.859006
H -1.157821 0.231474 3.171875
