19

C -0.532631 3.907984 -0.889349
C 0.21456 2.627448 -1.271699
C -0.674443 1.351716 -1.146133
C -0.002225 0.28172 -0.298352
C 0.795391 0.739422 0.906904
O 1.080821 2.123533 0.935664
C 1.461576 2.424187 -0.404073
O 2.183299 1.292059 -0.87541
C 1.513454 0.196089 -0.291307
H -0.842882 3.869428 0.159574
H 0.100392 4.792784 -1.025555
H -1.426349 4.035021 -1.508198
H 0.574488 2.717594 -2.3027
H -1.63507 1.615605 -0.688119
H -0.903222 0.94984 -2.138319
H -0.533733 -0.65997 -0.192845
H 0.740675 0.294951 1.891863
H 2.127038 3.291779 -0.393659
H 2.073691 -0.727521 -0.348516
