19

C 1.483507 -0.153751 0.11686
O 0.071661 -0.024457 0.006149
C -0.495437 0.693657 1.027593
C -1.897014 0.641198 1.575455
C -2.03113 2.163357 1.495007
C -0.481222 2.231925 1.278153
O 0.222353 2.449701 2.491612
C -0.111018 1.357352 3.36522
C -0.684457 0.278711 2.456141
H 1.76026 -0.674735 1.043936
H 1.812487 -0.740713 -0.743658
H 1.978475 0.826034 0.099359
H -2.669515 -0.094016 1.382747
H -2.58245 2.473127 0.602597
H -2.412651 2.705945 2.366086
H -0.095706 2.909247 0.516765
H 0.804225 1.028997 3.871059
H -0.823183 1.696492 4.130731
H -0.582694 -0.768671 2.715058
