19

O 0.95471 0.038648 -0.836435
C -0.028691 -0.001046 -0.14667
C -0.710814 -1.336455 0.211224
C -1.638903 -1.12316 1.385611
C -2.915741 -1.886432 1.830823
C -3.517815 -0.481502 2.180559
C -2.52115 0.101771 1.144995
C -1.684891 1.350868 1.18548
O -0.54472 1.182862 0.299304
H -1.264626 -1.658234 -0.680321
H 0.089624 -2.063236 0.372796
H -1.039065 -0.935737 2.287533
H -3.43963 -2.34157 0.98447
H -2.820541 -2.620701 2.633442
H -4.58351 -0.317317 2.009816
H -3.267806 -0.188542 3.204992
H -2.974772 0.013084 0.148497
H -2.188052 2.253754 0.827824
H -1.294246 1.544555 2.19245
