19

C -0.694796 0.226374 2.927235
C 0.162859 1.441339 2.688522
C -0.369822 2.576372 1.83754
O -1.154974 2.121483 0.740594
C -0.537437 1.192106 -0.114948
C 0.787285 1.556076 -0.824971
O 1.452659 0.414507 -0.248559
C 0.280667 0.034344 0.519912
C 0.500004 0.141431 2.003999
H -0.632345 -0.272077 3.887722
H -1.682175 0.219004 2.477923
H 0.814064 1.764288 3.495906
H -1.042535 3.219698 2.414733
H 0.463832 3.201379 1.481906
H -1.325706 0.864459 -0.794717
H 0.767209 1.511064 -1.920715
H 1.242428 2.504573 -0.515589
H -0.044885 -0.975352 0.239239
H 1.366378 -0.408447 2.36083
