19

O 5.050251 1.584884 1.421194
C 5.025792 0.421239 2.240091
C 3.863666 0.4183 3.237354
O 2.721774 -0.046814 2.533211
C 3.108631 -0.717218 1.328067
C 2.534803 0.034346 0.109028
C 1.077331 0.080919 0.100102
C -0.124565 0.113488 0.09722
C 4.650822 -0.760841 1.344082
H 5.089199 2.361119 1.993179
H 5.993136 0.280294 2.741752
H 4.088753 -0.246567 4.08652
H 3.648948 1.417686 3.635415
H 2.679451 -1.72571 1.352226
H 2.953408 1.046322 0.106475
H 2.889094 -0.464136 -0.803598
H -1.185774 0.137487 0.087574
H 5.001532 -1.693133 1.79591
H 5.097798 -0.666205 0.352758
