19

C 0.022931 5.719482 -0.131668
C -0.459818 4.355921 -0.572606
O -1.173262 4.190504 -1.537544
C -0.009632 3.137349 0.239929
C -1.189311 2.220837 0.595831
C -0.735487 1.17192 1.575009
C 0.40615 1.291473 2.248674
C 1.288391 2.501412 2.114345
O 0.669961 3.565772 1.408211
H 1.118079 5.743722 -0.116774
H -0.369119 6.477115 -0.811203
H -0.301017 5.915883 0.89528
H 0.686633 2.573152 -0.406455
H -2.010413 2.816602 1.018771
H -1.579259 1.769187 -0.321804
H -1.369846 0.300313 1.71219
H 0.7468 0.516024 2.929739
H 1.540629 2.907299 3.101216
H 2.242651 2.228434 1.627121
