19

C -1.24182 2.213444 -2.127089
C -0.548539 1.027345 -2.808968
O 0.748879 1.459562 -3.263914
C 0.601063 1.11083 -1.893933
C 1.467147 0.072171 -1.245347
O 1.22549 0.022428 0.157248
C -0.087976 0.404248 0.549821
C -0.304449 1.909653 0.331766
C -0.029052 2.299838 -1.134608
H -1.421682 3.082906 -2.763997
H -2.170926 1.928224 -1.625263
H -0.981596 0.176865 -3.324198
H 1.295002 -0.913401 -1.708172
H 2.529093 0.318479 -1.367281
H -0.844166 -0.194499 0.017481
H -0.156852 0.155996 1.612674
H -1.316692 2.196918 0.641229
H 0.396892 2.437151 0.98654
H 0.545652 3.226583 -1.203999
