19

C 1.258681 0.672687 -0.252569
C -0.128316 0.229458 0.099645
C -1.236734 0.983459 0.127403
C -2.476992 0.199396 0.49191
C -1.936724 -1.187425 0.812166
O -2.778694 -2.252697 0.530128
C -0.953165 -1.331092 1.935483
O -0.97419 -2.619174 2.492398
C -0.436774 -1.174218 0.50379
H 1.951529 0.514095 0.584503
H 1.651521 0.095384 -1.099509
H 1.281354 1.732421 -0.522265
H -1.263697 2.045535 -0.090394
H -3.022104 0.631625 1.340549
H -3.188788 0.137903 -0.343378
H -2.52029 -2.968147 1.132121
H -0.786616 -0.518387 2.643372
H -0.06647 -2.922915 2.616651
H 0.070009 -2.022678 0.052685
