19

C 0.030569 -0.528712 0.293816
C 1.462394 -0.163264 0.024645
C 2.636784 -0.381157 0.990825
C 3.11774 0.830957 0.186473
C 4.604261 1.219961 0.157907
O 4.771157 0.157262 -0.846538
C 3.350544 0.333081 -1.205293
C 2.151513 -0.633617 -1.325393
O 1.740235 1.314367 0.139893
H -0.28891 -0.149704 1.268211
H -0.625921 -0.108503 -0.475004
H -0.084999 -1.618265 0.284432
H 2.389621 -0.098086 2.01579
H 3.206039 -1.312108 0.946199
H 4.824112 2.20545 -0.270021
H 5.205271 1.037139 1.052631
H 3.294472 1.126354 -1.959623
H 1.554774 -0.431381 -2.218086
H 2.378275 -1.701405 -1.283632
