19

O -2.750727 -2.449641 1.268686
C -2.097457 -1.214654 1.082609
C -2.819988 -0.400981 -0.012379
C -1.933318 -1.142161 -1.053635
C -0.882411 -1.295332 0.086906
C -0.086913 -0.019036 0.258938
O 1.069204 0.000356 0.615743
C -0.880395 1.257981 -0.041996
C -2.415907 1.077403 0.091801
H -2.182187 -3.016003 1.805868
H -1.914485 -0.714418 2.045091
H -3.903594 -0.529863 -0.064126
H -2.35418 -2.110529 -1.322341
H -1.635448 -0.605689 -1.958371
H -0.234024 -2.172406 0.134807
H -0.492961 2.061922 0.588104
H -0.624212 1.529388 -1.074162
H -2.757743 1.474806 1.054447
H -2.925194 1.656046 -0.685602
