19

C -2.802912 -1.514889 1.547669
C -1.594293 -0.671229 1.166704
C -1.767022 0.482041 0.146146
C -1.690719 -0.54933 -0.995255
C -0.65899 -1.204886 -0.003026
C -0.123854 -2.609461 -0.109885
C 0.357106 -0.067127 0.023773
O 1.55247 -0.064889 -0.018582
O -0.424734 1.060533 0.122627
H -3.472534 -0.941571 2.198625
H -3.384384 -1.852869 0.685946
H -2.482949 -2.40239 2.103604
H -1.055899 -0.365675 2.070589
H -2.501823 1.281216 0.22358
H -2.592904 -1.14549 -1.129955
H -1.317567 -0.1932 -1.958113
H 0.558739 -2.824932 0.71876
H -0.934016 -3.345193 -0.094487
H 0.438826 -2.735888 -1.0406
