19

C -2.929244 2.023543 1.52903
C -2.008433 0.844297 1.288643
C -0.830537 1.098181 0.324968
C 0.061037 -0.09892 0.294594
O 1.252192 -0.254516 0.328252
C -1.107375 -1.072839 -0.036467
C -0.916958 -1.755475 -1.389188
C -2.017781 0.179322 -0.042982
O -2.946223 0.448338 -1.030617
H -2.498614 2.710722 2.264612
H -3.11073 2.575756 0.602939
H -3.896892 1.684125 1.915234
H -1.819183 0.231944 2.169916
H -0.59242 2.110203 0.020431
H -1.340412 -1.809002 0.742467
H -0.082418 -2.460588 -1.33562
H -1.819489 -2.302297 -1.680026
H -0.699966 -1.023433 -2.173073
H -3.799074 0.08139 -0.762014
