19

C 0.140052 -0.115615 -0.341457
C 1.5596 0.215809 0.03953
C 2.796535 -0.435391 -0.637915
C 3.350475 -0.204193 0.785319
O 1.997259 -0.421312 1.292838
C 3.65729 1.334599 0.944856
C 2.436492 1.993313 1.631384
C 1.880389 1.761098 0.205942
O 3.234918 1.979836 -0.299767
H -0.564569 0.318304 0.376942
H -0.090096 0.290316 -1.33232
H -0.006766 -1.199154 -0.360093
H 2.616631 -1.49673 -0.817028
H 3.26531 0.051823 -1.488207
H 4.083707 -0.87136 1.242179
H 4.685894 1.577051 1.218509
H 1.967386 1.50743 2.481959
H 2.617648 3.054195 1.807326
H 1.144626 2.426909 -0.250438
