19

C -0.138842 -0.096209 0.287919
C 1.286678 -0.515331 0.463639
O 2.243487 -0.299152 -0.647502
C 3.046953 -0.944461 0.400463
C 1.88323 -1.939585 0.668373
C 1.756251 -2.544671 2.065615
C 2.518761 -1.663359 3.060103
O 2.335738 -0.27625 2.789758
C 2.390037 0.029009 1.425152
H -0.699383 -0.285526 1.209871
H -0.197284 0.97366 0.063968
H -0.610412 -0.652716 -0.528266
H 4.096753 -1.134033 0.176077
H 1.676873 -2.624912 -0.157455
H 0.696408 -2.619454 2.339955
H 2.1676 -3.560069 2.093413
H 2.191767 -1.821182 4.091012
H 3.59345 -1.89742 3.003559
H 2.632306 1.085709 1.301577
