19

C -2.897149 2.584883 1.832788
C -2.463444 1.176029 1.559701
C -3.285808 -0.005077 1.194932
O -3.102307 -1.113998 2.052904
C -2.030414 -0.768912 2.94292
C -1.30541 0.372022 2.233114
C -0.839042 -0.080303 0.808916
O 0.201061 0.716798 0.276194
C -2.16449 0.410522 0.25662
H -3.244413 2.699612 2.866981
H -2.074626 3.290873 1.670973
H -3.721455 2.873296 1.171378
H -4.306524 0.096891 0.84418
H -2.432905 -0.459027 3.91921
H -1.407167 -1.659082 3.084639
H -0.564904 0.912929 2.823504
H -0.61111 -1.151915 0.697237
H 1.027472 0.443923 0.693849
H -2.338524 0.705226 -0.77256
