19

C -0.521124 2.291988 -0.935744
C -0.98262 1.0749 -0.137671
C -2.381305 0.511276 -0.489873
C -2.400467 -0.959124 -0.003267
C -2.890215 -1.124647 1.448739
C -0.947028 -1.408407 -0.115869
O -0.519624 -2.532724 -0.081423
C -0.064404 -0.13264 -0.270762
O 1.120892 -0.142455 -0.478355
H -0.559146 2.085869 -2.011107
H -1.157222 3.158467 -0.731357
H 0.510953 2.54448 -0.678833
H -0.970991 1.326238 0.935316
H -3.186176 1.102992 -0.044936
H -2.515174 0.546161 -1.577743
H -3.013797 -1.594728 -0.649587
H -2.795598 -2.167477 1.764007
H -2.310907 -0.505458 2.142136
H -3.940317 -0.827003 1.527579
