19

C 1.293377 0.58774 0.246567
C -0.194272 0.379678 0.206926
C -1.036122 1.209972 -0.408768
C -2.530716 0.997689 -0.415642
C -3.047108 -0.249821 -1.132632
O -3.935578 -0.189328 -1.941182
O -2.585339 -1.477866 -0.788286
C -1.355884 -1.837059 -0.136878
C -0.754211 -0.860283 0.872566
H 1.650978 0.653643 1.282623
H 1.82527 -0.255424 -0.214501
H 1.585573 1.502131 -0.276894
H -0.661854 2.093141 -0.919162
H -2.906512 0.940669 0.617403
H -3.043048 1.831954 -0.894931
H -1.596177 -2.78338 0.357523
H -0.622586 -2.043383 -0.926361
H -1.508075 -0.598703 1.627846
H 0.039202 -1.40351 1.398923
