19

C -0.102429 0.188408 -0.060241
C 1.406996 -0.058934 0.0069
O 1.654838 -0.944203 1.077515
C 2.172756 1.298726 0.106016
C 2.598763 1.573187 -1.315109
C 2.464926 0.504 -2.104265
C 1.939024 -0.641011 -1.326077
C 1.528384 -1.948257 -1.837148
O 2.801717 -1.804845 -1.187197
H -0.445299 0.603049 0.89251
H -0.347742 0.89587 -0.858894
H -0.6399 -0.747163 -0.237694
H 2.354286 -1.54591 0.771749
H 1.547527 2.094212 0.52718
H 3.040973 1.190154 0.767658
H 2.985784 2.534601 -1.634827
H 2.737137 0.434178 -3.150206
H 0.794172 -2.529006 -1.281127
H 1.580487 -2.159306 -2.904302
