19

O -2.01097 1.303712 1.13054
C -0.650146 0.961938 1.175743
C -0.150448 0.391179 -0.143894
C -1.042857 -0.521574 -0.960282
C 0.193819 -1.07024 -0.307575
C 0.271009 1.957954 1.964416
C 1.225717 0.792939 2.308673
C -0.233501 0.334744 2.540575
O -0.49422 1.639831 3.188294
H -2.227488 1.504992 0.21281
H 0.459231 1.082573 -0.720328
H -1.999056 -0.796385 -0.529725
H -1.051739 -0.399872 -2.03801
H 0.060971 -1.715188 0.553967
H 1.042795 -1.330292 -0.930686
H 0.491122 3.007663 1.763559
H 1.818264 0.32851 1.519335
H 1.783369 0.945819 3.232143
H -0.618332 -0.556762 3.037099
