19

C 0.615728 1.35977 -0.300899
C 1.419878 0.095965 -0.022831
C -0.071068 0.080647 0.029697
O -0.803015 -0.127197 1.243564
C -1.772933 -0.959661 0.55386
C -3.134903 -0.294782 0.384197
C -2.889748 0.668972 -0.790134
O -1.942182 0.004848 -1.632951
C -1.064134 -0.725262 -0.804685
H 0.621358 2.129575 0.463855
H 0.54287 1.725359 -1.319718
H 1.912999 -0.404961 -0.85007
H 1.947102 0.042782 0.923703
H -1.804311 -1.967219 0.975564
H -3.878931 -1.051797 0.113182
H -3.460964 0.210877 1.296247
H -3.777445 0.87184 -1.393714
H -2.479284 1.622052 -0.431519
H -0.666117 -1.564876 -1.376228
