19

C 1.422888 1.37033 -3.3755
C 0.528642 0.51244 -2.513143
C -0.223082 -0.759051 -3.031616
C -0.337259 -1.023252 -1.517009
O -1.176782 0.045477 -1.047227
C -0.627383 1.180598 -1.752831
C 1.100736 -0.44477 -1.379782
C 1.562228 0.110784 -0.064858
O 2.718961 0.112725 0.289657
H 1.911155 2.151934 -2.782571
H 2.204794 0.76911 -3.849483
H 0.843616 1.859226 -4.167521
H -1.156341 -0.612369 -3.58209
H 0.437069 -1.456351 -3.550655
H -0.655399 -1.963876 -1.071346
H -1.381666 1.60944 -2.423815
H -0.309301 1.950056 -1.040023
H 1.875267 -1.095289 -1.791858
H 0.765686 0.526561 0.587452
