19

C 1.551474 0.054188 -0.013889
C 0.093762 0.047243 0.019868
C -1.111092 0.043539 0.045572
C -2.557906 0.023441 0.07405
C -3.320429 -0.040859 -1.278972
O -4.038978 -1.224055 -0.873851
C -3.277209 -1.327246 0.356128
C -4.217442 -1.400475 1.544028
O -5.083579 -2.510209 1.419369
H 1.959289 0.847411 0.622907
H 1.959297 -0.900066 0.338606
H 1.9219 0.218752 -1.032009
H -2.942974 0.819682 0.720855
H -3.992924 0.796171 -1.494642
H -2.676408 -0.232721 -2.14405
H -2.614679 -2.200545 0.329351
H -3.652529 -1.535078 2.473326
H -4.782872 -0.456156 1.617833
H -5.483482 -2.439965 0.54085
