19

O 1.097527 -0.000609 -0.538921
C -0.059924 -0.003799 -0.185248
C -0.850431 -1.288996 0.041624
C -2.284159 -1.138291 -0.511672
C -2.305281 -0.790829 -2.017806
C -2.310224 0.764536 -2.019771
C -2.29123 1.115915 -0.514508
C -0.858487 1.276965 0.038483
O -2.89791 -0.012311 0.118342
H -0.310578 -2.124952 -0.411692
H -0.919751 -1.464937 1.122554
H -2.885317 -2.016691 -0.265168
H -1.447646 -1.211538 -2.548791
H -3.210967 -1.183451 -2.48535
H -1.455339 1.189373 -2.551887
H -3.218439 1.150225 -2.488216
H -2.89785 1.991162 -0.270242
H -0.323845 2.115207 -0.416767
H -0.929049 1.455002 1.118978
