19

C 2.290603 1.827345 -1.231723
C 1.604363 0.663979 -0.499957
C 1.961105 -0.682653 -1.09933
C 1.431824 -1.054011 -2.511073
O 0.981835 -2.35217 -2.067778
C 1.400404 -2.096988 -0.71497
C 2.82362 -2.631725 -0.427223
C 3.370725 -1.25551 -0.858857
O 4.468896 -0.774829 -0.906916
H 2.030058 2.783289 -0.767273
H 3.377912 1.711633 -1.204987
H 1.979643 1.870674 -2.281633
H 1.891137 0.677463 0.5592
H 0.513788 0.788487 -0.531746
H 0.587045 -0.42876 -2.828542
H 2.163103 -1.11465 -3.325095
H 0.613183 -2.278297 0.019643
H 3.024401 -2.824536 0.632859
H 3.137946 -3.495119 -1.018099
