19

O 1.028686 0.216968 -0.410979
C 0.60753 0.227294 0.952035
C -0.852997 0.540926 1.08411
C -1.405009 1.539012 1.7899
C -2.910573 1.591043 1.636532
O -3.354037 2.790846 1.00537
C -3.222522 0.336774 0.814184
C -2.837377 -1.000502 1.383313
C -1.900041 -0.294171 0.42108
H 0.856788 1.096799 -0.769908
H 0.817973 -0.784621 1.317499
H 1.203715 0.931652 1.55041
H -0.864984 2.249722 2.406698
H -3.431946 1.588337 2.600527
H -2.83148 2.893844 0.198828
H -4.059994 0.392632 0.127909
H -2.539012 -1.062228 2.425374
H -3.377453 -1.866541 1.014476
H -1.705778 -0.730046 -0.551417
