19

C -0.122793 0.409367 -0.004347
C 1.375587 0.144972 -0.112224
C 1.913386 -0.117787 -1.535556
O 1.485692 1.09499 -2.177771
C 2.356217 1.97443 -1.443452
C 3.696032 1.489494 -2.023024
C 3.496685 0.124483 -1.343589
O 3.594129 0.559657 0.025176
C 2.373386 1.318445 0.031257
H -0.377105 0.747916 1.006224
H -0.452466 1.165987 -0.718479
H -0.690657 -0.508398 -0.195188
H 1.680785 -0.62299 0.603367
H 1.585077 -0.992398 -2.095381
H 2.048261 3.012625 -1.549426
H 3.662299 1.508269 -3.113389
H 4.598821 1.968492 -1.642643
H 4.178118 -0.700231 -1.543276
H 2.322226 1.980297 0.894603
