19

C 1.718464 -0.623819 -0.697425
C 2.723425 0.099899 -1.610007
C 2.99956 1.073608 -0.408846
C 1.471661 0.863767 -0.267648
O 0.576865 1.252895 0.719458
C -0.699016 1.487388 0.061407
C -0.507871 1.271802 -1.472785
C 1.001192 1.49261 -1.575591
O 1.851354 0.828937 -2.517114
H 0.918781 -1.184131 -1.18443
H 2.18305 -1.203695 0.102367
H 3.514611 -0.393846 -2.168701
H 3.601354 0.597536 0.367267
H 3.358416 2.080693 -0.63301
H -1.442815 0.805176 0.48449
H -1.002882 2.514227 0.291669
H -0.779493 0.256021 -1.768315
H -1.107086 1.974285 -2.055414
H 1.21194 2.570445 -1.599342
