19

C -0.685231 -1.480989 -2.593553
C -1.626107 -1.376354 -1.393233
C -2.566177 -0.127268 -1.375915
C -2.306481 0.447096 0.036292
C -0.95268 1.18007 0.073177
C -0.002803 -0.025191 -0.042396
O 1.194832 -0.018705 -0.160691
C -0.948848 -1.232979 0.000829
O -2.015048 -0.733009 0.816072
H -0.02565 -2.350982 -2.503649
H -1.258378 -1.588657 -3.520033
H -0.050695 -0.593704 -2.69127
H -2.241109 -2.280174 -1.340619
H -2.317302 0.589996 -2.163899
H -3.613226 -0.413891 -1.49528
H -3.14031 0.979577 0.492647
H -0.774427 1.903826 -0.726396
H -0.802125 1.678776 1.036262
H -0.517253 -2.139358 0.423103
