19

C 4.728016 0.345894 0.05463
C 3.263384 0.086969 -0.103415
O 2.306067 0.878685 0.683616
C 1.448338 -0.031197 -0.090395
C -0.035141 0.036591 0.087961
C 2.438829 -1.219469 0.142592
C 2.481382 -2.026835 -1.14276
O 2.406094 -0.977102 -2.137864
C 2.336116 0.187838 -1.351262
H 5.05005 0.14435 1.081513
H 5.298804 -0.297704 -0.622583
H 4.959288 1.388818 -0.183996
H -0.315003 -0.203337 1.118795
H -0.402534 1.040696 -0.147169
H -0.527473 -0.675912 -0.58202
H 2.477801 -1.712834 1.113285
H 3.409947 -2.594951 -1.278071
H 1.631166 -2.70969 -1.264786
H 2.27245 1.094261 -1.951101
