19

C 1.058432 -0.402249 0.995977
C 0.888795 0.029307 -0.457667
C 1.481191 1.436 -0.790127
O 1.580444 2.409052 0.218947
C 2.765099 0.757433 -1.330431
C 1.967424 -0.584396 -1.437245
O 2.621324 -1.775548 -1.050493
C 1.421756 -0.796584 -2.77164
C 0.94969 -0.928509 -3.869241
H 0.808574 -1.460264 1.117706
H 2.084514 -0.262054 1.364551
H 0.40004 0.183287 1.64448
H -0.145414 -0.129765 -0.770774
H 0.918663 1.913013 -1.595205
H 2.087599 2.040998 0.952904
H 3.227254 1.149861 -2.236536
H 3.529851 0.675109 -0.547723
H 3.001792 -1.631639 -0.175173
H 0.534124 -1.063884 -4.83693
