19

O -0.225692 -0.041978 -0.164947
C -0.491469 0.836581 0.914167
C -1.811723 1.58938 0.619765
C -2.533253 0.597764 1.56065
C -1.176543 0.140506 2.127205
C -3.818482 0.806377 2.389946
C -4.665296 0.69842 1.100388
C -3.602578 -0.423871 1.108616
O -3.912874 -0.668249 2.539448
H 0.454711 -0.665418 0.119411
H 0.383659 1.458492 1.14322
H -1.803701 2.611853 1.00877
H -2.105148 1.602457 -0.432132
H -0.933186 0.625431 3.07772
H -1.015982 -0.936017 2.22375
H -3.979607 1.413969 3.281908
H -5.691612 0.361441 1.252005
H -4.57893 1.49123 0.352509
H -3.496154 -1.29216 0.457681
