19

C 0.812419 -0.392071 0.845342
C 1.271952 0.066778 -0.539757
C 2.135528 1.355287 -0.527436
C 2.576592 1.724335 -1.958528
O 3.282892 1.187449 0.311231
C 1.366727 2.468247 0.036118
C 0.688456 3.382946 0.44072
C -0.078745 4.477808 0.974869
O -1.130628 4.865623 0.515562
H 0.277861 -1.344021 0.773953
H 1.66864 -0.52311 1.512253
H 0.139025 0.342307 1.298426
H 1.881872 -0.715471 -1.013884
H 0.410267 0.232434 -1.196242
H 3.149215 0.892851 -2.38616
H 1.712862 1.914384 -2.600982
H 3.20916 2.614749 -1.935949
H 3.821798 0.48692 -0.08098
H 0.375724 4.956465 1.865824
