19

O -4.460012 3.413221 -1.646262
C -3.904261 2.545049 -1.024135
C -2.515553 2.636933 -0.437171
C -2.509591 2.367464 1.096717
C -1.307188 1.423749 1.373949
C -0.486468 1.396051 0.063991
C -1.568434 1.564346 -1.022726
C 0.296195 0.115033 -0.095792
O 1.490037 0.037828 -0.23387
H -4.408996 1.566312 -0.82761
H -2.127791 3.635528 -0.657357
H -2.42344 3.309161 1.642864
H -3.447513 1.901909 1.419584
H -0.704184 1.747628 2.225593
H -1.665731 0.412647 1.601891
H 0.219616 2.231778 0.027091
H -1.161813 1.848952 -1.995735
H -2.109548 0.615124 -1.151265
H -0.340475 -0.804401 -0.076968
