19

C 1.265703 0.721761 -1.143449
C -0.016435 0.208894 -0.565936
C -1.14901 0.896444 -0.368424
C -2.187332 0.062984 0.303034
O -3.516437 0.085702 -0.137181
C -1.863882 -0.420977 1.709752
C -1.550287 -1.291224 0.507387
O -2.301156 -2.445418 0.305566
C -0.151938 -1.232756 -0.093395
H 2.084099 0.660498 -0.41368
H 1.572772 0.121053 -2.009399
H 1.172157 1.763469 -1.462671
H -1.305637 1.938685 -0.62489
H -4.040608 0.618596 0.472975
H -1.070699 0.074482 2.260728
H -2.701268 -0.775488 2.303955
H -3.147038 -2.156257 -0.071223
H 0.629611 -1.498765 0.629809
H -0.068706 -1.940523 -0.928579
