19

C -0.125741 1.411906 0.099806
C -0.038388 -0.060558 -0.134125
C -0.996867 -0.944411 -0.402481
C -2.403546 -1.275536 0.052019
C -1.71978 -2.489286 0.809619
O -1.315776 -2.180498 2.117698
C -0.496049 -2.330362 -0.186194
O 0.846413 -2.233563 0.22157
C 1.238265 -0.853296 0.122484
H 0.466852 1.971281 -0.635955
H -1.15967 1.761842 0.030557
H 0.267081 1.678477 1.089858
H -2.914112 -0.53686 0.67639
H -3.077882 -1.61642 -0.740162
H -2.260601 -3.444386 0.756977
H -2.108107 -2.06973 2.657423
H -0.595103 -3.046542 -1.01428
H 2.004423 -0.749542 -0.662975
H 1.694058 -0.540404 1.073521
