19

O 0.40844 -0.281965 0.229287
C -0.583546 0.595395 0.673865
C -2.031476 0.170039 0.617051
O -2.904467 0.842198 1.49354
C -3.201708 2.121958 0.945289
C -4.342324 2.188719 -0.112333
C -3.338298 2.792875 -1.134766
C -2.163303 2.469887 -0.166177
C -1.483999 1.132393 -0.409195
H 0.55914 -0.938534 0.921595
H -0.306265 1.267506 1.488604
H -2.299586 -0.856979 0.391022
H -3.304086 2.825185 1.774923
H -4.695675 1.191033 -0.381119
H -5.204212 2.806613 0.148816
H -3.293197 2.31687 -2.117369
H -3.472271 3.867587 -1.278952
H -1.454706 3.279413 0.030103
H -1.2775 0.803726 -1.421764
