19

C 1.293049 -0.536527 0.387807
O -0.088145 -0.400946 0.683011
C -0.455665 0.898819 1.098562
O 0.14292 1.252976 2.331788
C -0.475604 0.830472 3.515237
C -1.058417 -0.531216 3.709661
C -1.98084 0.688399 3.552605
C -2.6481 0.90084 2.254486
C -1.954857 0.982982 1.117422
H 1.914231 -0.352524 1.271827
H 1.441025 -1.562645 0.044163
H 1.59499 0.159102 -0.410101
H -0.032038 1.628043 0.390532
H 0.022891 1.303331 4.353949
H -1.032447 -1.219752 2.874395
H -0.976795 -0.97872 4.694673
H -2.513251 1.024137 4.436255
H -3.730341 1.000582 2.248137
H -2.442253 1.125537 0.159372
