19

C -0.003919 -0.023901 -0.136072
C 1.492917 -0.030277 0.033275
C 2.153732 -0.733717 1.251562
C 3.044973 0.515749 1.431243
O 2.456514 1.535231 2.283112
C 2.096904 2.364133 1.144395
C 2.414439 1.217143 0.204456
C 2.861538 0.96662 -1.220765
O 2.194084 -0.322761 -1.21488
H -0.498153 0.29142 0.788968
H -0.30469 0.648268 -0.946006
H -0.355711 -1.032414 -0.382092
H 1.494799 -0.920493 2.103419
H 2.683681 -1.649682 0.978433
H 4.119145 0.403013 1.607271
H 1.057857 2.710761 1.192808
H 2.765118 3.232601 1.059825
H 2.422021 1.638238 -1.9717
H 3.938885 0.877659 -1.403652
