19

C 1.564733 -0.208887 0.202847
O 0.183127 0.051225 0.083427
C -0.332549 0.898771 1.089887
C -0.070535 2.403313 0.834742
O -1.253553 2.921995 0.246214
C -2.326642 2.284086 0.911328
C -1.887165 0.802542 1.036571
C -2.498976 0.096434 2.149254
C -3.018324 -0.462481 3.079166
H 1.803655 -0.660102 1.178652
H 1.824938 -0.913248 -0.59101
H 2.171751 0.700759 0.08139
H 0.055675 0.589023 2.069493
H 0.141278 2.918635 1.785876
H 0.757723 2.575527 0.142895
H -2.490927 2.717935 1.91023
H -3.229572 2.414453 0.311959
H -2.115507 0.286144 0.098093
H -3.47477 -0.960013 3.898416
