19

C -2.966961 -2.797201 1.477722
C -3.19951 -1.502524 0.728433
C -3.05623 -1.429701 -0.774768
C -2.062722 -0.729203 0.119717
C -2.019793 0.792644 0.186726
O -0.730356 1.170983 -0.322896
C 0.125569 0.110068 -0.337689
O 1.262886 0.209764 -0.696561
C -0.602604 -1.135635 0.167486
H -2.661867 -2.610082 2.513488
H -3.881022 -3.400753 1.502569
H -2.184742 -3.396555 1.000525
H -3.994866 -0.886357 1.146389
H -2.722052 -2.323535 -1.292864
H -3.76146 -0.823986 -1.33542
H -2.780254 1.2796 -0.429788
H -2.103669 1.166802 1.215521
H -0.337694 -1.993272 -0.452616
H -0.251973 -1.339806 1.187396
