19

O 1.116532 0.492911 -0.682002
C -0.051347 0.037853 -0.026982
C -1.190948 -0.288654 -1.015784
C -2.457415 -0.744423 -0.335028
C -3.515983 0.004702 -0.64244
C -3.183502 1.100984 -1.620837
C -1.671059 0.937017 -1.820469
C -0.96201 1.442194 -2.997983
O -0.881219 2.148214 -1.748127
H 0.883831 1.367892 -1.027218
H 0.224606 -0.873497 0.514876
H -0.410847 0.770407 0.71135
H -0.805999 -1.058104 -1.699484
H -2.469788 -1.594371 0.339243
H -4.51892 -0.144269 -0.259083
H -3.736258 0.993196 -2.563468
H -3.406739 2.105508 -1.240425
H -0.037731 0.958365 -3.309261
H -1.511503 1.962884 -3.780758
