19

C -3.753842 -1.044656 1.662267
C -2.861829 -1.351002 0.458141
O -1.726107 -0.498668 0.556392
C -0.699989 -0.776248 -0.372454
C 0.437697 0.23658 -0.245578
C 0.163847 1.504251 0.531964
O 1.495829 0.004501 -0.784178
C -3.575934 -1.166438 -0.814236
C -4.164939 -1.006356 -1.850645
H -4.634021 -1.691746 1.656465
H -3.188724 -1.210785 2.583305
H -4.080234 -0.002484 1.627734
H -2.525726 -2.400151 0.514252
H -0.284094 -1.785232 -0.22652
H -1.078926 -0.72275 -1.405996
H -0.098439 1.258137 1.566044
H 1.046811 2.144674 0.502989
H -0.703016 2.024716 0.110218
H -4.681973 -0.868331 -2.768245
