19

C 0.284792 0.133852 -0.398388
C 1.040899 -0.226076 0.863932
O 2.478001 -0.3652 0.648815
C 2.770287 0.712586 1.54347
C 3.984218 0.746798 2.41092
C 3.814753 1.741993 1.271591
C 1.313391 0.903553 1.862163
C 0.605853 1.339024 3.059722
O 0.645925 2.149669 1.869018
H 0.385442 -0.668801 -1.135948
H -0.778782 0.271601 -0.176158
H 0.672406 1.06089 -0.828805
H 0.642061 -1.141112 1.320393
H 3.885229 1.096418 3.433669
H 4.702153 -0.05456 2.270891
H 3.576549 2.773841 1.507419
H 4.425792 1.59847 0.386863
H -0.367285 0.913161 3.299582
H 1.164888 1.733883 3.90675
