19

C -0.722722 -2.495039 -0.240147
C -0.938467 -1.023722 0.004084
C -1.634027 -0.0323 -1.002838
C -0.951875 1.066621 -0.128056
C -0.805205 2.514809 -0.484203
O -1.599038 0.88137 1.148249
C -1.615066 -0.559588 1.306845
C 0.195239 0.029837 -0.046803
O 1.383486 0.010464 -0.187035
H -0.133675 -2.938862 0.570287
H -1.674881 -3.033626 -0.299208
H -0.17738 -2.657909 -1.175039
H -1.240022 -0.099864 -2.019726
H -2.727137 -0.019174 -0.990985
H -0.233584 3.035797 0.289668
H -0.274256 2.616476 -1.434947
H -1.784952 2.994329 -0.571781
H -1.053664 -0.846785 2.204335
H -2.650312 -0.910055 1.40366
