19

C -0.057344 2.570948 1.860941
C 0.618683 1.2546 2.305344
C 0.875522 0.553713 0.989066
C 1.753106 -0.661704 0.782473
C 1.381087 -1.106506 -0.649525
O 0.059956 -0.620768 -0.915146
C -0.206259 0.469829 -0.07123
C 0.763971 1.624233 -0.08029
O 0.35888 2.829584 0.515091
H -1.151355 2.475019 1.896708
H 0.228781 3.433946 2.468823
H 1.570616 1.449556 2.813215
H -0.019259 0.6868 2.991244
H 2.825111 -0.454744 0.872636
H 1.494695 -1.433507 1.517263
H 2.084124 -0.683121 -1.379688
H 1.367658 -2.192513 -0.78001
H -1.268226 0.612994 0.103922
H 1.468533 1.775819 -0.892254
