19

O 1.907881 -1.661319 2.438691
C 0.975345 -0.934281 1.644866
C 0.919632 -1.634571 0.284227
C 0.011615 -0.902207 -0.721287
C 0.080125 0.614545 -0.558574
O -0.744864 1.070618 0.568177
C 0.411927 1.617606 1.204964
C 1.338137 1.188251 0.104957
C 1.408243 0.527169 1.473836
H 1.888654 -1.292989 3.3303
H -0.021884 -0.962631 2.109514
H 1.9472 -1.662857 -0.097624
H 0.596409 -2.67061 0.418017
H 0.293454 -1.178782 -1.743697
H -1.037145 -1.195015 -0.590841
H -0.232712 1.145859 -1.462309
H 0.299772 2.53854 1.764842
H 2.163163 1.688083 -0.382749
H 2.273446 0.821501 2.063001
