19

C 1.240965 -0.092098 -0.183722
O -0.133718 0.122431 0.048208
C -0.405175 0.723886 1.289428
C -0.132441 2.211851 1.533621
C -1.331536 2.993781 0.99328
C -1.409061 2.322063 2.339716
C -1.888524 1.043206 1.546883
C -2.288804 1.987454 0.374187
O -3.61005 2.482375 0.478004
H 1.684928 -0.73322 0.594862
H 1.331782 -0.592431 -1.151069
H 1.800743 0.854359 -0.216794
H 0.028818 0.125396 2.106554
H 0.81162 2.702439 1.732483
H -1.263222 4.051292 0.774309
H -1.594075 2.694188 3.33463
H -2.580342 0.276869 1.892523
H -2.076452 1.624324 -0.639108
H -4.209296 1.774483 0.210694
