19

C 1.088888 -0.450268 1.034521
C 1.108313 0.243397 -0.312199
C 1.916549 -0.258369 -1.457346
C 2.287108 1.083108 -0.815151
C 3.551719 1.117013 -0.046139
O 4.271005 2.087682 0.029085
C 2.002402 2.345214 -1.580617
C 1.071214 3.369327 -1.100393
O 0.700293 2.471027 -2.155492
H 0.288074 -1.198073 1.051281
H 2.026535 -0.970795 1.248941
H 0.902396 0.259224 1.84748
H 0.161224 0.690384 -0.602475
H 2.594787 -1.088892 -1.284828
H 1.499505 -0.207283 -2.456419
H 3.827507 0.1654 0.459303
H 2.813699 2.666676 -2.232899
H 0.548249 3.215424 -0.158259
H 1.205893 4.406314 -1.400783
