19

C 1.41219 -0.184529 -0.066355
O 0.046674 0.175055 -0.081115
C -0.410835 0.736758 1.13928
C -1.917387 0.676027 1.181935
C -2.484605 1.882852 1.225078
C -1.47721 2.99407 1.248658
C -1.051734 3.50111 2.651514
O 0.11202 2.649701 2.648519
C -0.119239 2.246987 1.279746
H 1.620294 -0.933787 0.713279
H 1.639332 -0.613608 -1.045545
H 2.06894 0.681915 0.101929
H 0.047125 0.206585 1.990799
H -2.444791 -0.270761 1.164502
H -3.553879 2.065896 1.26275
H -1.645983 3.770403 0.498577
H -0.77265 4.562201 2.68246
H -1.72834 3.27437 3.483441
H 0.677558 2.585595 0.608327
