19

O 1.855393 2.484165 -0.770506
C 2.409492 1.212405 -0.791894
C 3.75601 1.013593 -1.486317
C 2.511091 0.512671 -2.136724
C 2.184671 -0.936559 -2.538384
C 1.852876 -0.410266 -3.966082
C 1.89719 1.053574 -3.433691
C 2.133367 0.420536 0.416522
O 1.464208 0.863242 1.329168
H 1.406379 2.541818 0.091671
H 4.203349 1.926229 -1.865581
H 4.449866 0.295343 -1.057821
H 3.005779 -1.654738 -2.460058
H 1.311634 -1.344931 -2.020838
H 2.650963 -0.61925 -4.682421
H 0.905235 -0.74135 -4.394603
H 2.502898 1.766855 -3.997407
H 0.907648 1.488 -3.270724
H 2.57032 -0.597056 0.449732
