19

C -0.063986 0.015656 -0.135317
C 1.431052 0.050017 0.041292
C 2.257887 -0.902698 0.8806
C 3.202206 -0.069 1.73129
O 2.913004 1.301605 1.433163
C 2.224555 1.367482 0.189131
C 3.203915 1.296616 -0.989903
O 3.536713 -0.092989 -1.114051
C 2.443178 -0.832382 -0.623807
H -0.574722 0.464632 0.724581
H -0.374452 0.560943 -1.034561
H -0.42043 -1.014996 -0.234188
H 1.808775 -1.795497 1.303241
H 3.030911 -0.22499 2.802167
H 4.255049 -0.285843 1.505997
H 1.609593 2.271226 0.188658
H 2.729337 1.655111 -1.916816
H 4.123746 1.857034 -0.807572
H 2.174328 -1.682219 -1.243975
