19

C -2.537022 -2.12576 1.356283
C -1.811934 -1.259906 0.328647
C -0.281939 -1.124229 0.479939
O 0.490865 -1.945816 -0.384578
C 0.008125 0.331933 0.163907
C 1.413078 0.802666 -0.008336
C -1.121618 1.055132 0.106659
C -2.305146 0.19967 0.310333
O -3.457549 0.550762 0.446449
H -2.258347 -3.18139 1.262642
H -2.304427 -1.801832 2.377154
H -3.618391 -2.039003 1.216743
H -1.989629 -1.652556 -0.681979
H 0.006713 -1.315038 1.528752
H 0.388322 -2.861925 -0.100008
H 1.999126 0.607875 0.899731
H 1.897605 0.243835 -0.816099
H 1.455664 1.871587 -0.230943
H -1.193908 2.125203 -0.047788
