19

C -0.247438 0.863809 -0.802741
O 0.338451 -0.077435 0.09652
C 1.712817 0.27813 0.152985
C 2.496484 -0.100101 1.390154
C 3.936805 0.457581 1.192657
C 4.031083 1.738741 0.382943
C 2.999643 2.354918 -0.20059
C 1.635231 1.786197 0.020387
O 0.681678 1.920929 -1.028463
H -0.468741 0.403189 -1.774911
H -1.17174 1.235448 -0.33861
H 2.231107 -0.115604 -0.737502
H 2.026367 0.344137 2.274536
H 2.527443 -1.182902 1.542436
H 4.409054 0.611288 2.171164
H 4.556977 -0.300407 0.692437
H 5.032624 2.150778 0.279568
H 3.118724 3.269636 -0.771772
H 1.200461 2.203817 0.946621
