19

C 1.353097 0.715577 -0.488088
C 0.038235 0.133477 -0.077592
C -0.258316 -1.144331 0.181761
C -1.686728 -1.325765 0.543006
C -2.452063 -2.549238 0.251611
O -2.01942 -2.262404 1.582387
C -2.282084 0.080734 0.619975
C -1.200361 1.011594 0.015358
O -1.548205 1.556467 -1.259229
H 1.715438 1.425076 0.267867
H 2.114278 -0.056796 -0.628173
H 1.244112 1.281134 -1.420748
H 0.433744 -1.979176 0.146117
H -3.526562 -2.477469 0.082996
H -1.961849 -3.39706 -0.226796
H -3.22835 0.189165 0.084292
H -2.462932 0.322061 1.671502
H -1.031195 1.898405 0.635737
H -1.635128 0.816257 -1.875282
