19

C -0.970934 2.122017 -1.230005
C -1.075121 1.134427 -0.072697
C 0.037114 0.071271 0.059852
O 1.234488 0.134143 0.071611
C -0.967988 -1.098993 0.114781
C -1.042306 -1.863916 1.437295
C -2.067428 -0.043319 -0.137211
C -3.317253 -0.174154 -0.881729
O -3.307925 -0.048219 0.54968
H -0.904922 1.598565 -2.189472
H -1.84139 2.785635 -1.261023
H -0.073729 2.738323 -1.118124
H -1.18964 1.668929 0.880481
H -0.82361 -1.794761 -0.720852
H -1.890785 -2.55457 1.43155
H -0.123269 -2.436025 1.594125
H -1.17386 -1.180958 2.282076
H -3.724576 0.681261 -1.418897
H -3.619967 -1.149425 -1.261023
