19

O 1.46767 0.649808 -0.519723
C 0.146394 0.383525 -0.06
C -0.833488 0.344395 -1.191498
C -1.559954 1.5864 -1.734943
C -1.999315 1.293489 -3.169238
C -2.265938 -0.153857 -2.678226
C -2.347097 0.414597 -1.202701
C -0.862477 -0.702638 -2.294523
O 0.190792 -0.768303 -3.23448
H 1.638582 0.035972 -1.247283
H 0.112551 -0.57025 0.493516
H -0.097775 1.184539 0.647256
H -1.402024 2.549485 -1.266064
H -2.931071 1.81058 -3.41242
H -1.288752 1.436241 -3.995139
H -2.998729 -0.788579 -3.171891
H -3.06724 0.307949 -0.405003
H -0.941026 -1.709481 -1.872831
H 0.322304 0.116817 -3.597739
