19

C 1.502278 -0.046868 0.114373
O 0.093299 -0.033866 0.094826
C -0.465948 0.649286 1.195955
C -1.974766 0.572657 1.087246
C -2.560188 -0.817761 1.001935
O -2.656062 1.48634 1.95054
C -2.731472 1.72052 0.530616
C -2.110452 2.909648 0.011001
C -1.626914 3.907452 -0.455348
H 1.888915 -0.545658 1.01748
H 1.83253 -0.600108 -0.768306
H 1.916334 0.972493 0.076194
H -0.151024 0.178353 2.144122
H -0.145501 1.700633 1.218113
H -2.306406 -1.386432 1.904385
H -3.649234 -0.77428 0.917319
H -2.146657 -1.346479 0.139389
H -3.711013 1.501806 0.104626
H -1.194959 4.788373 -0.861637
