19

O 0.200515 -0.375444 -0.157593
C -0.722419 0.418806 0.581203
C -2.074888 0.374587 -0.182813
C -2.899847 -0.631308 0.620172
C -3.378296 -0.218031 2.050843
C -2.210454 0.632164 2.589405
C -1.074679 -0.212525 1.936039
C -1.960495 -1.443667 1.539525
O -3.003831 -1.540458 2.539472
H 1.01125 -0.450902 0.361374
H -0.341819 1.444691 0.693322
H -2.547536 1.359936 -0.236976
H -1.894065 0.03419 -1.205107
H -3.64302 -1.217823 0.081627
H -4.403232 0.070803 2.286398
H -2.216869 1.675281 2.257538
H -2.193175 0.604852 3.680651
H -0.215615 -0.415468 2.579095
H -1.484624 -2.387042 1.279703
