19

C 0.525434 0.779447 -0.013572
C 0.984886 -0.697087 0.062838
C 1.853205 -0.879577 1.310645
O 1.491563 -1.444762 2.308901
C 1.745407 -1.096194 -1.117729
C 2.410126 -1.417871 -2.070804
C 3.203223 -1.83608 -3.221262
C 3.679069 -3.288818 -3.106534
O 4.427301 -3.569258 -4.27741
H -0.069013 1.035952 0.868521
H 1.388423 1.450214 -0.06778
H -0.082116 0.932606 -0.909112
H 0.1083 -1.341855 0.193477
H 2.864327 -0.42229 1.227944
H 2.618085 -1.733837 -4.143586
H 4.081801 -1.189333 -3.335008
H 4.288516 -3.403886 -2.197593
H 2.807253 -3.953028 -3.012029
H 4.738611 -4.480003 -4.227066
