19

C 2.090741 -2.388232 1.965414
C 0.624233 -2.341557 1.681148
O -0.110223 -3.584092 1.705602
C -0.569613 -2.508265 2.533117
C -1.41282 -1.577822 1.645763
C -0.15815 -1.419233 0.751328
C -0.060866 -1.329213 -0.748633
C 0.319571 -0.151311 0.096024
O 1.680436 0.181883 0.099259
H 2.289451 -3.113178 2.759875
H 2.651028 -2.686517 1.072585
H 2.463079 -1.407207 2.274211
H -0.660375 -2.700031 3.596758
H -2.288955 -2.047147 1.190045
H -1.705204 -0.646294 2.140532
H 0.754498 -1.861853 -1.227256
H -0.97738 -1.280311 -1.327134
H -0.360525 0.70225 0.112524
H 1.878893 0.631472 0.930406
