19

C 1.828344 1.448008 0.810891
C 1.565951 -0.02836 0.545776
C 2.447854 -1.055106 1.352661
C 2.699258 -1.775807 0.042492
O 3.796029 -2.589093 -0.336925
C 2.944665 -3.345089 -1.251649
C 1.679808 -2.609626 -0.749475
O 1.240017 -1.483869 -1.534712
C 2.128708 -0.607933 -0.796798
H 1.55524 1.717319 1.837044
H 2.889495 1.688911 0.675929
H 1.249948 2.079394 0.128162
H 0.499332 -0.253915 0.629068
H 3.357977 -0.577763 1.73174
H 1.978596 -1.618709 2.163085
H 3.188797 -3.154353 -2.301716
H 2.99727 -4.417536 -1.033602
H 0.858898 -3.207876 -0.348467
H 2.694274 0.073443 -1.436762
