19

C -0.476299 -0.571179 1.119385
C -0.353592 0.712363 0.325188
O -1.306159 1.39056 0.014472
C 1.066168 1.092591 -0.114671
C 1.349058 0.450844 -1.480136
O 2.052693 -0.535085 -1.572805
C 0.698348 1.092318 -2.652596
C 1.524313 1.193261 -3.932283
C 0.403136 0.218314 -3.861491
H -0.016096 -0.437733 2.105859
H -1.526505 -0.839476 1.239322
H 0.074737 -1.375492 0.618976
H 1.112355 2.181709 -0.198309
H 1.812579 0.720996 0.590244
H 0.009785 1.898667 -2.430841
H 1.40551 2.095985 -4.52038
H 2.533449 0.803108 -3.871567
H -0.512261 0.428136 -4.402562
H 0.658152 -0.829447 -3.753606
