19

C -0.389005 0.54014 -0.965148
C 0.987123 0.134006 -0.455431
C 0.917382 -0.562497 0.893516
O 1.635543 -0.715484 -1.482496
C 2.581562 0.290567 -1.780435
C 3.463875 0.59071 -0.637939
C 2.064354 1.216951 -0.662205
C 1.891076 2.670592 -0.646607
O 0.902758 3.252863 -0.256059
H -0.850643 1.261397 -0.286655
H -0.314675 0.997551 -1.954946
H -1.022033 -0.349858 -1.039324
H 0.300188 -1.463347 0.81503
H 1.906451 -0.856777 1.250962
H 0.461414 0.104914 1.632116
H 2.800573 0.504342 -2.821064
H 3.695027 -0.179465 0.090243
H 4.25878 1.307328 -0.825934
H 2.774599 3.235359 -1.027323
