19

C 0.258713 0.545692 0.249107
C 0.726924 -0.737534 -0.420395
O 2.032563 -0.546893 -1.036334
C 2.800382 -1.582824 -0.480871
C 1.963116 -2.878299 -0.29489
O 2.71153 -3.221027 0.913707
C 2.484978 -1.770944 1.037632
C 3.021073 -1.069628 2.246823
C 1.019666 -1.924108 0.489733
H 0.928027 0.834026 1.064803
H 0.234273 1.360921 -0.48015
H -0.750329 0.416391 0.654965
H 0.018437 -1.014399 -1.213896
H 3.819918 -1.602332 -0.86121
H 1.716965 -3.674596 -0.996314
H 2.504581 -1.400185 3.153323
H 4.088934 -1.285039 2.356678
H 2.895496 0.013476 2.147002
H 0.241443 -2.334159 1.131947
