19

C -0.972416 2.022728 -1.194954
C -1.08215 1.117242 0.029121
C -2.242909 0.097929 0.047865
C -2.126666 -0.771261 1.247634
C -1.25085 -1.108474 0.050878
C -1.17868 -2.443488 -0.646347
O -0.077097 -3.193911 -0.163347
C -0.146287 -0.115888 -0.058247
O 1.008736 -0.248439 -0.385883
H -1.083125 1.448629 -2.121314
H -1.746355 2.797184 -1.176751
H 0.005505 2.511553 -1.216895
H -0.996999 1.703788 0.951588
H -3.144388 0.18119 -0.546402
H -1.689567 -0.384203 2.16433
H -2.923264 -1.492669 1.405074
H -2.075903 -3.042468 -0.456222
H -1.103011 -2.287943 -1.734735
H 0.708868 -2.644227 -0.299602
