19

C 2.064512 0.909246 -5.623006
C 1.458444 1.667916 -4.449693
C 0.297361 2.571056 -4.855192
O 0.988426 0.656269 -3.515669
C 1.135806 0.886102 -2.210446
C 1.441202 0.039733 -1.18856
C 1.372787 0.83515 0.005046
C 1.0463 2.0928 -0.379509
O 0.888232 2.141678 -1.744355
H 2.89061 0.276044 -5.288191
H 1.307704 0.272358 -6.092606
H 2.441128 1.610865 -6.373758
H 2.231132 2.258055 -3.944146
H -0.109269 3.090986 -3.985658
H 0.636016 3.316554 -5.582769
H -0.498897 1.97617 -5.314411
H 1.687663 -1.004193 -1.282922
H 1.557024 0.504632 1.015178
H 0.902548 3.025742 0.137196
