19

C 1.12609 0.957122 0.545004
C 0.889748 -0.459908 0.02567
C 1.467667 -1.602834 0.922765
C 2.633593 -1.821258 -0.088741
C 1.889954 -0.902489 -1.05953
O 2.51006 -0.039042 -1.984772
C 1.693479 -1.101216 -2.513234
C 0.420928 -0.669691 -3.157133
O -0.16999 -1.326666 -3.978724
H 0.49875 1.15127 1.420916
H 2.172227 1.102306 0.836238
H 0.889186 1.701077 -0.221606
H -0.162913 -0.588025 -0.244423
H 1.7624 -1.298902 1.929133
H 0.802254 -2.465466 0.997151
H 3.580135 -1.381113 0.235893
H 2.817176 -2.843832 -0.42406
H 2.225417 -1.90982 -3.013352
H 0.052869 0.320326 -2.808956
