19

C 1.518642 -0.064597 0.112168
C 0.061885 -0.073389 0.062682
C -1.142665 -0.100742 0.024716
C -2.607051 -0.076879 -0.009788
O -3.173815 0.101203 1.288003
C -3.12315 0.988275 -0.983013
C -4.627317 0.895125 -1.306814
O -4.351553 0.486075 -2.66464
C -2.933519 0.674645 -2.481594
H 1.875395 -0.052204 1.148014
H 1.934066 -0.955558 -0.372239
H 1.930463 0.815341 -0.394956
H -2.9829 -1.055233 -0.337949
H -2.710627 0.838595 1.706964
H -2.770913 1.97311 -0.664796
H -5.189152 0.136953 -0.748952
H -5.173812 1.845894 -1.272112
H -2.360564 -0.23219 -2.713291
H -2.548294 1.503245 -3.089233
