19

O 0.475215 -0.030162 0.340409
C -0.789847 0.437703 0.731261
C -1.266232 0.217159 2.183379
O -1.566982 1.620433 2.329621
C -0.977042 1.935173 1.057475
C -1.590088 3.037368 0.168889
C -0.996331 4.061062 1.184909
C 0.136017 3.014734 0.952566
C -0.214948 3.077267 -0.561628
H 1.135568 0.344698 0.938162
H -1.489646 0.06135 -0.018762
H -2.152185 -0.408568 2.334801
H -0.466875 -0.108493 2.863798
H -2.583567 3.042054 -0.280412
H -0.802353 5.064425 0.795249
H -1.44709 4.086928 2.17692
H 1.128402 3.003813 1.407221
H 0.021394 4.020817 -1.059206
H 0.060939 2.215829 -1.17271
