19

C 1.206818 0.434181 -1.401512
C -0.019263 -0.06726 -0.686722
C -0.134854 -1.328746 -0.257999
C -1.348533 -1.892225 0.434672
O -2.067947 -2.777941 -0.423976
C -2.2583 -0.778848 1.000734
C -2.430954 0.335503 -0.009041
O -3.506909 0.698727 -0.42822
C -1.12445 0.950973 -0.490083
H 1.651838 1.281763 -0.864264
H 1.963086 -0.349381 -1.498374
H 0.953283 0.797532 -2.405279
H 0.670874 -2.034516 -0.44671
H -1.036065 -2.536633 1.263795
H -2.244864 -2.309661 -1.25055
H -3.231226 -1.188213 1.277591
H -1.775778 -0.35898 1.893625
H -1.322978 1.504443 -1.414981
H -0.804209 1.701081 0.251572
