19

O 0.900193 -2.704502 -2.313328
C 0.398636 -1.897683 -3.349878
C 0.557294 -2.423779 -4.797036
C 0.270515 -0.956308 -5.234403
C 1.296417 -0.840886 -4.070207
C 2.069191 -2.011125 -4.770475
C 3.137279 -2.827176 -4.092523
C 4.551807 -2.478913 -4.288561
O 3.976277 -3.575774 -4.992851
H 0.819893 -2.215663 -1.485621
H -0.61003 -1.540115 -3.101219
H 0.127708 -3.33396 -5.215538
H 0.631672 -0.671306 -6.223041
H -0.735896 -0.574215 -5.045184
H 1.718584 0.074795 -3.652313
H 2.45249 -1.736788 -5.760107
H 2.863802 -3.366115 -3.192998
H 4.811377 -1.616225 -4.90263
H 5.284513 -2.740393 -3.526045
