19

O 0.258501 -1.252721 0.020469
C 0.376844 -0.066148 0.195059
C -0.382661 0.726244 1.243972
C -1.104696 1.906556 0.629615
O -0.276783 2.996975 0.180825
C -1.163409 3.227718 1.263876
C -2.311543 4.238699 1.251628
C -2.122615 4.375881 2.792711
C -0.749151 3.645511 2.67792
H 1.071597 0.543295 -0.423761
H -1.084251 0.054379 1.748917
H 0.345925 1.097599 1.976756
H -1.902073 1.647369 -0.070269
H -2.031163 5.148468 0.712699
H -3.280775 3.8932 0.884701
H -2.099607 5.391099 3.190716
H -2.854713 3.792936 3.355496
H 0.096126 4.339515 2.654098
H -0.535783 2.851967 3.398792
