19

C 1.625875 0.302421 0.000693
O 0.239796 -0.015169 -3.6e-05
C -0.440384 0.521539 1.068259
C -0.867978 1.959408 1.172006
C -1.910423 0.854416 1.143338
C -1.984819 0.088328 2.509992
C -3.174342 -0.636446 3.046812
O -1.057772 0.695033 3.434742
C -0.560815 -0.223572 2.44721
H 2.125445 -0.079736 0.901851
H 2.057695 -0.177448 -0.88035
H 1.781368 1.388115 -0.056596
H -0.702377 2.544263 2.067965
H -0.790311 2.499254 0.232707
H -2.659584 0.775156 0.366259
H -2.89242 -1.233895 3.918337
H -3.956077 0.070904 3.347423
H -3.594656 -1.300142 2.283271
H 0.012017 -1.08255 2.779117
