19

C 0.57468 4.669919 1.871788
C -0.526706 3.863866 1.264011
C -1.971232 4.24397 1.153989
C -1.58785 2.925385 1.800034
C -1.118929 1.967292 0.713022
C -0.382583 0.724082 1.209146
C 0.351259 0.017596 0.087551
O 0.210322 -1.148146 -0.188404
O -0.182186 2.960529 0.195937
H 0.198674 5.242258 2.725229
H 1.391975 4.026081 2.212183
H 0.979097 5.378113 1.139173
H -2.311689 5.004458 1.850267
H -2.453936 4.25914 0.180719
H -1.852463 2.651871 2.812907
H -1.861599 1.698292 -0.049428
H 0.355678 1.039059 1.959228
H -1.082336 0.020533 1.672584
H 1.050684 0.665185 -0.483546
