19

C 0.394843 1.334151 -0.441504
C 1.696877 0.613171 -0.700546
C 2.719028 1.242832 -1.644308
O 4.013123 1.005308 -1.084722
C 3.924651 -0.071107 -0.155344
C 3.972827 -1.421594 -0.882584
O 2.653293 -1.601506 -1.417461
C 1.757587 -0.899246 -0.588179
C 2.49391 -0.051469 0.404237
H -0.234318 0.770589 0.255956
H 0.570743 2.326037 -0.009147
H -0.174742 1.466469 -1.36895
H 2.660028 0.810547 -2.652288
H 2.576767 2.327436 -1.716938
H 4.717527 0.052286 0.586323
H 4.683665 -1.426199 -1.712535
H 4.211248 -2.237861 -0.18353
H 0.856569 -1.455508 -0.34774
H 2.277224 0.024935 1.462591
