19

C 0.972331 0.244926 -1.85552
O -0.184239 1.115035 -1.807118
C -0.338282 1.322077 -0.399037
C 1.106901 1.597477 0.104497
C 1.206769 1.780062 1.616643
O 0.144328 1.136567 2.300547
C -0.212505 -0.116563 1.740405
C -0.161273 -0.095752 0.215113
C 1.275461 0.115324 -0.363431
H 0.704552 -0.704407 -2.335557
H 1.775168 0.723845 -2.429518
H -1.189323 1.973428 -0.205732
H 1.679723 2.358382 -0.434592
H 2.183173 1.415111 1.979857
H 1.129669 2.840028 1.881976
H 0.437207 -0.918833 2.131791
H -1.231277 -0.315971 2.088976
H -0.762096 -0.899536 -0.222288
H 2.122524 -0.500911 -0.056481
