19

C -2.264345 4.661877 -0.569897
C -1.708731 3.344287 -0.101055
C -0.208085 2.90045 -0.092205
C -1.029011 1.723312 0.484751
C -1.820959 2.727588 1.334827
C -2.052866 1.922876 -0.656736
O -0.546952 0.505053 1.017749
C 0.13696 -0.306712 0.193244
O 0.386416 -0.105107 -0.963968
H -1.840388 5.492011 0.004763
H -2.032226 4.827871 -1.627524
H -3.353907 4.690166 -0.453826
H 0.263384 2.736212 -1.06187
H 0.447946 3.425611 0.607824
H -2.81874 2.419091 1.657578
H -1.270326 3.23865 2.128774
H -1.708511 1.691219 -1.665013
H -3.067979 1.563097 -0.468281
H 0.43769 -1.202451 0.759637
