19

O 0.291282 0.394352 0.192767
C -0.5879 0.935116 1.146993
C -1.374107 -0.076692 2.048952
C -2.682017 0.61748 1.646455
C -2.62599 2.121805 1.784632
C -1.826441 2.915336 2.803225
O -0.545816 2.375568 3.089884
C 0.188344 1.98051 1.942558
C -1.939611 1.474042 0.618534
H -0.209868 -0.205113 -0.37507
H -1.308752 -1.077735 1.611061
H -1.116593 -0.124177 3.10914
H -3.638067 0.118407 1.534168
H -3.569544 2.602666 1.532363
H -1.721364 3.948562 2.426963
H -2.344753 2.961245 3.767232
H 0.421656 2.843846 1.29873
H 1.125449 1.555393 2.312393
H -2.159007 1.693348 -0.420651
