19

C 1.445495 0.755509 -3.091366
C 0.472417 0.271761 -2.040591
C 0.131491 -1.196168 -1.978101
C -0.932974 -0.196143 -2.367809
C -1.834621 0.281895 -1.249147
O -1.514272 -0.256371 0.04982
C -1.053507 1.064733 -0.286849
C 0.410595 1.084541 -0.725704
O 1.301763 0.657455 0.288264
H 1.382044 0.14616 -3.99907
H 1.247488 1.797606 -3.370605
H 2.47506 0.697677 -2.71853
H 0.541129 -1.815401 -2.769582
H 0.022948 -1.69514 -1.023281
H -1.323111 -0.18307 -3.379796
H -2.89436 0.441148 -1.427252
H -1.452637 1.865088 0.33171
H 0.702922 2.118757 -0.943206
H 0.97478 -0.196294 0.603536
