19

C 1.130032 1.391316 0.211449
C 0.847012 -0.101024 0.007373
C 1.705478 -0.70947 -1.100303
C 1.297688 -0.289448 -2.561655
C 1.011433 -1.760686 -2.877011
O 2.188636 -2.504099 -2.633651
C 1.382349 -2.165643 -1.486432
C 0.851192 -3.304492 -0.716158
O 0.545873 -3.262163 0.453013
H 0.502123 1.801608 1.008269
H 2.176954 1.557725 0.488891
H 0.932145 1.967391 -0.699668
H 1.026013 -0.650616 0.936547
H -0.214748 -0.24887 -0.231651
H 2.769122 -0.575275 -0.879175
H 0.395847 0.328416 -2.569845
H 2.065607 0.168827 -3.189113
H 0.28029 -2.192625 -3.5527
H 0.746564 -4.230043 -1.324489
