19

C -0.665935 -1.045673 -1.365511
C 0.411467 -0.509465 -2.265459
C 0.235033 -0.204833 -3.765692
C 1.70136 -0.699192 -4.022114
O 1.825215 -1.831004 -4.849443
C 1.832931 -0.961243 -2.516327
C 1.586112 0.348079 -1.775451
C 1.908475 0.365476 -0.330201
O 1.888939 -0.599548 0.403336
H -0.261202 -1.336598 -0.394703
H -1.451154 -0.296856 -1.206122
H -1.134411 -1.92584 -1.820938
H -0.477921 -0.880262 -4.248296
H -0.017087 0.82561 -4.035317
H 2.394816 0.037895 -4.438285
H 1.263858 -2.532057 -4.492063
H 2.410137 -1.743175 -2.034948
H 1.784033 1.287702 -2.289053
H 2.188065 1.366973 0.065115
