17

C	-0.508497	0.057616	-1.440118
C	0.0	0.0	0.0
Cl	0.08196	-1.496784	-2.263634
H	1.093245	0.0	0.0
N	-1.935353	0.137151	-1.483121
H	-2.339125	-0.698567	-1.07291
H	-2.247136	0.197085	-2.446573
C	0.14343	1.207578	-2.176025
H	-0.198766	2.136768	-1.721101
H	-0.125502	1.182099	-3.236294
H	1.226403	1.126272	-2.063663
C	-0.526741	-1.178272	0.69382
N	-1.005778	-2.068362	1.297032
N	-0.336743	1.245007	0.684914
H	-1.237943	1.194611	1.143616
H	0.394927	1.420137	1.368305
H	2.748136	0.0	0.0
