17

C	-0.510635	0.117155	-1.435037
C	0.0	0.0	0.0
Cl	0.089668	-1.398781	-2.32433
H	1.094987	0.0	0.0
N	-1.938236	0.186215	-1.475344
H	-2.250356	0.284648	-2.435114
H	-2.333785	-0.671187	-1.103618
C	0.13139	1.302432	-2.121629
H	1.215439	1.223084	-2.014285
H	-0.215804	2.2094	-1.62738
H	-0.138416	1.321102	-3.182031
C	-0.522635	-1.205819	0.645708
N	-0.996133	-2.123399	1.211323
N	-0.336265	1.216307	0.738107
H	-1.223958	1.135582	1.215401
H	0.407505	1.369101	1.412475
H	2.742417	0.0	0.0
