17

C	-0.193606	0.117388	-1.512467
C	0.0	0.0	0.0
Cl	-1.965418	0.478216	-1.929988
H	1.105707	0.0	0.0
N	0.593098	1.252598	-1.918359
H	0.688201	1.251781	-2.928279
H	1.52585	1.1112	-1.503281
C	0.166783	-1.179439	-2.214108
H	1.196939	-1.419412	-1.926303
H	-0.49424	-1.999685	-1.929017
H	0.115579	-1.044059	-3.298485
C	-0.546624	-1.237293	0.53799
N	-0.975264	-2.239224	0.980304
N	-0.411445	1.145777	0.792718
H	0.35072	1.813929	0.755083
H	-1.223117	1.576119	0.363383
H	2.704543	0.0	0.0
