17

C	-0.338629	0.047693	-1.499057
C	0.0	0.0	0.0
Cl	0.00643	1.829465	-2.051369
H	1.095446	0.0	0.0
N	0.535948	-0.861389	-2.117759
H	1.492063	-0.72178	-1.7717
H	0.501684	-0.801137	-3.126993
C	-1.794232	-0.174503	-1.844277
H	-2.063481	-1.199268	-1.577945
H	-2.412519	0.525169	-1.282009
H	-1.964839	-0.025694	-2.914019
C	-0.461698	-1.275377	0.537244
N	-0.830975	-2.279491	1.025086
N	-0.60549	1.094613	0.771308
H	-0.459837	0.875887	1.751934
H	-0.03124	1.910625	0.582746
H	2.804167	0.0	0.0
