17

C	-0.310982	0.020332	-1.494857
C	0.0	0.0	0.0
Cl	-2.133378	0.138041	-1.723904
H	1.096808	0.0	0.0
N	0.281572	1.1781	-2.114663
H	1.290997	1.024646	-2.041041
H	0.08328	1.954906	-1.485773
C	0.183486	-1.241155	-2.164272
H	1.249467	-1.339176	-1.928336
H	0.043992	-1.156482	-3.24331
H	-0.346273	-2.119843	-1.794707
C	-0.494822	-1.195286	0.677537
N	-0.886919	-2.138522	1.261986
N	-0.39628	1.244677	0.645225
H	0.265407	1.434906	1.389795
H	-1.328958	1.177877	1.03255
H	2.736224	0.0	0.0
