17

C	-0.193785	0.059838	-1.517225
C	0.0	0.0	0.0
Cl	-1.966136	0.377128	-1.948411
H	1.099822	0.0	0.0
N	0.578091	1.191461	-1.959563
H	1.514699	1.067575	-1.546644
H	0.666975	1.16181	-2.969909
C	0.192787	-1.254518	-2.170508
H	0.140422	-1.160692	-3.258753
H	1.226719	-1.462419	-1.873374
H	-0.451702	-2.076158	-1.855966
C	-0.539753	-1.220785	0.581318
N	-0.962088	-2.212795	1.050385
N	-0.420626	1.168658	0.752633
H	0.310847	1.864029	0.645598
H	-1.265389	1.545662	0.336725
H	2.714971	0.0	0.0
