17

C	-0.434954	0.097661	-1.476289
C	0.0	0.0	0.0
Cl	0.097452	1.716472	-2.069585
H	1.092724	0.0	0.0
N	0.253132	-0.894036	-2.278996
H	-0.076729	-1.809571	-1.984573
H	1.243165	-0.840386	-2.03007
C	-1.93575	0.015696	-1.663137
H	-2.185891	0.157929	-2.715949
H	-2.298748	-0.964853	-1.337853
H	-2.414821	0.789858	-1.061856
C	-0.429162	-1.296005	0.513133
N	-0.795055	-2.329635	0.941912
N	-0.478756	1.099633	0.841032
H	0.351265	1.551633	1.215115
H	-1.021404	0.751771	1.620409
H	2.750417	0.0	0.0
