18
Coordinates from ORCA-job run
  C   -0.74166495984962     -0.08257836501342      0.20418497278425
  C   0.72906027587030      0.04717421221265     -0.22118208456211
  Cl  -1.08671146749057      1.13136116601286      1.50463011805042
  H   0.85297709878052     -0.71212410099189     -1.00800652959788
  C   -1.69248176599524      0.22171808588062     -0.94457651386065
  H   -2.72651274746613      0.11083652362175     -0.60955475036227
  H   -1.53729777415648      1.22542629350283     -1.33347030805397
  H   -1.50775098914647     -0.49406205112104     -1.75266359500356
  N   -0.93714463347642     -1.38838428655233      0.80865424098493
  H   -0.78003947171734     -2.09615122971966      0.09679210150625
  H   -1.89897870048755     -1.47450981656465      1.11939029264800
  C   1.71338541745348     -0.26180323168448      0.90388482661575
  H   2.73275692542999     -0.24671657675242      0.50733716396605
  H   1.64152002728894      0.49574600039265      1.68723376836321
  H   1.52100877990896     -1.23528817366725      1.35426183931254
  N   0.93499182560240      1.34165831213261     -0.86652509898846
  H   1.85221727139836      1.35483124579524     -1.29693914251689
  H   0.93066488805286      2.06486599251591     -0.15445130128561
