18
Coordinates from ORCA-job run
  C   -0.79984213136004      0.22916050381280     -0.08149871029058
  C   0.68894855146568      0.47261172690087      0.21756567137470
  Cl  -1.29564797773729      1.45633114084585     -1.37995375590253
  H   0.75974149979422      1.52776046397990      0.53731958956093
  C   -1.09955084578482     -1.14823279168413     -0.63415211435893
  H   -0.73593858820989     -1.89385644082736      0.07294135469998
  H   -2.17631041170090     -1.26745984066136     -0.77717284275590
  H   -0.61673315295427     -1.29602727804157     -1.59878901960780
  N   -1.53788431630413      0.45252083909347      1.12078466103252
  H   -2.51912170005429      0.23869325443668      0.98934404599594
  H   -1.46077788610630      1.42136282175950      1.40998157405366
  C   1.61579917108009      0.27287084058033     -0.97084000261106
  H   1.33219426163505      0.89436693035248     -1.81919625537808
  H   1.62294167242898     -0.77651898544380     -1.26958532091169
  H   2.63640709637882      0.54221157595572     -0.68374261625212
  N   1.06893111173723     -0.47374375017797      1.26405825047841
  H   2.03464754352278     -0.31880847634809      1.52774889389429
  H   0.48119610216907     -0.33224253453331      2.07618659697825
