18
Coordinates from ORCA-job run
  C   -0.83291810609381      0.22365620256921      0.05290187138636
  C   0.62344506243376      0.70273091615099     -0.06168668742243
  Cl  -1.87768207996361      1.66900842580894      0.28873926911220
  H   0.65653745116466      1.41945011031951     -0.89116964805156
  C   -1.32479935643508     -0.46909427148779     -1.21110054820216
  H   -1.16174505277842      0.15581206031895     -2.09210397515704
  H   -0.80410913956955     -1.41931706687421     -1.35266669436635
  H   -2.39344286817758     -0.67407008577921     -1.12585499086639
  N   -0.96544725268276     -0.59985796975248      1.25529028193757
  H   -0.76247793269585     -1.56523538611195      1.01850526056888
  H   -1.91952964722017     -0.56301193954290      1.59272935345268
  C   1.56633536443099     -0.46375006629313     -0.38101477777294
  H   2.59266626033018     -0.08886749147806     -0.41852669471323
  H   1.36074430894729     -0.93659734419374     -1.34425831844019
  H   1.52656499417355     -1.22035534168546      0.40786852456730
  N   0.97828273113818      1.41213454467959      1.15782834646304
  H   0.76672832661046      0.80571675949313      1.94291272436580
  H   1.97084693638774      1.61264794385861      1.16060670313846
