18
Coordinates from ORCA-job run
  C   -0.82679264461803     -0.12910496676988      0.06322138570044
  C   0.68036804021565      0.13394513839367     -0.14175829724131
  Cl  -1.38407932680361      0.91033525415192      1.44211069404904
  H   0.93833820379218     -0.47426802002281     -1.02066234995574
  C   -1.62807164377683      0.25815419240825     -1.16493180077875
  H   -1.45237981194176      1.29873734073796     -1.42470439365099
  H   -2.68642133210795      0.08282589606731     -0.97220512902396
  H   -1.31400507327149     -0.36517248631248     -2.00952711632512
  N   -1.16270540221200     -1.48856603129096      0.42518189129927
  H   -0.93322891208051     -2.10952545450674     -0.34306638436723
  H   -0.66002454369768     -1.78546182628418      1.25156647794876
  C   1.55535460481406     -0.32617894824985      1.02454324864340
  H   1.48406697094716     -1.40054624063806      1.20997085724051
  H   1.29071283409715      0.20611887468685      1.94091780645666
  H   2.60170930731181     -0.10754664782721      0.79647062304505
  N   0.89187811471660      1.52703984310638     -0.52718005637369
  H   0.75685151354214      2.12020966811185      0.28455837214447
  H   1.84942910107309      1.64900441423799     -0.83550582881081
