18
Coordinates from ORCA-job run
  C   -0.66346649388432     -0.19856417876797      0.20551710910541
  C   0.79193998273317      0.13125322486460     -0.20281478553447
  Cl  -0.96995790776685      0.43107639641585      1.87321721985886
  H   0.90443294714158     -0.32081039852409     -1.20028049386981
  C   -1.68158577231144      0.47838031095647     -0.70507822158793
  H   -2.69220035925928      0.17804993962948     -0.42013566386736
  H   -1.62977144785210      1.56585089405680     -0.64849984111942
  H   -1.50514478364271      0.16460305694751     -1.73963968172168
  N   -0.81023607514650     -1.63916216553086      0.27199672269580
  H   -1.76877816304043     -1.88039287465282      0.49902383539021
  H   -0.59362662040145     -2.03313459990239     -0.63838839245350
  C   1.82188475994582     -0.49913833291516      0.72414033037991
  H   1.61986588540332     -1.55696460395094      0.88388395972200
  H   2.81301313526224     -0.36921040036020      0.28733760997534
  H   1.81084069272640     -0.00094440147922      1.69602029277420
  N   1.09716385345574      1.54449781566964     -0.35268400245909
  H   0.51710937182340      1.97901865768045     -1.05821255631980
  H   0.93951699481342      2.02359165986285      0.52659655903131
