18
Coordinates from ORCA-job run
  C   -0.82056035875721      0.11509490588454      0.03208102908297
  C   0.65665082898297      0.53197366003058     -0.00409403046124
  Cl  -1.75839405557045      1.73928532532956      0.32069547811031
  H   0.73977913420782      1.32801571751733     -0.75780679733190
  C   -1.35369040181141     -0.39452372627151     -1.29067849324434
  H   -2.43804781170327     -0.51086243696910     -1.23913322158504
  H   -0.91198059057586     -1.36780231669202     -1.50960469924221
  H   -1.12695800350314      0.30559528483218     -2.09627034345577
  N   -1.03055631280998     -0.80469950659787      1.07168357426319
  H   -2.00774832851043     -1.02036524223475      1.21374757715840
  H   -0.59370468627912     -0.47427778190494      1.92429712257277
  C   1.55526921841852     -0.63119198869649     -0.40414159808555
  H   1.33365989365420     -0.98435853070541     -1.41166477694095
  H   2.60058066811112     -0.30776711969220     -0.39589565388677
  H   1.43694356247322     -1.45710370898344      0.29780231173520
  N   1.03510901614684      0.98108306826360      1.33573066232375
  H   2.04254251129798      1.05646171897894      1.40006382935948
  H   0.64110571622820      1.89744267791100      1.51318802962769
