18
Coordinates from ORCA-job run
  C   -0.81787926643501     -0.20010974813232      0.11413437625031
  C   0.68157455600841      0.13136569730653     -0.06650915987377
  Cl  -1.37284733543016      0.42205828880918      1.70789157519938
  H   0.96197106830757     -0.44028663385197     -0.97069387358964
  C   -1.65465661284741      0.46542303602607     -0.96344160041694
  H   -2.69457208908140      0.16242502841226     -0.84393332017481
  H   -1.58295083196728      1.54942872591625     -0.88960047020956
  H   -1.30764842760119      0.14587318161053     -1.95351667973773
  N   -1.11121475897842     -1.62177298085650      0.10522246545196
  H   -0.61618089482216     -2.09790636578300      0.84909471774436
  H   -0.82221253068173     -2.01882358488590     -0.78272488331957
  C   1.56241034705889     -0.34416751176146      1.07843093070968
  H   2.61482696014352     -0.26562831511811      0.79161090167090
  H   1.39376401317385      0.27584970449858      1.95960181394030
  H   1.37260068043386     -1.38518623011610      1.34266693514464
  N   0.87268273796789      1.56735425087520     -0.24217724016235
  H   0.68788153448084      1.83870264950837     -1.19953642433721
  H   1.83245085026993      1.81640080754239     -0.03752006428995
