18
Coordinates from ORCA-job run
  C   -0.80838904751180      0.35145830909789     -0.10888092768922
  C   0.68771370252959      0.54489760233995      0.18946862889338
  Cl  -1.30223847157985      1.61737514269700     -1.29401018463093
  H   0.81160310375509      1.61870762281679      0.38120439696237
  C   -1.13718209489895     -1.00587397544466     -0.70990588399273
  H   -0.76304655138320     -1.78001525328495     -0.03513148011806
  H   -2.21963937384607     -1.11066717364258     -0.81056045890755
  H   -0.68922930434404     -1.14144728750156     -1.69505345713894
  N   -1.52858209189574      0.63643772807450      1.12515615135400
  H   -1.40856432237643     -0.17058345326068      1.73003653646038
  H   -2.51858855726966      0.72580497432158      0.92328488411148
  C   1.59619711112490      0.12892321234141     -0.95480670097401
  H   2.62281759957857      0.44175883571828     -0.74496674017494
  H   1.59137225037559     -0.95702824745402     -1.07487108288806
  H   1.29206199432201      0.58984880461917     -1.89516322842986
  N   0.98926754302220     -0.26063571166222      1.37896378305231
  H   1.96819263847150     -0.51890101663327      1.38452251629689
  H   0.81523387192628      0.29293988685737      2.20871324781349
