18
Coordinates from ORCA-job run
  C   -0.77157354638872      0.26108011675931     -0.05928984879069
  C   0.72477021341358      0.55377382762887      0.19768546978883
  Cl  -1.31420416023914      1.38328669281726     -1.43287660995718
  H   0.77892196003590      1.62590146768980      0.43234361594232
  C   -1.06483783119931     -1.15349044007572     -0.51581670274319
  H   -0.57972644108544     -1.37132410960205     -1.46600900227928
  H   -0.72179815526614     -1.85909360983797      0.24349890655328
  H   -2.14023787856129     -1.28890985485300     -0.65171599329777
  N   -1.49679106495446      0.54783323995254      1.13636653428898
  H   -1.40247055173730      1.52664026675050      1.38429007043497
  H   -2.48248374262446      0.34366430778622      1.02328888528637
  C   1.63302635792171      0.28409691053825     -0.99096137907477
  H   1.65426762855677     -0.78282944647847     -1.23215765452163
  H   1.32269992367797      0.83336954424923     -1.87826940719236
  H   2.64844419447727      0.58334988520961     -0.72651162171507
  N   1.23975189471614     -0.17400881336453      1.35121580420624
  H   0.54200757938207     -0.17805793623325      2.08589823840380
  H   1.43023361987485     -1.13628204893661      1.09702069466716
