18
Coordinates from ORCA-job run
  C   -0.82624440641122      0.06903795285578      0.00002482206245
  C   0.62572332008057      0.56765575498585      0.01003500669031
  Cl  -1.86351592793923      1.64245358544242      0.22445235624810
  H   0.69280087801428      1.35468295731201     -0.75465084574608
  C   -1.28047949624254     -0.49133041592111     -1.33160513582533
  H   -0.77688035442963     -1.44135846833345     -1.51627820740001
  H   -1.06388224337496      0.20714628520889     -2.14137777115632
  H   -2.35777376324147     -0.66812846985585     -1.31716302143621
  N   -1.02358674159100     -0.84370893532956      1.04829776287879
  H   -1.99189927677445     -1.11153236232206      1.15877056358704
  H   -0.63764768771990     -0.47530180528590      1.90985616738517
  C   1.60200158369212     -0.54955698390579     -0.33548746294042
  H   1.43753713891764     -0.93174943897340     -1.34336137608032
  H   1.50417120952239     -1.36887477766398      0.37721591695065
  H   2.62659255465235     -0.16749182971624     -0.29605009899191
  N   0.92836846248803      1.05956897798427      1.35415989991299
  H   0.47684491636763      1.95473601575022      1.50004381968423
  H   1.92686983398938      1.19375195776791      1.45311760417685
