18
Coordinates from ORCA-job run
  C   -0.75327781564290     -0.22965339922527      0.08989860294206
  C   0.71151785774593      0.16706914493550     -0.17926959785487
  Cl  -1.17705485906187      0.28285875029461      1.81511331340455
  H   0.89336095655342     -0.21497877020745     -1.19383860809569
  C   -1.69944652904448      0.52802815970648     -0.81923664645970
  H   -2.73462835692730      0.24843264643616     -0.60992206458961
  H   -1.58734774629524      1.59811894966836     -0.65908732358701
  H   -1.47228895535335      0.27799817434597     -1.85984076203637
  N   -0.92247591586892     -1.63424899991481     -0.09645979912039
  H   -0.42869979373304     -2.16157712749615      0.61206625425379
  H   -1.90283409040438     -1.88174660132422     -0.03763591299624
  C   1.70730228670629     -0.50259310848830      0.75787808842601
  H   1.56771640911692     -0.14668123572319      1.78032818886960
  H   2.72403603470181     -0.25936315724829      0.43882437470817
  H   1.61933971482897     -1.59027010226723      0.75019855024492
  N   0.85097648296710      1.61953920859538     -0.13236562667950
  H   1.66089499936679      1.89278235335357      0.40617440364631
  H   0.94390932034425      2.00628511455886     -1.06082543507605
