18
Coordinates from ORCA-job run
  C   -0.77988858229465      0.12856894731887      0.01464207627428
  C   0.68055399676993      0.62148504056555     -0.06486799957934
  Cl  -1.80958850481024      1.68778141438385      0.19314635724895
  H   0.70154106007119      1.38841976273752     -0.84613624209437
  C   -1.26765058012716     -0.52724317666609     -1.26165528179620
  H   -0.78183665699799     -1.49647123465730     -1.38358110618015
  H   -1.04866779597894      0.10312577438479     -2.12473419179601
  H   -2.34822425050219     -0.68081356897756     -1.22177909683422
  N   -0.96412039065851     -0.73513923517645      1.12218527959218
  H   -0.76571846611839     -0.25880468846550      1.99243357972596
  H   -1.91020680427659     -1.09334839076878      1.15925642640932
  C   1.62357396773918     -0.51071179280464     -0.45589081203256
  H   1.52592353572044     -1.34751927596312      0.23976349319803
  H   2.64761857012219     -0.13578273310052     -0.41797217682882
  H   1.42988717952665     -0.87578933029376     -1.46491127505527
  N   1.18364875256040      1.23885424986079      1.15191257773762
  H   0.54807057676144      1.94897022234927      1.49341185143323
  H   1.33708439249325      0.54541801527310      1.87377654057734
