11
Coordinates from ORCA-job run
  C   -0.29352808844616     -0.25667407697716      0.51828604658500
  C   0.58577268185487      0.08807541212180     -0.67881702028366
  H   0.28839141778043     -0.30014506006926      1.44091241961753
  H   1.09353090749345      1.03831854331751     -0.50871489522091
  H   -0.83819576999527     -1.18925838617873      0.38619197895037
  H   -0.02652857846992      0.19819783573601     -1.57798782842087
  N   -1.32400144963523      0.80981311378970      0.72466325259078
  O   -0.96818061254026      1.97197025746611      0.54618768704904
  O   -2.43697386812623      0.44402077095084      1.08795789046472
  C   1.56953455077026     -0.97084367605110     -0.89357235068014
  N   2.35017880931407     -1.83347473410571     -1.04410718065184
