11
Coordinates from ORCA-job run
  C   -0.31172526219995     -0.31888406745835      0.70569598535500
  C   0.31959774382091     -0.78939694270500     -0.59548898178569
  H   -1.12136810803599     -0.98699197524957      1.00653851270264
  H   0.68867082849555     -1.81040218762064     -0.46417788740718
  H   0.40819784655777     -0.22282349104848      1.51591438228486
  H   -0.42910630966261     -0.79912368707410     -1.38865049195232
  N   -0.93787564927591      1.03308659811911      0.53714685474639
  O   -1.50946300794150      1.25282955062739     -0.52704579622895
  O   -0.86687610452745      1.79822465101821      1.49257058349524
  C   1.43191609175507      0.07275954097764     -0.99363214941843
  N   2.32703193101412      0.77072201041378     -1.28987101179156
