11
Coordinates from ORCA-job run
  C   -0.32789391002569      0.55702406287472     -0.04717754867667
  C   0.61588172713124     -0.63295130997229     -0.17903767457980
  H   -0.91078076402199      0.73490589161172     -0.94852054495094
  H   0.04816290219265     -1.54464314146347     -0.38402068450183
  H   0.21197117081625      1.46628733825280      0.22394856389797
  H   1.15721751160898     -0.78642318497716      0.75538833822099
  N   -1.31402348175101      0.31482598096974      1.05323035081100
  O   -2.45333184629855      0.73465540449249      0.87948085834087
  O   -0.89977555011237     -0.25469897325687      2.05982423504295
  C   1.56156463521771     -0.39974641529554     -1.26835609132738
  N   2.31100760524278     -0.18823565323615     -2.14575980227716
