15

C	-0.437649	-0.007927	-1.468483
C	0.0	0.0	0.0
Br	0.381771	1.459074	-2.444409
H	1.092464	0.0	0.0
N	0.029557	-1.310268	-2.141197
O	1.161475	-1.66738	-1.863805
O	-0.747807	-1.854555	-2.915178
C	-1.882559	0.091415	-1.591604
N	-3.054004	0.211451	-1.588956
C	-0.466289	-1.246526	0.61258
N	-0.875964	-2.218796	1.142496
N	-0.489367	1.197622	0.637031
H	0.064935	1.401741	1.460603
H	-1.461798	1.105525	0.911028
Br	2.751593	0.0	0.0
