15

C	-0.465331	0.081102	-1.471237
C	0.0	0.0	0.0
Br	0.374409	-1.291638	-2.52466
H	1.094104	0.0	0.0
N	-1.999917	-0.104276	-1.489029
O	-2.638886	0.899742	-1.184643
O	-2.453699	-1.217159	-1.707306
C	-0.180242	1.388211	-2.042988
N	0.059073	2.42069	-2.550629
C	-0.464874	-1.258066	0.59785
N	-0.876902	-2.208049	1.155171
N	-0.411099	1.183042	0.721543
H	-1.284909	1.067072	1.214656
H	0.326824	1.446576	1.361527
Br	3.340838	0.0	0.0
