15

C	-0.54611	-0.004326	-1.439874
C	0.0	0.0	0.0
Br	0.350638	1.34015	-2.500191
H	1.092321	0.0	0.0
N	-0.300246	-1.347809	-2.134585
O	-1.043115	-1.618983	-3.07188
O	0.636389	-2.010345	-1.714732
C	-1.981227	0.252349	-1.449401
N	-3.13348	0.478685	-1.385109
C	-0.512513	-1.179223	0.707001
N	-0.982163	-2.068895	1.316279
N	-0.400896	1.252278	0.626323
H	0.378193	1.595426	1.174673
H	-1.21284	1.140088	1.218226
Br	3.37584	0.0	0.0
