14

C	0.0	0.0	0.0
C	-0.443935	0.051578	-1.466624
Br	1.952611	0.0	0.0
H	-1.556758	0.180173	-1.316323
H	-0.381485	-0.939926	0.383341
C	-0.407668	1.089004	0.86744
N	-0.71501	1.972591	1.593574
N	-0.079628	-1.141763	-2.12715
H	0.906769	-1.104504	-2.373921
H	-0.590196	-1.22845	-2.996092
N	0.124974	1.290819	-2.156999
O	-0.131218	2.38913	-1.671555
O	0.816972	1.124274	-3.166068
F	-2.549703	0.0	0.0
