14

C	0.0	0.0	0.0
C	-0.576846	0.003955	-1.438819
Br	1.948964	0.0	0.0
H	-1.558444	0.482899	-1.289659
H	-0.352033	-0.90236	0.489249
C	-0.402997	1.160752	0.793099
N	-0.584982	2.102145	1.472087
N	-0.817932	-1.290507	-1.986923
H	-0.025299	-1.909228	-1.846558
H	-1.627704	-1.613599	-1.464925
N	0.277567	0.836757	-2.341941
O	0.372227	2.024726	-2.034837
O	0.82285	0.314421	-3.311097
F	-2.564572	0.0	0.0
