14

C	0.0	0.0	0.0
C	-0.59455	0.620919	-1.329143
Br	1.946294	0.0	0.0
H	-1.302896	1.38015	-1.020381
H	-0.342458	-1.027326	0.068423
C	-0.42085	0.740038	1.185066
N	-0.584814	1.372273	2.162183
N	-1.274218	-0.301525	-2.174076
H	-2.065178	-0.520552	-1.539387
H	-0.693696	-1.115867	-2.341868
N	0.475835	1.342398	-2.106021
O	1.034493	0.751135	-3.026766
O	0.733883	2.490857	-1.745786
F	-2.560382	0.0	0.0
