18

C	-0.232313	0.069931	-1.516486
C	0.0	0.0	0.0
Br	-2.174911	0.351226	-1.930951
H	1.100806	0.0	0.0
N	0.477371	1.232448	-1.988921
H	1.438687	1.163918	-1.644721
H	0.500257	1.225718	-3.003207
C	0.174852	-1.229195	-2.19687
H	1.22241	-1.41608	-1.934851
H	0.087938	-1.123905	-3.282271
H	-0.438213	-2.072701	-1.875344
C	-0.505891	-1.237819	0.576773
N	-0.949647	-2.211325	1.062846
C	-0.487438	1.215275	0.785782
H	-1.576759	1.230249	0.856319
H	-0.147917	2.119801	0.282829
H	-0.061197	1.187618	1.790767
Cl	3.320771	0.0	0.0
