18

C	-0.436203	0.033528	-1.476062
C	0.0	0.0	0.0
Br	-0.098251	-1.737439	-2.280846
H	1.09609	0.0	0.0
N	-1.87272	0.246528	-1.581333
H	-2.148858	0.159046	-2.554756
H	-2.066247	1.202677	-1.297083
C	0.42506	1.022444	-2.254551
H	0.206513	2.039536	-1.912926
H	0.194122	0.96444	-3.321165
H	1.485379	0.818986	-2.088133
C	-0.525137	-1.1614	0.711015
N	-0.937945	-2.055729	1.351133
C	-0.431866	1.265835	0.760659
H	-0.053662	2.163047	0.267475
H	0.012194	1.236167	1.757072
H	-1.517808	1.326878	0.870347
Cl	3.382013	0.0	0.0
