18

C	-0.53412	0.035243	-1.446162
C	0.0	0.0	0.0
Br	0.184764	1.655792	-2.342889
H	1.094896	0.0	0.0
N	-0.01194	-1.088784	-2.175155
H	-0.152498	-1.951004	-1.657004
H	-0.44955	-1.159509	-3.085868
C	-2.053213	0.165775	-1.511679
H	-2.41439	1.086712	-1.052924
H	-2.37459	0.158771	-2.554495
H	-2.504178	-0.693028	-1.003713
C	-0.458083	-1.256345	0.59953
N	-0.885569	-2.258793	1.041782
C	-0.448117	1.16483	0.888496
H	-0.144672	2.106975	0.431694
H	0.061659	1.080274	1.848508
H	-1.5258	1.171735	1.064128
Cl	3.401125	0.0	0.0
