18

C	-0.442881	0.054472	-1.472528
C	0.0	0.0	0.0
Br	-0.081433	-1.696461	-2.309882
H	1.093242	0.0	0.0
N	-1.883684	0.247099	-1.567141
H	-2.090704	1.194571	-1.264065
H	-2.162232	0.172524	-2.540038
C	0.400183	1.07142	-2.236361
H	0.165803	1.027587	-3.302903
H	0.166934	2.079282	-1.876962
H	1.464593	0.881224	-2.077679
C	-0.520694	-1.174875	0.692743
N	-0.957032	-2.071112	1.314216
C	-0.430483	1.251203	0.784551
H	0.014218	1.201483	1.780158
H	-0.051249	2.156995	0.308427
H	-1.516292	1.311777	0.897116
Cl	3.377772	0.0	0.0
