18

C	-0.440039	0.046273	-1.474303
C	0.0	0.0	0.0
Br	-0.129108	-1.724978	-2.290741
H	1.095362	0.0	0.0
N	-1.874412	0.280108	-1.573695
H	-2.154718	0.201418	-2.546422
H	-2.052641	1.238025	-1.284605
C	0.433064	1.027407	-2.249685
H	0.191639	0.985513	-3.314624
H	0.23734	2.044128	-1.89492
H	1.490515	0.803322	-2.094428
C	-0.523218	-1.166532	0.703802
N	-0.963012	-2.050642	1.339816
C	-0.4299	1.2593	0.772721
H	-1.514673	1.314488	0.892738
H	0.024439	1.225209	1.764288
H	-0.060225	2.160967	0.281393
Cl	3.385575	0.0	0.0
