18

C	-0.376945	-0.038979	-1.507787
C	0.0	0.0	0.0
Br	-0.005762	1.755471	-2.267959
H	1.096695	0.0	0.0
N	0.457638	-0.963748	-2.238359
H	1.429395	-0.805857	-1.96839
H	0.213465	-1.906228	-1.946469
C	-1.840341	-0.337681	-1.779314
H	-2.01754	-0.317428	-2.854963
H	-2.087601	-1.332408	-1.397089
H	-2.489862	0.393291	-1.296189
C	-0.42181	-1.285949	0.560217
N	-0.789652	-2.317007	0.989721
C	-0.53859	1.143163	0.856083
H	-0.106309	2.085883	0.52248
H	-1.629962	1.210341	0.812008
H	-0.241753	0.983606	1.895575
Cl	3.341469	0.0	0.0
