18

C	-0.241226	-0.011654	-1.514635
C	0.0	0.0	0.0
Br	-2.190345	0.232338	-1.927056
H	1.109739	0.0	0.0
N	0.458609	1.129479	-2.053944
H	0.481155	1.065441	-3.065968
H	1.419932	1.086658	-1.707168
C	0.169184	-1.342221	-2.129756
H	-0.423581	-2.174154	-1.745578
H	1.224665	-1.500607	-1.881826
H	0.054751	-1.301198	-3.216254
C	-0.500168	-1.204709	0.645828
N	-0.929175	-2.152331	1.192262
C	-0.483253	1.254291	0.723929
H	-0.057677	1.275079	1.729572
H	-1.572891	1.276934	0.793126
H	-0.141051	2.132843	0.17799
Cl	3.319094	0.0	0.0
