13
Coordinates from ORCA-job run
  C   -0.55728066476724     -0.42512566693791      0.36934613148205
  C   0.89090778717851     -0.20627944307974     -0.12187109786164
  H   -0.74140444262652     -1.50320912578578      0.36663723220480
  H   0.97547705286160     -0.56997356882044     -1.15368149780562
  H   -0.62248153202264     -0.08673972740184      1.40687044249899
  C   -1.57107514757788      0.30075234064814     -0.50562738957088
  H   -1.50538072119666     -0.03117723959168     -1.54502768969849
  H   -1.41742200701966      1.38144901452178     -0.48120915274214
  H   -2.58480966654945      0.09913320685203     -0.15484493298225
  C   1.84576039863709     -0.95904614539992      0.70009681480158
  N   2.57441093033295     -1.59028627408081      1.36964579965671
  C   1.23878047626262      1.22020941253577     -0.12333343236355
  N   1.47351753648730      2.37029321654040     -0.12800122761956
