13
Coordinates from ORCA-job run
  C   -0.60240572285237     -0.40483625306242      0.31760645792682
  C   0.89515352365083     -0.22316527545966     -0.01545181414404
  H   -0.80481980158831     -1.47961275099914      0.32642373134940
  H   1.08656623414943     -0.62010983076491     -1.02034102721125
  H   -0.77633943591502     -0.03274862323411      1.33077984332676
  C   -1.49908379952194      0.30792264356895     -0.68658067826001
  H   -2.54920799536757      0.13135205891617     -0.44665891975214
  H   -1.32288583670312     -0.05691522435726     -1.70188005585498
  H   -1.33023904184819      1.38658203139945     -0.67638935047387
  C   1.73924544170657     -0.96449225127631      0.92904277362741
  N   2.37821012990053     -1.58480545084564      1.69363689138893
  C   1.26659025737630      1.19729399107336     -0.01969203695126
  N   1.51921604701286      2.34353493504152     -0.03049581497178
