13
Coordinates from ORCA-job run
  C   -0.59102861730655     -0.10128643169555      0.51911052278706
  C   0.81207413829613      0.41653545646481      0.13230488577417
  H   -0.99107449313846      0.58039566966400      1.27486312784797
  H   0.71212882316570      1.41396900561729     -0.31405787989307
  H   -0.47747435956447     -1.08040543105674      0.99160260155374
  C   -1.52027065714199     -0.18076267033800     -0.68523806635205
  H   -2.51209916859973     -0.51500173047795     -0.37511651465734
  H   -1.63132908105338      0.79624305211475     -1.16299361430072
  H   -1.14736482248967     -0.88583451083809     -1.43095275513691
  C   1.44094111143323     -0.45597758135157     -0.86729323250652
  N   1.90261108203013     -1.16581747710759     -1.68015441722180
  C   1.67474220570746      0.53721459038506      1.31356316266825
  N   2.32814383866160      0.63872805861957      2.28336217943723
