18

C	-0.50136	0.034801	-1.439576
C	0.0	0.0	0.0
Br	0.017993	-1.696949	-2.280003
H	1.094751	0.0	0.0
H	-0.344478	-0.924526	0.4777
C	-2.016913	0.105897	-1.562922
H	-2.373507	1.064169	-1.171672
H	-2.489057	-0.699185	-0.993467
H	-2.329805	0.022044	-2.607014
C	0.192433	1.129755	-2.237529
H	1.274324	1.054693	-2.094832
H	-0.054513	1.061407	-3.300911
H	-0.141425	2.107645	-1.872534
C	-0.446993	1.203211	0.832642
H	0.020967	1.126745	1.81829
H	-0.096462	2.141708	0.396421
H	-1.531144	1.2666	0.974874
H	3.105494	0.0	0.0
