17
Coordinates from ORCA-job run
  C   -0.54203351539366      0.07475948208679     -0.42327013712551
  C   0.99481153136225      0.19121912965646     -0.34479020714349
  Cl  -0.94344574905582     -0.12352765565268     -2.16885463585306
  H   1.28092708939920      1.06046057026583     -0.94562498419082
  C   -1.18927623294251      1.35819260278314      0.06755175151756
  H   -0.83933631309261      2.21401509961586     -0.51419105138964
  H   -2.27356709361544      1.29206197727631     -0.03985441540100
  H   -0.93482810087144      1.51785329935709      1.11551858207918
  C   -1.05425525089787     -1.14276657718053      0.32597723175003
  H   -2.13537111605288     -1.22672789678024      0.20300196640011
  H   -0.84305600380260     -1.03646699711143      1.39370552467628
  H   -0.59632557191024     -2.06162547057896     -0.04580508622420
  C   1.65199646270804     -0.99322766905000     -0.93255875511575
  N   2.21566987040875     -1.95256427825247     -1.31003936495282
  N   1.40967770800930      0.43252795752054      1.03423477720709
  H   1.46371821119562     -0.44374260246521      1.54016667385074
  H   2.33569407455190      0.84255902850950      1.04583212991531
