17
Coordinates from ORCA-job run
  C   -0.48381304194455      0.07044249163809      0.33184339055481
  C   0.92876373747306     -0.16351156990963     -0.24814933132573
  Cl  -0.30649919090725      0.37963661726123      2.09317411628603
  H   0.78045215059092     -0.42505034118095     -1.30572359297625
  C   -1.35498112974284     -1.16131534203306      0.14790809169373
  H   -2.35028067799623     -0.97906121116027      0.55671711662140
  H   -0.93105373864331     -2.02949520236009      0.65543427715808
  H   -1.45705856670875     -1.38991331537795     -0.91811823727632
  C   -1.09826326287342      1.30212901753908     -0.30833564691002
  H   -2.07857835905210      1.50143492351134      0.12796368686574
  H   -1.22703733869486      1.13680161246023     -1.38383136749888
  H   -0.45575879291450      2.16737774439951     -0.15018204559550
  C   1.55795671344319     -1.33807668621175      0.37176310822933
  N   2.06426861694005     -2.30306933137858      0.80953412682044
  N   1.76998143789823      1.02357998515844     -0.13189690588384
  H   2.61055430002660      0.84147280558601      0.39698413229736
  H   2.03234714310575      1.36561780205835     -1.04508491906037
