17
Coordinates from ORCA-job run
  C   -0.42534317627746      0.36339204361630      0.22327928748396
  C   1.08955228476646      0.28578081003226     -0.11713850465909
  Cl  -0.55766730466878      1.53974376835412      1.58847847105974
  H   1.40001949311101      1.29966960365953     -0.39629469723724
  C   -0.98006588211810     -0.96949009754030      0.69026469114109
  H   -0.45537545831689     -1.33279357186840      1.57502056035500
  H   -0.88970233033928     -1.71076340077278     -0.10910287380582
  H   -2.03532975562862     -0.86581167118759      0.94834209958846
  C   -1.21240070371701      0.92694904807160     -0.94813280197162
  H   -1.18925599348964      0.22876159042497     -1.78846587430582
  H   -0.79641829221109      1.88333095910859     -1.27359095752132
  H   -2.25256508953072      1.08831371434580     -0.65950169640201
  C   1.25342125158467     -0.56684446019232     -1.30371331756568
  N   1.33911388719776     -1.25914172350305     -2.24810522220922
  N   1.99937644890431     -0.17668532688221      0.91368543082199
  H   1.90571431653724      0.40406340061882      1.73768863048083
  H   1.80592630419616     -1.13747468628533      1.16628677474676
