18

C	-0.28321	-0.050036	-1.513032
C	0.0	0.0	0.0
Cl	0.052529	1.535556	-2.211401
H	1.091965	0.0	0.0
N	0.532234	-1.019095	-2.182933
H	1.504129	-0.81619	-1.939038
H	0.299656	-1.93938	-1.828593
N	-1.741915	-0.433936	-1.811359
O	-2.545618	0.411968	-2.171342
O	-1.988833	-1.625693	-1.627225
C	-0.483361	-1.190323	0.809091
H	-0.093704	-1.078982	1.823917
H	-0.071268	-2.114093	0.402929
H	-1.570617	-1.259257	0.838349
N	-0.563011	1.227875	0.621767
O	-1.790326	1.348297	0.554045
O	0.197674	2.013849	1.175874
Cl	3.303745	0.0	0.0
