18

C	-0.340081	0.054587	-1.48965
C	0.0	0.0	0.0
Cl	-2.108705	-0.063151	-1.837692
H	1.090863	0.0	0.0
N	0.182194	1.220517	-2.057242
H	1.127624	1.37761	-1.707502
H	0.183422	1.152435	-3.06675
N	0.211497	-1.230342	-2.224129
O	0.202029	-2.304224	-1.644477
O	0.564651	-1.047582	-3.383737
C	-0.56876	-1.107075	0.859438
H	-0.334061	-0.88066	1.898819
H	-1.648381	-1.184718	0.757394
H	-0.100796	-2.048625	0.600545
N	-0.43582	1.322477	0.573723
O	0.369272	2.248848	0.55587
O	-1.574917	1.38782	1.04036
Cl	3.270607	0.0	0.0
