18

C	-0.539729	-0.020628	-1.424887
C	0.0	0.0	0.0
Cl	0.329519	-1.279344	-2.332826
H	1.088035	0.0	0.0
N	-1.930039	-0.262403	-1.527285
H	-2.196074	-0.248122	-2.504643
H	-2.40615	0.493133	-1.046709
N	-0.139716	1.300557	-2.156484
O	0.794572	1.94688	-1.708783
O	-0.80581	1.569269	-3.154284
C	-0.472308	-1.194342	0.817518
H	-0.174632	-2.112404	0.312522
H	0.024762	-1.160347	1.787326
H	-1.556966	-1.195296	0.943084
N	-0.458225	1.237625	0.710793
O	-1.367366	1.912988	0.21058
O	0.071436	1.479904	1.785402
Cl	3.319493	0.0	0.0
