15

C	-0.537144	-0.0504	-1.523024
C	0.021305	-0.078302	-0.105254
Br	-2.642449	-0.228391	-1.370746
H	1.088354	-0.298854	-0.174643
H	-0.462151	-0.884034	0.452255
N	-0.133936	1.06879	-2.183267
H	-0.573548	1.25372	-3.070183
H	-0.115831	1.822862	-1.489751
N	-0.249523	-1.292093	-2.341391
O	-0.025481	-2.33009	-1.728317
O	-0.264383	-1.173444	-3.563608
N	-0.08172	1.253492	0.457002
H	0.881502	1.340369	0.966136
H	-0.851206	1.283426	1.114337
F	2.225872	1.008376	1.367246
