15

C	0.0	0.0	0.0
C	-0.468115	-0.347045	-1.417696
Br	2.035349	0.0	0.0
H	-1.51992	-0.638351	-1.342178
H	0.129062	-1.151339	-1.847484
N	-0.416138	1.250054	0.556968
H	-0.179976	2.00524	-0.074164
H	-1.435126	1.18638	0.634205
N	-0.407496	-1.115568	0.799727
H	-0.159198	-0.902291	1.760334
H	-1.430406	-1.134553	0.746775
N	-0.467909	0.750988	-2.432687
O	-1.092603	0.499883	-3.461823
O	0.153897	1.791877	-2.225346
Cl	-3.506279	0.0	0.0
