15

C	0.0	0.0	0.0
C	-0.457649	0.320683	-1.421746
Br	2.011017	0.0	0.0
H	-1.550692	0.398882	-1.396199
H	-0.124371	-0.469457	-2.088465
N	-0.416226	1.010541	0.923359
H	-0.236103	0.68009	1.865737
H	-1.428938	1.100021	0.81136
N	-0.413819	-1.368484	0.232932
H	-0.148124	-1.619748	1.180151
H	-1.438706	-1.327956	0.218466
N	0.081372	1.592561	-1.96881
O	0.849224	1.504667	-2.929686
O	-0.277087	2.646171	-1.453898
Cl	-3.532192	0.0	0.0
