15

C	0.0	0.0	0.0
C	-0.175002	-0.204753	-1.53225
Br	2.035518	0.0	0.0
H	-0.045336	-1.263209	-1.743192
H	0.57048	0.384233	-2.059119
N	-0.495636	1.220359	0.408168
H	-0.366481	2.025369	-0.178484
H	-0.587759	1.391072	1.392564
N	-0.500748	-1.124592	0.719113
H	-0.288013	-1.019041	1.705601
H	-1.52487	-1.031029	0.607898
N	-1.446011	0.23598	-2.195945
O	-1.637038	1.44852	-2.230506
O	-2.102618	-0.615306	-2.782652
Cl	-3.61697	0.0	0.0
