15

C	0.0	0.0	0.0
C	-0.458758	-0.218503	-1.441677
Br	2.010438	0.0	0.0
H	-0.107994	0.605012	-2.055404
H	-1.551782	-0.281023	-1.420778
N	-0.41915	1.341636	0.335999
H	-0.13537	1.541474	1.289291
H	-1.443563	1.308777	0.319808
N	-0.407543	-1.091034	0.833394
H	-0.200039	-0.860387	1.798866
H	-1.423924	-1.159926	0.735364
N	0.050497	-1.46689	-2.061432
O	0.925996	-1.351286	-2.922183
O	-0.446072	-2.531465	-1.704227
Cl	-3.53627	0.0	0.0
