15

C	0.0	0.0	0.0
C	-0.387832	-0.17942	-1.456386
Br	2.141498	0.0	0.0
H	-0.046354	0.673245	-2.032966
H	-1.486169	-0.264166	-1.459479
N	-0.404828	1.312469	0.387186
H	-0.069437	1.504446	1.324535
H	-1.43271	1.257705	0.417306
N	-0.426889	-1.019941	0.818404
H	-0.311372	-0.859399	1.80493
H	-0.211159	-1.953889	0.510203
N	0.160651	-1.387416	-2.12274
O	0.553589	-1.251286	-3.27947
O	0.150755	-2.457956	-1.514954
Cl	-3.553569	0.0	0.0
