15

C	0.0	0.0	0.0
C	-0.434669	0.032696	-1.463379
Br	2.048237	0.0	0.0
H	-1.528866	0.151472	-1.43189
H	-0.143677	-0.883969	-1.970436
N	-0.480616	1.087393	0.708747
H	-0.322997	1.984655	0.280851
H	-0.276544	1.038245	1.69387
N	-0.432031	-1.18604	0.668866
H	-0.127273	-2.015055	0.173817
H	-1.457663	-1.131922	0.677955
N	0.132404	1.140667	-2.274393
O	0.590924	0.856288	-3.379583
O	0.085307	2.282027	-1.814704
Cl	-3.627437	0.0	0.0
