15

C	0.0	0.0	0.0
C	-0.440239	-0.030297	-1.461328
Br	2.048041	0.0	0.0
H	-0.16297	0.8922	-1.965331
H	-1.533445	-0.158419	-1.423959
N	-0.437536	1.180878	0.673013
H	-0.139981	2.012775	0.178228
H	-1.462962	1.120087	0.684177
N	-0.471678	-1.094504	0.707922
H	-0.255835	-1.042816	1.690719
H	-0.288249	-1.987158	0.280229
N	0.130392	-1.128067	-2.283203
O	0.118103	-2.269181	-1.821334
O	0.55527	-0.835775	-3.399653
Cl	-3.625595	0.0	0.0
