15

C	0.0	0.0	0.0
C	-0.466649	-0.148963	-1.451809
Br	1.971766	0.0	0.0
H	-1.560348	-0.119808	-1.441478
H	-0.034664	0.647062	-2.051204
N	-0.422786	1.328655	0.39431
H	-0.108056	1.502254	1.3434
H	-1.446902	1.288547	0.40726
N	-0.436532	-1.129491	0.767825
H	-1.454261	-1.167586	0.662923
H	-0.227013	-0.966189	1.746805
N	-0.066266	-1.435522	-2.075487
O	0.929438	-1.425975	-2.804754
O	-0.758978	-2.423578	-1.845428
Cl	-3.552547	0.0	0.0
