15

C	-0.502743	0.049063	-1.438967
C	0.0	0.0	0.0
Cl	-2.26134	0.220263	-1.546856
H	1.097567	0.0	0.0
H	-0.046826	0.871037	-1.988483
N	-0.06199	-1.196805	-2.169524
O	1.080661	-1.134092	-2.610323
O	-0.823089	-2.151081	-2.24917
N	-0.453742	-1.201701	0.646318
H	-1.359856	-1.047522	1.071581
H	0.219054	-1.486196	1.34511
N	-0.481305	1.213629	0.690602
H	-0.019732	1.201736	1.596734
H	-0.089697	2.022875	0.212098
Br	3.580144	0.0	0.0
