15

C	-0.613529	-0.0222	-1.388002
C	0.0	0.0	0.0
Cl	-0.006807	-1.346965	-2.395263
H	1.097335	0.0	0.0
H	-1.694351	-0.11852	-1.320564
N	-0.368337	1.275971	-2.094655
O	-1.374611	1.895962	-2.437683
O	0.790368	1.619075	-2.267373
N	-0.526502	-1.179043	0.713699
H	-0.177531	-2.010765	0.243837
H	-0.059933	-1.176814	1.618082
N	-0.451428	1.225989	0.627674
H	-1.300217	1.048576	1.149877
H	0.268254	1.575612	1.244364
Br	3.602646	0.0	0.0
