15

C	-0.554758	-0.043876	-1.429513
C	0.0	0.0	0.0
Cl	0.152916	-1.339371	-2.394749
H	1.09901	0.0	0.0
H	-1.633485	-0.186016	-1.394824
N	-0.348666	1.279502	-2.108183
O	-1.324173	2.035268	-2.077993
O	0.749035	1.54736	-2.568469
N	-0.557807	-1.181604	0.669627
H	0.014595	-1.980129	0.415178
H	-0.394336	-1.014495	1.65627
N	-0.435424	1.173579	0.723495
H	-1.373026	1.457919	0.467452
H	0.209724	1.93549	0.559745
Br	3.582634	0.0	0.0
