15

C	-0.460998	-0.04454	-1.454428
C	0.0	0.0	0.0
Cl	0.230032	1.24979	-2.431392
H	1.099207	0.0	0.0
H	-0.182554	-1.002597	-1.881574
N	-1.967178	0.018974	-1.51833
O	-2.540595	-1.068173	-1.464507
O	-2.516201	1.114149	-1.554442
N	-0.411516	-1.231413	0.645134
H	0.305308	-1.505935	1.304151
H	-1.285028	-1.076872	1.134413
N	-0.564513	1.171991	0.673465
H	-0.000242	1.321574	1.504498
H	-0.428048	1.994719	0.09409
Br	3.545943	0.0	0.0
