15

C	-0.504644	0.104534	-1.435478
C	0.0	0.0	0.0
Cl	-2.251703	0.374414	-1.534259
H	1.097585	0.0	0.0
H	-0.004934	0.911948	-1.969532
N	-0.138125	-1.149455	-2.191544
O	-0.950011	-2.059962	-2.279215
O	1.002479	-1.14242	-2.64364
N	-0.455067	-1.222645	0.606228
H	-1.355068	-1.07518	1.045539
H	0.220403	-1.532086	1.291334
N	-0.474601	1.188539	0.737696
H	0.048427	1.179685	1.610834
H	-0.146761	2.019358	0.247537
Br	3.545624	0.0	0.0
