18

C	-0.450899	0.046428	-1.440941
C	0.0	0.0	0.0
F	-1.758502	0.607935	-1.55318
H	1.087814	0.0	0.0
N	0.358961	1.121455	-2.209371
O	0.4257	0.970872	-3.429514
O	0.795787	2.08585	-1.597451
N	-0.307594	-1.128918	-2.165506
H	-0.836948	-1.869131	-1.732143
H	-0.529355	-0.980177	-3.138126
N	-0.421746	-1.241749	0.699159
O	0.006548	-1.378108	1.84201
O	-1.187549	-2.066352	0.172829
C	-0.485935	1.152851	0.870695
H	-0.300322	2.096794	0.364579
H	-1.554017	1.069575	1.103909
H	0.097902	1.136575	1.791872
F	2.51175	0.0	0.0
