18

C	-0.131054	0.081357	-1.525043
C	0.0	0.0	0.0
F	-0.305352	-1.172811	-2.123267
H	1.092768	0.0	0.0
N	-1.456586	0.743065	-1.960499
O	-1.426744	1.6209	-2.817917
O	-2.472164	0.295639	-1.43524
N	0.955843	0.79355	-1.984377
H	1.040673	0.812306	-2.988874
H	1.813745	0.531912	-1.444734
N	-0.528925	-1.251025	0.578425
O	-1.444303	-1.17237	1.404649
O	0.00295	-2.306071	0.239057
C	-0.514485	1.230284	0.709709
H	-1.602423	1.297888	0.701582
H	-0.171239	1.218058	1.745353
H	-0.07891	2.103292	0.219816
F	2.642803	0.0	0.0
