18

C	-0.115774	0.020749	-1.51864
C	0.0	0.0	0.0
F	0.020588	-1.278127	-1.9798
H	1.093269	0.0	0.0
N	-1.471051	0.475909	-2.095317
O	-1.876384	1.570666	-1.713301
O	-2.043914	-0.243274	-2.908102
N	0.88992	0.875103	-1.988918
H	1.029184	0.74991	-2.984727
H	1.753722	0.653088	-1.445183
N	-0.630355	-1.214204	0.555509
O	-0.051154	-1.806606	1.463299
O	-1.746028	-1.516049	0.122306
C	-0.499627	1.202859	0.772413
H	-0.135406	1.113899	1.799926
H	-1.589618	1.283004	0.769533
H	-0.075428	2.103442	0.32948
F	2.6371	0.0	0.0
