18

C	-0.098997	-0.021934	-1.519304
C	0.0	0.0	0.0
F	0.078071	-1.328781	-1.940735
H	1.105179	0.0	0.0
N	-1.447643	0.380407	-2.139907
O	-1.910863	-0.31371	-3.039314
O	-1.949556	1.417254	-1.71658
N	0.893534	0.844668	-2.005054
H	1.75685	0.647512	-1.451059
H	1.045329	0.684442	-2.994129
N	-0.631783	-1.195147	0.589042
O	-1.710252	-1.563051	0.110207
O	-0.094714	-1.704986	1.571241
C	-0.489425	1.227066	0.741164
H	-1.57873	1.310017	0.745355
H	-0.067987	2.11205	0.265823
H	-0.113616	1.169027	1.766694
F	2.635185	0.0	0.0
