18

C	-0.202516	0.014371	-1.52718
C	0.0	0.0	0.0
F	-0.712085	-1.185723	-2.003828
H	1.10409	0.0	0.0
N	-1.357276	0.988572	-1.887483
O	-2.494565	0.60258	-1.646839
O	-1.06714	2.096408	-2.33493
N	0.974633	0.384967	-2.149988
H	0.903359	1.175603	-2.768373
H	1.792919	0.358276	-1.509628
N	-0.531579	-1.216903	0.644385
O	-1.425531	-1.09306	1.491473
O	-0.029518	-2.292756	0.324222
C	-0.462286	1.26479	0.687088
H	0.031052	2.11275	0.20579
H	-1.545034	1.3993	0.66054
H	-0.13856	1.241293	1.728093
F	2.628706	0.0	0.0
