18

C	-0.651005	-0.109824	-1.365809
C	0.0	0.0	0.0
F	-0.292252	1.025724	-2.069075
H	1.089308	0.0	0.0
N	-0.035396	-1.232311	-2.233266
O	1.146309	-1.100575	-2.499411
O	-0.772589	-2.128258	-2.641347
N	-2.057972	-0.261346	-1.389787
H	-2.297387	-1.191293	-1.695863
H	-2.454235	-0.075572	-0.482269
N	-0.414117	-1.147576	0.813677
O	-0.619507	-0.990889	2.021608
O	-0.485222	-2.245851	0.249137
C	-0.341084	1.313704	0.682967
H	0.004283	2.121015	0.038337
H	0.220686	1.360795	1.614653
H	-1.407959	1.449484	0.908912
F	2.489932	0.0	0.0
