18

C	-0.162241	-0.0723	-1.533585
C	0.0	0.0	0.0
F	-1.315957	-0.696863	-1.916236
H	1.099635	0.0	0.0
N	-0.306256	1.381557	-2.008699
O	-1.435805	1.795633	-2.254184
O	0.726083	2.037017	-2.054849
N	0.951719	-0.630541	-2.21499
H	1.77966	-0.373393	-1.642612
H	0.854972	-1.634181	-2.104457
N	-0.431447	-1.304378	0.550071
O	-0.045561	-2.32893	-0.017427
O	-1.134187	-1.315595	1.565136
C	-0.644455	1.153956	0.72418
H	-0.437038	1.073219	1.790172
H	-0.19863	2.083742	0.370624
H	-1.727294	1.190693	0.582098
F	2.591331	0.0	0.0
