16

C	-0.420115	0.007536	-1.460967
C	0.0	0.0	0.0
Br	-2.390174	0.145931	-1.613825
H	1.093847	0.0	0.0
H	-0.206913	-1.004896	-1.804325
C	0.258916	1.028691	-2.349303
H	1.334192	0.971798	-2.157194
H	-0.076802	2.040374	-2.134489
H	0.058379	0.798575	-3.397267
N	-0.47216	-1.148012	0.69244
H	-1.431501	-1.019069	0.989344
H	0.106262	-1.303291	1.507474
N	-0.421485	1.304356	0.670402
O	0.055656	2.347005	0.230759
O	-1.218414	1.240149	1.60987
Cl	3.314475	0.0	0.0
