16

C	-0.347934	0.009227	-1.490666
C	0.0	0.0	0.0
Br	-2.303471	-0.089635	-1.788812
H	1.093113	0.0	0.0
H	0.018987	-0.948298	-1.866195
C	0.264907	1.142738	-2.290656
H	1.334414	1.18039	-2.052191
H	-0.184993	2.101243	-2.03263
H	0.130354	0.964974	-3.361
N	-0.454693	-1.111028	0.771632
H	-1.388607	-1.405165	0.517125
H	0.207512	-1.869322	0.682085
N	-0.499538	1.272472	0.631792
O	0.138443	2.301299	0.408348
O	-1.537086	1.213446	1.292011
Cl	3.341124	0.0	0.0
