16

C	-0.501622	-0.114986	-1.437733
C	0.0	0.0	0.0
Br	-0.214659	1.555554	-2.422764
H	1.090837	0.0	0.0
H	-1.587226	-0.244509	-1.434547
C	0.226378	-1.239392	-2.15198
H	-0.000103	-2.192852	-1.665754
H	-0.08317	-1.302318	-3.196636
H	1.303722	-1.06875	-2.095646
N	-0.42528	-1.104382	0.820801
H	-1.29024	-1.524109	0.508761
H	0.314989	-1.787691	0.885611
N	-0.579847	1.239799	0.618562
O	0.168054	2.111744	1.041394
O	-1.812828	1.270877	0.66633
Cl	3.376756	0.0	0.0
