16

C	-0.560876	-0.097214	-1.417423
C	0.0	0.0	0.0
Br	-0.411988	1.598793	-2.388499
H	1.090944	0.0	0.0
H	-1.63651	-0.285468	-1.360402
C	0.178862	-1.180869	-2.179238
H	-0.203287	-1.270378	-3.198272
H	0.043692	-2.127863	-1.653671
H	1.245529	-0.947939	-2.202606
N	-0.44388	-1.158412	0.726931
H	0.195003	-1.336909	1.491475
H	-1.380683	-1.008226	1.08141
N	-0.516669	1.266752	0.652002
O	0.247774	2.204776	0.834705
O	-1.717527	1.261157	0.950477
Cl	3.381563	0.0	0.0
