16

C	-0.596522	0.006573	-1.407342
C	0.0	0.0	0.0
Br	0.010837	-1.581446	-2.353941
H	1.090671	0.0	0.0
H	-0.176085	0.843246	-1.961521
C	-2.111876	0.029773	-1.409746
H	-2.496958	-0.849596	-0.891505
H	-2.497808	0.028099	-2.4302
H	-2.478073	0.930506	-0.909526
N	-0.469205	-1.066511	0.819734
H	0.262895	-1.322008	1.468507
H	-1.285265	-0.788012	1.349112
N	-0.386448	1.373392	0.569955
O	-0.060245	2.360962	-0.083137
O	-1.029204	1.413173	1.620913
Cl	3.309137	0.0	0.0
