16

C	-0.342232	-0.069039	-1.486045
C	0.0	0.0	0.0
Br	-2.299142	-0.16294	-1.784418
H	1.094555	0.0	0.0
H	0.012162	-1.048488	-1.808742
C	0.272093	1.016775	-2.342597
H	-0.169034	1.988284	-2.133401
H	0.134795	0.779524	-3.398647
H	1.340506	1.063832	-2.108635
N	-0.447634	-1.085726	0.803674
H	0.268396	-1.794929	0.85474
H	-1.33102	-1.467909	0.49345
N	-0.507645	1.30167	0.55989
O	-1.529996	1.277315	1.242324
O	0.110187	2.318291	0.245996
Cl	3.30741	0.0	0.0
