16

C	-0.345137	0.008952	-1.489604
C	0.0	0.0	0.0
Br	-2.30096	-0.074694	-1.786068
H	1.093177	0.0	0.0
H	0.012057	-0.952446	-1.863911
C	0.264842	1.138354	-2.2918
H	1.331507	1.174403	-2.05195
H	0.131811	0.954474	-3.360086
H	-0.180509	2.098805	-2.037207
N	-0.450686	-1.115876	0.760642
H	0.255762	-1.837544	0.750471
H	-1.347558	-1.465554	0.454862
N	-0.499827	1.275726	0.628549
O	-1.520289	1.221458	1.310919
O	0.125246	2.305138	0.374215
Cl	3.317437	0.0	0.0
