12
Coordinates from ORCA-job run
  C   -0.72511410510094      0.04523218756150      0.25008458259700
  C   0.64979784825790     -0.49646325563699     -0.14549640626891
  F   -0.72438311400115      0.24914922882774      1.62064408104655
  H   0.76220741143063     -1.46277300647288      0.36577237629273
  H   0.64428164660259     -0.68166911196740     -1.22244847956692
  C   -1.00195202847000      1.32732820592053     -0.41724362710031
  N   -1.24775441122977      2.32905960113139     -0.97737052718467
  C   -1.78326928361358     -0.92659014285726     -0.07594151747854
  N   -2.58901833374652     -1.73334732835335     -0.35604855250882
  N   1.64176323321765      0.50323976190904      0.18391755421716
  H   2.46985393659004      0.39834574525956     -0.38392006322536
  H   1.90358720006313      0.44848811467813      1.15805057918008
