12
Coordinates from ORCA-job run
  C   -0.64941802261227      0.40933875745308      0.03088154300417
  C   0.73083748281324     -0.10701431852942     -0.37970178978174
  F   -0.46515446598106      1.49559865093317      0.87121600165945
  H   0.58890253924254     -0.94887140035133     -1.06181026968263
  H   1.21362191761033      0.70678864285523     -0.93866406481301
  C   -1.41175600461885      0.85609184957374     -1.14793895898183
  N   -1.97762734784301      1.19769908682861     -2.11834628067482
  C   -1.40832044738663     -0.62308652603616      0.75461214138100
  N   -2.03601250947134     -1.45416479238627      1.29584718376753
  N   1.42419721630517     -0.54218626457415      0.81272089166990
  H   2.13159531342060     -1.22876590594553      0.59496906577280
  H   1.85913432852129      0.23757222017902      1.28521453667919
