12
Coordinates from ORCA-job run
  C   -0.70918715902988     -0.09197037290210     -0.28153145573841
  C   0.65041594730220     -0.36696757251771      0.36340012652192
  F   -0.63025877725049     -0.45853253232162     -1.61540978946468
  H   0.58315570677355     -0.10404674110722      1.42186590288885
  H   0.81506516402267     -1.45107540726639      0.29131256629898
  C   -1.76396395974467     -0.89446114719396      0.36195021203385
  N   -2.56819274627282     -1.55071160407986      0.91064041361022
  C   -1.05370885444358      1.33678954805782     -0.20484612560747
  N   -1.35712437625184      2.46686493660648     -0.11255772410239
  N   1.63884601938100      0.45951714508896     -0.29380610503972
  H   2.43266443683457      0.62799699385923      0.30678111960886
  H   1.96128859867929      0.02859675377636     -1.14879914101002
