12
Coordinates from ORCA-job run
  C   -0.79702161057518     -0.02479812612528     -0.41656092534048
  C   0.69358250545111     -0.39118191937770     -0.46581957453174
  F   -1.39028190378526     -0.39188926264346     -1.60943412931876
  H   1.10290867038257      0.07628412344026     -1.36897587833592
  H   0.74694417874435     -1.47505303987845     -0.59247812748833
  C   -1.46345916887715     -0.73492602491121      0.68627771878183
  N   -1.98773338314102     -1.34820671588093      1.53897189411790
  C   -0.94347471143196      1.43020533443282     -0.24080656133310
  N   -1.00377946901898      2.59778379956254     -0.13270912292212
  N   1.30682192880500      0.02779268975730      0.77516837215541
  H   1.80118750357237      0.90279015650341      0.67940550199367
  H   1.93330545987414     -0.66880101487931      1.14796083222164
