12
Coordinates from ORCA-job run
  C   -0.79915015772438     -0.01051002916511     -0.41350567344454
  C   0.70193355728830     -0.32192344563659     -0.50392014489822
  F   -1.41699126238908     -0.42942403906239     -1.57680241391968
  H   0.78880351364505     -1.38979022578139     -0.73615947489846
  H   1.08952460689209      0.24180530699451     -1.35571830954146
  C   -1.38676139363854     -0.73722853162912      0.72473585482064
  N   -1.80536635095678     -1.36427777169471      1.62480250650430
  C   -1.01357433015119      1.43640873183264     -0.25519256769969
  N   -1.16562871125196      2.59828723019672     -0.18399541058050
  N   1.32742946619381      0.09108459673082      0.73286663421062
  H   1.47790196110941     -0.68435933115105      1.36137077660775
  H   2.20087910098327      0.57092750836566      0.58051822283925
