12
Coordinates from ORCA-job run
  C   -0.80768205626204     -0.08005832621183     -0.38802972863748
  C   0.69996828590897     -0.35602677218530     -0.48302751555615
  F   -1.41693172215074     -0.50217196420537     -1.55463852348210
  H   1.04986819346096      0.11918646726234     -1.40694454534826
  H   0.81526126224441     -1.43678800934590     -0.59408941667229
  C   -1.39202451057085     -0.81246801201890      0.74630123987582
  N   -1.84811369905951     -1.44732138804347      1.62213848934422
  C   -1.03664596369351      1.36607234913138     -0.22900669407236
  N   -1.16014920659473      2.52992666515977     -0.13599438933373
  N   1.32732112072971      0.12101272778654      0.72965425687681
  H   2.01208759668067     -0.52637746162846      1.08808258231588
  H   1.75704069930665      1.02601372429921      0.60555424468965
