12
Coordinates from ORCA-job run
  C   -0.62494713858812      0.44617233803774      0.03279215712203
  C   0.61767868649630     -0.28981018441192     -0.47211141225134
  F   -0.24564729273680      1.73260136999334      0.38115853659949
  H   0.31799604587970     -1.29810057035869     -0.76821544071123
  H   0.95153582305810      0.24488956922355     -1.37233989669087
  C   -1.64588682225272      0.53314298702848     -1.02565366725332
  N   -2.41890525056622      0.58652683570058     -1.90782510533298
  C   -1.18778189556993     -0.21714737531452      1.21970400825155
  N   -1.66489754095625     -0.76257580512814      2.14299449320793
  N   1.57669784468161     -0.35191379293285      0.60878696772773
  H   2.10937365051523      0.50405426859824      0.67154028883204
  H   2.21378389003907     -1.12583964043579      0.48916907049896
