12
Coordinates from ORCA-job run
  C   -0.70676682218895     -0.05531932404179      0.29658585975319
  C   0.61600763642905     -0.39437799905761     -0.39320019025271
  F   -0.61624637922299     -0.46627440161572      1.61677468419285
  H   0.71234799868953     -1.48868529917477     -0.36081324167505
  H   0.53989667184633     -0.09166911810332     -1.44044092886933
  C   -0.96230664436540      1.39365353757650      0.27137289711159
  N   -1.19610621377892      2.54318050521091      0.23047626482854
  C   -1.82473571771976     -0.77270772464774     -0.34045853235223
  N   -2.67779930537150     -1.36091100194374     -0.89260205041766
  N   1.67119947118786      0.34524932062901      0.26380045592020
  H   2.46180580629312      0.47783455264998     -0.34987577567006
  H   1.98170349820163     -0.12997304748172      1.09938055743067
