12
Coordinates from ORCA-job run
  C   -0.69114658666827     -0.06106818274904      0.33123563935901
  C   0.59919387034858     -0.38897351433564     -0.42279087797333
  F   -0.53343571668620     -0.47149205722920      1.64482489056314
  H   0.46911949470919     -0.08647253438298     -1.46475820773171
  H   0.70606108515898     -1.48242570018687     -0.39596838112032
  C   -0.95944349025689      1.38577144646035      0.31904719253177
  N   -1.20466752118010      2.53326861132565      0.29090737314002
  C   -1.83236013718127     -0.78768071150646     -0.25214781709498
  N   -2.70524314624461     -1.38442497371216     -0.76260000377359
  N   1.67927880758552      0.35914575338285      0.18236388610656
  H   2.43688769030486      0.49957313145933     -0.47003394129155
  H   2.03575565011022     -0.11522126852580      0.99992024728499
