12
Coordinates from ORCA-job run
  C   -0.61473208224100      0.45712717708494      0.05571849222732
  C   0.63970856719901     -0.24199693397193     -0.47167733461568
  F   -0.23001643488047      1.67563527729374      0.59096866751101
  H   0.33716083067136     -1.19324351212031     -0.91633613620029
  H   1.03838776943865      0.39660849303645     -1.27236351495814
  C   -1.56981359376199      0.70852980973837     -1.03751994897494
  N   -2.29992865113920      0.88187823540948     -1.94057553155894
  C   -1.26061131241580     -0.33875821041240      1.11155160512523
  N   -1.80542513041266     -0.97849925272576      1.93094902500488
  N   1.53119434654813     -0.47394796114753      0.64353816958113
  H   2.07769611580385      0.35036118385526      0.84907460828709
  H   2.15737957519014     -1.24369430604032      0.45767189857132
