12
Coordinates from ORCA-job run
  C   -0.72191663248001     -0.02040697233168     -0.26682154782161
  C   0.63271692140160     -0.43644321412939      0.31046028916988
  F   -0.69625785339974     -0.26238737298843     -1.63072682466933
  H   0.72563731631135     -1.51753749346639      0.13637754942825
  H   0.60751253055333     -0.26802540713071      1.38987484238242
  C   -1.80869329749408     -0.81833266097691      0.32703125865153
  N   -2.63646689477138     -1.48700884960087      0.82330788373320
  C   -0.97367438100747      1.41255399948140     -0.04655490547596
  N   -1.19095423839846      2.54757444286240      0.15843369668393
  N   1.65615077732888      0.38355403987199     -0.29929874018201
  H   2.47051946578027      0.45407733510443      0.29304187122389
  H   1.93442628617569      0.01138215330416     -1.19612537312419
