12
Coordinates from ORCA-job run
  C   -0.71775488076802     -0.05596667395104     -0.27325576380166
  C   0.64666954629125     -0.40261059691406      0.32599365962527
  F   -0.66930173017275     -0.33192553938990     -1.63004184054212
  H   0.78481794858149     -1.48303041992941      0.18071575546782
  H   0.60576804362327     -0.20683582605362      1.40025178720053
  C   -1.77793449747376     -0.88045777690910      0.33232201993416
  N   -2.58071708757245     -1.56687958780398      0.84516989556827
  C   -1.02812772552190      1.37103681246020     -0.09194135633042
  N   -1.29744114728644      2.49876515709282      0.09033696511836
  N   1.64199245526659      0.44241643239036     -0.29741756182749
  H   2.44738457339056      0.55932795794565      0.30001809439911
  H   1.94364450164218      0.05716006106209     -1.18115165481183
