12
Coordinates from ORCA-job run
  C   -0.69098511306525     -0.08585617787456      0.32950088347494
  C   0.59687363771242     -0.35563574748284     -0.45162558331313
  F   -0.52742513528392     -0.59247745202324      1.60853063042080
  H   0.70416292559021     -1.44794977253496     -0.50610452307135
  H   0.46277682563374      0.02281181180629     -1.46793935215694
  C   -0.95977327721855      1.35782218270606      0.42431644971412
  N   -1.19695834384542      2.50652117345225      0.46643196848444
  C   -1.83460896960192     -0.76895757386829     -0.29976632562544
  N   -2.70853189025461     -1.33626215341150     -0.84109094253614
  N   1.67898199847371      0.34520751101002      0.20382568463830
  H   2.04700273816382     -0.19300818163061      0.97525955864313
  H   2.42848460369579      0.54778437985135     -0.44133844867271
