12
Coordinates from ORCA-job run
  C   -0.70530881428480     -0.07900218485628      0.29232071906959
  C   0.61671858916472     -0.36215677099194     -0.42369660521486
  F   -0.61152538091034     -0.58887935854971      1.57712303941816
  H   0.53746169935511      0.01766324025832     -1.44520663095196
  H   0.71587075404580     -1.45547000064701     -0.47330144213579
  C   -0.96324184502058      1.36736404877903      0.37734001664709
  N   -1.20340159059151      2.51536283264344      0.42185016609275
  C   -1.82418088954336     -0.74802700467761     -0.39396198512250
  N   -2.68039223766719     -1.30374103936244     -0.97417911775797
  N   1.67158289511562      0.32909019982647      0.28489893854719
  H   1.98963815767379     -0.20938424732189      1.07804812357395
  H   2.45777866266272      0.51518028489961     -0.32023522216565
