12
Coordinates from ORCA-job run
  C   -0.70927865082736      0.07879730467491     -0.28886627148190
  C   0.62393722744669     -0.52115827149501      0.16243640268005
  F   -0.62519417866480      0.32782920966656     -1.64937116741521
  H   0.73349923937624     -1.47430842676513     -0.37343866651537
  H   0.55321997643082     -0.73955616078470      1.23081855930241
  C   -1.81315727597508     -0.86858714789537     -0.05553677595067
  N   -2.65572572100927     -1.65813734123819      0.15752756770272
  C   -0.98186109741900      1.34606239360818      0.40756014474294
  N   -1.22435363929454      2.33059086587059      0.99863756715921
  N   1.66394630377137      0.45421499238221     -0.08037352751881
  H   1.98004162918782      0.41827706931307     -1.03905441344229
  H   2.45392618697709      0.30697551266291      0.53066058073694
