12
Coordinates from ORCA-job run
  C   -0.81024536118198     -0.04520925688858     -0.38669798018252
  C   0.68468090671459     -0.37945258814853     -0.49165209430235
  F   -1.43958696005493     -0.42840745333300     -1.55608334434636
  H   1.04897763591331      0.09078219175645     -1.41271294036892
  H   0.75640719263838     -1.46272233423066     -0.61407619300881
  C   -1.41965199406505     -0.76625244754972      0.74172374015014
  N   -1.89790476675106     -1.38280837471171      1.61877838819227
  C   -0.98316782241758      1.40646196548109     -0.20796890950369
  N   -1.07119918720446      2.57123987589210     -0.08917071950731
  N   1.33560525708071      0.05749011416975      0.72384347555527
  H   1.78910388831562      0.95250163185558      0.61126726258260
  H   2.00698121101247     -0.61462332429279      1.06174931473968
