12
Coordinates from ORCA-job run
  C   -0.66205724853812     -0.09347725682496      0.28837898378678
  C   0.68013828429889     -0.51820321451167     -0.34877700703626
  F   -0.55591243729427     -0.26182960574178      1.65982411518974
  H   0.81598098489451     -1.57234914050507     -0.09006128917009
  H   0.58258052432294     -0.44776964757683     -1.43518420919490
  C   -0.92536476828832      1.32795192870971      0.01501095161171
  N   -1.06869313875226      2.46523579862249     -0.23994718422594
  C   -1.76777253343145     -0.92505216189783     -0.20726775984012
  N   -2.60315384605501     -1.63686152675285     -0.62548216665450
  N   1.81857850124508      0.24001193388520      0.09500304526597
  H   1.90479979146456      0.21732294068110      1.10193640716179
  H   1.78087588613347      1.20201995191252     -0.21543388689419
