12
Coordinates from ORCA-job run
  C   -0.70460144883939     -0.00817148492590     -0.30780353804642
  C   0.75806230577727      0.33656414459356     -0.02003841543616
  F   -0.73095606829946     -0.91068212479913     -1.35851573274025
  H   1.14659471245655      0.82370053988216     -0.92525215769138
  H   0.78103862017195      1.06551751025338      0.79372794499898
  C   -1.34251158744514     -0.62960425307317      0.86373211636293
  N   -1.86645960528058     -1.09397341142417      1.80570033985697
  C   -1.45465660413372      1.19483309526143     -0.70879987424864
  N   -2.00444407986368      2.18015032389010     -1.03365643402315
  N   1.43919818581932     -0.87623741427382      0.37684112880616
  H   2.24916863784153     -0.67212548681647      0.94382275536063
  H   1.73056693179532     -1.40997143856795     -0.42975813319970
