12
Coordinates from ORCA-job run
  C   -0.73626813421012     -0.06775899486553     -0.42711269200621
  C   0.77231378115644     -0.38398238160768     -0.54367483208041
  F   -1.37574391302572     -0.48364593785838     -1.57592868504525
  H   1.12847453033830      0.12533157265587     -1.44301651524055
  H   0.85226432158972     -1.46068403874598     -0.71510255566475
  C   -1.31125953074155     -0.77713886713806      0.72820786082278
  N   -1.75784935250581     -1.38008254607903      1.63168208622658
  C   -0.93521984490345      1.38207252649249     -0.26277331672467
  N   -1.07436653118123      2.54448084319384     -0.16951282138780
  N   1.56987264587611     -0.00266274026002      0.58979874887510
  H   1.30602657225515     -0.49078669825963      1.43464160792235
  H   1.56475545535214      0.99485726247211      0.75279111430284
