12
Coordinates from ORCA-job run
  C   -0.67384168492580     -0.03696837611218     -0.27605353287431
  C   0.84026330664350      0.27258138782959     -0.27009997409542
  F   -0.85880877546686     -1.25174967338745     -0.91600555279154
  H   1.13997484521430      0.33108031709257     -1.32050704173122
  H   0.98755122930722      1.25869269389788      0.17781408667529
  C   -1.17128610797892     -0.15822738758048      1.10331490730632
  N   -1.49856981128967     -0.23665589763685      2.22835437048825
  C   -1.42125477194170      1.00196118299429     -0.99853134299368
  N   -1.96060751133448      1.87039861705257     -1.57677654286904
  N   1.64695243806103     -0.70436142049170      0.41008078048877
  H   1.47271227291091     -0.71617144793331      1.40645461307771
  H   1.49691457080045     -1.63057999572493      0.03395522931887
