12
Coordinates from ORCA-job run
  C   -0.63812259654883     -0.12358657900220      0.32945320255185
  C   0.60257625679573     -0.46016736423363     -0.52788188071068
  F   -0.42187654126963     -0.61697846858765      1.60584940367953
  H   0.41332653421741     -0.12885332556494     -1.55215406140284
  H   0.67736336941598     -1.55148307348323     -0.53485725666664
  C   -0.81090133339575      1.33488935596932      0.41884599246831
  N   -0.88352443829650      2.50650419378477      0.45021202678682
  C   -1.84774411211303     -0.74878485483132     -0.22381153255985
  N   -2.77711893133782     -1.27543814032373     -0.71204179004020
  N   1.83333195882212      0.10622606541448     -0.04534236972185
  H   1.84429375652005      1.11491278994146     -0.12097270729378
  H   2.00739607719027     -0.15824059908334      0.91470097290933
