12
Coordinates from ORCA-job run
  C   -0.67076540464698     -0.11961931069290     -0.25840445170827
  C   0.67587232053136     -0.47907091865392      0.40864668872782
  F   -0.60240905485102     -0.49792996524014     -1.58946003050723
  H   0.60650782553114     -0.24208138493632      1.47344213406704
  H   0.78039021337493     -1.56359963743466      0.31106669967249
  C   -1.78448474934284     -0.83297033042403      0.38269366912735
  N   -2.62965244492383     -1.43326913711097      0.93476333301928
  C   -0.89331067155280      1.33363730960037     -0.19998307942494
  N   -1.00249748106908      2.50032619294863     -0.12328457480567
  N   1.82088204339787      0.17147550597872     -0.16864806325813
  H   1.81414341576883      1.17016244745958     -0.00821642163443
  H   1.88332398778242     -0.00706077149437     -1.16161590327529
