12
Coordinates from ORCA-job run
  C   -0.71411162597997      0.01049108272804     -0.28805670499876
  C   0.75886780110680      0.33326197340240     -0.02780129515175
  F   -0.77830397303701     -0.83743725658912     -1.38153999603720
  H   0.81012502581566      1.01924077399566      0.82128126649113
  H   1.12253922884267      0.86505207875860     -0.91813453401699
  C   -1.32040663868142     -0.66656782721293      0.86937636441804
  N   -1.81600192674220     -1.17965888592072      1.80137035733643
  C   -1.46740575249587      1.23692559942444     -0.60316216963244
  N   -2.02075140089676      2.24490161058770     -0.84073213319553
  N   1.44457278949158     -0.90085470337221      0.28525452122231
  H   1.70780219488364     -1.39459117955923     -0.55568807112725
  H   2.27207427769287     -0.73076326624263      0.83783239469202
