12
Coordinates from ORCA-job run
  C   -0.70305902175188      0.02620589605584     -0.31419683342927
  C   0.75015640116176      0.34921401471121      0.03968961800071
  F   -0.70315137158116     -0.69703633045556     -1.49575481780257
  H   1.13407411276588      0.98229404924272     -0.77237444305262
  H   0.75208123132272      0.93916736510078      0.95953848434278
  C   -1.33538597885132     -0.78655166845216      0.73712772271081
  N   -1.85337700337079     -1.39987000553419      1.59336437529624
  C   -1.47537109596669      1.26298607993843     -0.52450574986630
  N   -2.04249715313362      2.27893501065575     -0.68247233100193
  N   1.45442307921668     -0.89750336391096      0.24361598546417
  H   2.25080878667215     -0.77349453128281      0.85127237803620
  H   1.77029801351630     -1.28434651606908     -0.63430438869818
