12
Coordinates from ORCA-job run
  C   -0.81141351126578     -0.07541324134274     -0.38334565836220
  C   0.70061775900533     -0.31008439491895     -0.51489336396783
  F   -1.44404295522848     -0.58053514561570     -1.50385770113623
  H   0.83791434470772     -1.38188444255487     -0.69910595442315
  H   1.02643722205747      0.23002152309618     -1.40705032165226
  C   -1.32094665772971     -0.77707265342358      0.80688437263171
  N   -1.68069355167487     -1.37225341043189      1.75288205615109
  C   -1.09946857962986      1.36374175808444     -0.28078964126423
  N   -1.30885709986032      2.51815108388826     -0.24079196944474
  N   1.34585990695496      0.19454893495292      0.67693351098463
  H   1.58067962238879     -0.54220729937218      1.32560270466562
  H   2.17291350027477      0.73198728763813      0.46853196581758
