12
Coordinates from ORCA-job run
  C   -0.79254866009788     -0.04964906186712     -0.42163717728304
  C   0.71881243868720     -0.31234772538368     -0.48907400441227
  F   -1.38293040258588     -0.52255329486679     -1.57835363344435
  H   0.84392776501900     -1.38262578007552     -0.69142495153181
  H   1.09526524276132      0.24133369389044     -1.35241199043522
  C   -1.36908124556827     -0.76209066873066      0.73141835810433
  N   -1.78428817373610     -1.36567727247227      1.64895447632198
  C   -1.05822124616092      1.39270340329607     -0.30538933636524
  N   -1.25191118305911      2.54959267300480     -0.25918335050180
  N   1.31834446718663      0.15685011020887      0.74069563752668
  H   1.47920791377731     -0.59427698568909      1.39585232005952
  H   2.18342308377669      0.64974090868494      0.58155365196123
