12
Coordinates from ORCA-job run
  C   -0.60224323010785      0.38716660809930     -0.04260770341881
  C   0.81131213727047     -0.07663636963219     -0.45594719844769
  F   -0.46953876006601      1.53278032395896      0.72418645824478
  H   1.24003176707564      0.74157713009127     -1.04194961113562
  H   0.71135009691354     -0.94418939040967     -1.11342374839112
  C   -1.42555125007518      0.69868647617629     -1.21975747893661
  N   -2.06024843343510      0.97348413396170     -2.16898778598787
  C   -1.25877335392729     -0.64253778054840      0.77868187001448
  N   -1.76464325248633     -1.45721445715949      1.45635174761893
  N   1.68283299446145     -0.39054585588554      0.64500118428319
  H   1.37686742858487     -1.21104315293196      1.15144519117930
  H   1.75860385579178      0.38747233427971      1.28600707497703
