12
Coordinates from ORCA-job run
  C   -0.75449977126927     -0.01355622184056     -0.42768569969316
  C   0.73691549465009     -0.39944268707082     -0.57083380962952
  F   -1.41962065837367     -0.35202353572547     -1.58796481905402
  H   0.75917979827896     -1.47105505019501     -0.78582225219618
  H   1.10852074567402      0.12768197640663     -1.45351109460827
  C   -1.35244046604289     -0.74018144818314      0.70452366578570
  N   -1.76514820759818     -1.35119095780153      1.61863738485352
  C   -0.87565522930486      1.43629116771113     -0.20272097199683
  N   -0.89667234902009      2.59684358794094     -0.02391103863977
  N   1.56381470854655     -0.10489660177315      0.56656805094325
  H   1.61134239119458      0.88443233710508      0.76799667491520
  H   1.28326354326474     -0.61190256657410      1.39472390932009
