12
Coordinates from ORCA-job run
  C   -0.80126143134820     -0.04988920793689     -0.40763130898676
  C   0.69817010698172     -0.37211320292511     -0.47753732643053
  F   -1.39862936581339     -0.42958339340067     -1.59537558587598
  H   1.08284301120801      0.10822619498518     -1.38488004982130
  H   0.78243488555794     -1.45384946193444     -0.60484984100203
  C   -1.43398522848422     -0.78240832736184      0.70013152088686
  N   -1.93091893595889     -1.39759483515262      1.56775440489316
  C   -0.98798476383436      1.39933438799756     -0.22414193211553
  N   -1.07276797677843      2.56383562475696     -0.09984978465602
  N   1.31380260991464      0.06123583097903      0.75849528193177
  H   1.98527193379712     -0.60673765543051      1.10470067716080
  H   1.76102515475806      0.96154404542330      0.66318394401557
