16

C	-0.583034	0.034442	-1.394439
C	0.0	0.0	0.0
Br	0.101117	1.544355	-2.392397
H	1.089322	0.0	0.0
H	-1.668226	0.103413	-1.405052
N	-0.267048	-1.206656	-2.194895
O	0.686563	-1.885889	-1.845121
O	-1.011085	-1.420192	-3.149255
N	-0.483313	-1.248211	0.674457
O	0.059214	-1.559808	1.726058
O	-1.435262	-1.848813	0.164128
C	-0.472896	1.166673	0.85703
H	-1.565722	1.218097	0.900803
H	-0.071035	1.0355	1.861774
H	-0.078821	2.099126	0.456105
Br	3.475749	0.0	0.0
