16

C	-0.566918	0.014762	-1.401752
C	0.0	0.0	0.0
Br	0.089283	1.538503	-2.39539
H	1.089354	0.0	0.0
H	-1.653159	0.051302	-1.430942
N	-0.200863	-1.226856	-2.181022
O	0.77642	-1.863301	-1.812868
O	-0.930256	-1.486162	-3.135347
N	-0.467642	-1.262374	0.663443
O	0.10857	-1.601626	1.688533
O	-1.44341	-1.842716	0.172794
C	-0.511639	1.148987	0.856104
H	-0.116872	1.026096	1.865088
H	-0.146735	2.09681	0.463223
H	-1.606366	1.162177	0.890393
Br	3.450214	0.0	0.0
