17
Coordinates from ORCA-job run
  C   0.93638452147057      0.38604556209956      0.19184760579100
  C   -0.35947717827976     -0.33619843361660     -0.21877956927340
  Cl  0.98392154285575      0.79182975357612      1.90528210649934
  H   -0.21655064790047     -0.55704918518985     -1.28307633451418
  C   2.11479650940408     -0.40340510296378     -0.15003435615580
  N   3.03873835340779     -1.08103821692192     -0.41224700980399
  N   1.00264258957049      1.68098007154602     -0.65444509298899
  O   1.21013339435125      1.47441966594270     -1.84365193391330
  O   0.78043237674210      2.74976325859813     -0.11417516615767
  C   -1.58088635171738      0.56391044582963     -0.06100267923987
  H   -1.53135909228927      1.44665223172277     -0.70141024644561
  H   -2.47360308703885      0.00247956600174     -0.34449640968051
  H   -1.70215274996295      0.89282186984591      0.97290258139403
  C   -0.51266259424907     -1.65105379698547      0.53949103370782
  H   -1.36174242395055     -2.20229015840053      0.12956492220008
  H   0.37315258748497     -2.28310652411584      0.44468089195556
  H   -0.70376774989869     -1.47576100696858      1.59954965662547
