17
Coordinates from ORCA-job run
  C   1.01539090609588      0.29905891002767      0.21918627031272
  C   -0.42143914016543     -0.16622935768356      0.48330399668454
  Cl  2.10048269094740     -0.12336335592858      1.55503439581215
  H   -0.67414108850644      0.24314669140090      1.46741415814907
  C   1.54736068012873     -0.23935014461516     -1.02628150643528
  N   1.93093832152457     -0.74912976504771     -2.01363169294585
  N   0.98484497047112      1.83439971225961      0.11984122240203
  O   1.22569712118040      2.32511238720369     -0.97563556787699
  O   0.64920481694944      2.42083295715603      1.13674707454321
  C   -0.50376662844725     -1.68924438888341      0.51851094039084
  H   0.17406583979234     -2.12097082407606      1.25554469198111
  H   -0.27228373544094     -2.11592271750341     -0.46082717007273
  H   -1.52093864395895     -1.98665634061204      0.78216072986594
  C   -1.36783237313411      0.41408067301699     -0.56769677956910
  H   -1.07662521718638      0.10988622771881     -1.57678099755326
  H   -2.37670075673051      0.03924590675522     -0.38323979002025
  H   -1.41225776351985      1.50410342881102     -0.53264997566818
