17
Coordinates from ORCA-job run
  C   0.94200442295020      0.49665965910048      0.39011430218820
  C   -0.37486594188127     -0.29776587391321      0.52283599890035
  Cl  1.11220432454715      1.67476037663885      1.69635360917077
  H   -0.35236645092611     -0.66500660570184      1.55561020394357
  C   2.11123554643833     -0.37521174342431      0.39685419978498
  N   3.03221643114099     -1.10288410720812      0.45742407069281
  N   0.92050803710480      1.23648228949759     -0.96172916092969
  O   0.46982577065331      2.36945698191663     -0.98621280945615
  O   1.29177717602402      0.56378365212443     -1.91731241245434
  C   -0.42573722175580     -1.49971800430059     -0.41921999383543
  H   -0.44943376994861     -1.18945712004627     -1.46497500455896
  H   -1.33882633446620     -2.06302867119361     -0.21411085072554
  H   0.42240602196230     -2.17156803061717     -0.27960598269727
  C   -1.59920694646333      0.59667250053479      0.34212754380553
  H   -1.55331832479039      1.49671747712964      0.95515681614337
  H   -2.49000692251035      0.03392006171211      0.62902516603215
  H   -1.71841581807904      0.89718715775058     -0.70133569600436
