17
Coordinates from ORCA-job run
  C   0.92802024059825      0.52303681099761      0.38748102142286
  C   -0.37007209611989     -0.30111620625181      0.52468248592025
  Cl  1.06502970892117      1.71956647604856      1.68084197994350
  H   -0.34262442882751     -0.65662011206412      1.56146685518288
  C   2.11798857359301     -0.32014026781480      0.40843099548653
  N   3.05803045039020     -1.02191352801000      0.48093074696401
  N   0.89432497088751      1.24618360998121     -0.97278595993594
  O   0.41661138078284      2.36757618170913     -1.01287781746358
  O   1.28780368606566      0.57198798827481     -1.91840956519017
  C   -0.38840361774415     -1.51382626167603     -0.40467588143303
  H   0.47720569356864     -2.16157434820776     -0.25720448565072
  H   -1.28661040282927     -2.09893066386810     -0.19438070965180
  H   -0.41899369661282     -1.21495866519106     -1.45373911775571
  C   -1.61469439360461      0.56194161378898      0.33053434325129
  H   -2.49292077370706     -0.01885303216687      0.62028309140711
  H   -1.73747648581487      0.84885024680939     -0.71632191570772
  H   -1.59221880954710      1.46879015764086      0.93474393321023
