17
Coordinates from ORCA-job run
  C   0.92135919394547      0.41191617929205      0.21621233802736
  C   -0.34389671242207     -0.34587921582540     -0.22548504029285
  Cl  0.90354302433349      0.84335805615394      1.92407035310550
  H   -0.16183039404505     -0.57665904313602     -1.28178320721449
  C   2.12688516756772     -0.35689551313404     -0.07487088264297
  N   3.07084473294983     -1.02078574689382     -0.29777328704275
  N   0.98580410704505      1.69483266601264     -0.64660288646214
  O   1.25053061866298      1.47809469941484     -1.82251186067835
  O   0.70591648962339      2.76358097982037     -0.13345485124997
  C   -1.59103163969782      0.52602769807332     -0.11832459909363
  H   -1.54170878042837      1.40393669813355     -0.76520498534186
  H   -2.45951382888328     -0.06007595032210     -0.42591832513681
  H   -1.75486199545993      0.86135947109793      0.90753639303273
  C   -0.49074374384591     -1.65447045366656      0.54484239504923
  H   -1.31519967606120     -2.22930750168731      0.11748647222764
  H   -0.71707166281643     -1.47014648410588      1.59642343435924
  H   0.41097509953216     -2.26788653922752      0.48435853935413
