17
Coordinates from ORCA-job run
  C   0.92367022531913      0.40128112399942      0.22330037866909
  C   -0.34557646597702     -0.34392888622508     -0.22807964766734
  Cl  0.90230723960510      0.82344244792358      1.93308912064165
  H   -0.15825357820598     -0.57460420976941     -1.28337246571373
  C   2.12437332190389     -0.37465975221744     -0.06781584724595
  N   3.06552445035016     -1.04229750783430     -0.29176830544186
  N   1.00239237042144      1.68837637540802     -0.63285438148412
  O   0.74828865433808      2.75943069978417     -0.11170255545449
  O   1.25487526364268      1.47305609986146     -1.81174457504893
  C   -1.58418240879642      0.54101631622458     -0.12884826248357
  H   -1.52332398267509      1.41407914632837     -0.78163224312920
  H   -2.45809465085652     -0.03768498041517     -0.43528702840856
  H   -1.74740131954045      0.88455246701198      0.89454364768420
  C   -0.51030480817360     -1.65173669724295      0.53988110358646
  H   0.38880234072941     -2.27024183020938      0.49210858557339
  H   -1.33187560004953     -2.22194290947087      0.10094022753898
  H   -0.75022105203529     -1.46613790315698      1.58824224838398
