17
Coordinates from ORCA-job run
  C   0.92959070516382      0.51932839994620      0.38888661297329
  C   -0.36523458230095     -0.30951419343112      0.52302183291351
  Cl  1.07394195994076      1.69713772977425      1.69856950623964
  H   -0.32911593479923     -0.68168539061895      1.55369407598307
  C   2.12171674182872     -0.32102193722673      0.38816689887726
  N   3.06158624307735     -1.02465144403718      0.44297425966036
  N   0.88422598828841      1.26328291586136     -0.96059325911861
  O   0.40156107691220      2.38316392827877     -0.97982057454351
  O   1.27358783061083      0.60546951527862     -1.91930960865049
  C   -0.38751986616425     -1.50786004926189     -0.42503065164907
  H   -0.42253073438704     -1.19331712218311     -1.46936350039153
  H   -1.28470196121388     -2.09633900011126     -0.21993295282446
  H   0.47891368234872     -2.15747979540931     -0.29079300331869
  C   -1.61373019800478      0.55268719603166      0.35143648916684
  H   -2.48772695654000     -0.03382677476592      0.64234138619224
  H   -1.58807750071837      1.45224928629779      0.96636806743031
  H   -1.74648649404231      0.85237673557680     -0.69061557894017
