17
Coordinates from ORCA-job run
  C   0.94565776355897      0.52032324218514      0.34546948656105
  C   -0.35570101541754     -0.28567435037432      0.54250503282314
  Cl  1.13676693425394      1.74590515498605      1.60464930377959
  H   -0.29520353181445     -0.62392868443553      1.58368239270601
  C   2.12645080183024     -0.33596244514340      0.35010695446479
  N   3.05922456813758     -1.04845800465490      0.41122015762942
  N   0.87775695195798      1.21196677327410     -1.02995659720940
  O   1.24802284736655      0.51753260532167     -1.97014326467937
  O   0.39810511394435      2.33226775116151     -1.08227143621985
  C   -0.41820311277557     -1.51364042866734     -0.36477288088888
  H   -0.47823216669984     -1.23251772266029     -1.41752057821213
  H   -1.31659270948453     -2.08351100151569     -0.11681567063045
  H   0.44362221508165     -2.16990415376544     -0.23349868576231
  C   -1.59804796391259      0.58640137390470      0.37665171721460
  H   -2.47071277239911      0.01923312590110      0.70722152669799
  H   -1.75482864087311      0.85661323968747     -0.67004882686710
  H   -1.54608528275452      1.50335352479517      0.96352136859288
