17
Coordinates from ORCA-job run
  C   0.94746467571786      0.49954856219871      0.36937203034311
  C   -0.36296539766645     -0.29953254694143      0.53045735384420
  Cl  1.14137325447919      1.67925538174705      1.67116657775816
  H   -0.31564316177690     -0.66854592847998      1.56177983760702
  C   2.12065998505747     -0.36702572632502      0.35281426626532
  N   3.04746733510735     -1.08842124994350      0.39478666521791
  N   0.89574902138156      1.23815948963699     -0.98245454111797
  O   0.44598940009913      2.37151381124207     -0.99864856476449
  O   1.24626676995461      0.56381959572894     -1.94473807382363
  C   -0.43036500478403     -1.50037444431234     -0.41208850635011
  H   -1.33184279168146     -2.07259127436974     -0.18145012677656
  H   0.42782512265582     -2.16461327422638     -0.29883707917982
  H   -0.48740981924377     -1.18859016204926     -1.45622900412195
  C   -1.59406190364472      0.59069190677151      0.37875872919438
  H   -1.73574002672017      0.89481055183951     -0.66085559770457
  H   -2.47687338358166      0.02363880413953      0.68151309996061
  H   -1.53889407535380      1.48825650334334      0.99465293364840
