14
Coordinates from ORCA-job run
  C   -0.77074204911910     -0.14421785328337     -0.07407919403692
  C   0.65984334449500      0.17109228437924     -0.50770274991246
  Cl  -0.87612524616189     -1.96144910988641      0.25744754520731
  H   0.65897455009532      1.23103975888624     -0.77974672142357
  H   0.85035372295476     -0.40502868726057     -1.41965061984998
  C   -1.09310707179909      0.50388720807963      1.20207796455546
  N   -1.34827700279430      1.04716708228494      2.21144458553461
  N   -1.69632617453822      0.28424976490519     -1.06181439572767
  H   -1.48157253963198     -0.13753082276505     -1.95732781900029
  H   -2.65075860952064      0.06186091919267     -0.80680164032648
  C   1.72806474081356     -0.11331474586402      0.53810271748560
  H   2.70829602958850      0.16813469436216      0.14840602044880
  H   1.75908805727681     -1.17051168596826      0.80175820142913
  H   1.55228824834128      0.46462119293761      1.44788610561645
