14
Coordinates from ORCA-job run
  C   -0.74758772806715     -0.30495780721528      0.08790904163788
  C   0.63337482112299      0.10184138607409      0.60631034654006
  Cl  -0.77976531706539     -2.06682982730812     -0.27264449415696
  H   0.83453972578379     -0.47955572599428      1.50973948741388
  H   0.55681427496883      1.15159579940353      0.91625515770624
  C   -1.74841052205193     -0.08628734110003      1.15161053391604
  N   -2.54481650891762      0.16501970655011      1.97904009213834
  N   -1.05601809716324      0.39447276181626     -1.13610570557704
  H   -1.03098194368784      1.39502276982485     -0.96764364512782
  H   -1.98168847200480      0.14507252255514     -1.46541159198532
  C   1.75099854911728     -0.07004812105587     -0.41401477220076
  H   1.85136917115388     -1.11370011298316     -0.71289363873315
  H   1.56478476613237      0.52158797963121     -1.30938678410656
  H   2.69838728067881      0.24976600980154      0.02523597253516
