14
Coordinates from ORCA-job run
  C   -0.76414520768018     -0.27380779266801      0.04170258536142
  C   0.62042959736087      0.01623411373650      0.62500434609448
  Cl  -0.86882016869821     -1.99103786415702     -0.48267182719054
  H   0.58496329519529      1.03654294341824      1.02690930481371
  H   0.76991353911649     -0.65281743366074      1.47625727180501
  C   -1.77927769912267     -0.10706743076329      1.10169165475480
  N   -2.56897228907493      0.09990046269416      1.94752279614289
  N   -1.00894204644969      0.54995841211425     -1.11745995588158
  H   -1.93578675558781      0.37600825175767     -1.48905300045683
  H   -0.94289102198947      1.52829487568429     -0.85581343712932
  C   1.75475708553780     -0.11891886728043     -0.38226117996781
  H   1.61462584305731      0.55182894560309     -1.22891297950164
  H   2.70350953391486      0.12270009525353      0.10169680684948
  H   1.81963629442034     -1.13781871173224     -0.76461238569406
