14
Coordinates from ORCA-job run
  C   -0.86101553016026     -0.24979720337186      0.08470671307206
  C   0.56626868661672     -0.06364165388766      0.62663899292817
  Cl  -1.03444928929372     -1.94530088534399     -0.50057884870173
  H   0.58718977013218      0.91809066553034      1.11464939164099
  H   0.73679169423318     -0.81266215764888      1.40478630414815
  C   -1.80920809058044     -0.06615475634128      1.19315193910294
  N   -2.52047580734538      0.12598092283365      2.10758116386703
  N   -1.26501092699558      0.61858399558441     -0.99806098493232
  H   -0.65288769859014      0.48878373498047     -1.79434235425417
  H   -1.22492795365653      1.58661937653245     -0.69733271619923
  C   1.65271437684651     -0.13870718977113     -0.43769392179556
  H   2.63366331924097     -0.03775777235351      0.03038387685057
  H   1.63075960107892     -1.09314240978170     -0.96524807600845
  H   1.55958784847356      0.66710533303868     -1.16864147971845
