14
Coordinates from ORCA-job run
  C   -0.79695486531656     -0.20727156803533      0.10261900879654
  C   0.60935709117998     -0.01301910589572      0.67287461825373
  Cl  -0.91863213254877     -1.95311388938858     -0.51676192490529
  H   0.58893887398938      0.93389610463115      1.22114274194830
  H   0.79016262236519     -0.81275324659214      1.39395406284272
  C   -1.79036391042696     -0.11879970034325      1.17835629810985
  N   -2.56622865368525     -0.02689522551074      2.05494482189449
  N   -1.10123148645632      0.75410076606900     -0.89357843575300
  H   -0.46516723411660      0.67972770146862     -1.67685882248720
  H   -2.05252030644325      0.66112845795675     -1.22737059624893
  C   1.70660323686858      0.01758162943673     -0.38376594995608
  H   1.63365791998224      0.90679122385670     -1.01329601959726
  H   1.67948069876374     -0.87178861390433     -1.01544897940684
  H   2.68289814584459      0.05041546625113      0.10318917650897
