14
Coordinates from ORCA-job run
  C   -0.83315353864528     -0.42290349150139     -0.03698921271502
  C   0.65081992160369     -0.77516655848675      0.02663897227401
  Cl  -1.78338267305464     -1.94456434989036     -0.10696115276772
  H   0.80569599758678     -1.42174259544308      0.89416904356676
  H   0.86344466411974     -1.36080941744652     -0.87129504321729
  C   -1.24276397844919      0.27445544857451      1.19949971219318
  N   -1.53369586296612      0.89817323527199      2.15259857545070
  N   -1.12985478353731      0.32465242775509     -1.23790712242616
  H   -0.64978527847230      1.21745766808003     -1.20842219480032
  H   -2.12588178324438      0.50478016188553     -1.29986282492695
  C   1.55901253504419      0.44827055620158      0.10666462565480
  H   1.51908426667961      1.04423286177119     -0.80757966919932
  H   1.30537244612063      1.08605203197349      0.95695082470129
  H   2.59508806721458      0.12811202125467      0.23249546621204
