14
Coordinates from ORCA-job run
  C   -0.89970543434975     -0.38793217904805      0.07720871786067
  C   0.58850909464449     -0.75204303897865     -0.00692952833659
  Cl  -1.82410221097364     -1.93923411577864      0.08527722390288
  H   0.83146381502845     -1.42203995946973      0.82217750908535
  H   0.72166323266470     -1.32442077707444     -0.93121793101402
  C   -1.17073465802413      0.30006593562145      1.34676519895763
  N   -1.32301997487884      0.87784848598828      2.35771005698139
  N   -1.42037568446250      0.42335797227875     -0.99546026630160
  H   -1.13332001071672      0.04344267236382     -1.89030936237537
  H   -1.09927721667166      1.38011443690900     -0.91145741016465
  C   1.49937091928068      0.47002624902894      0.00908108395062
  H   1.30960094090955      1.12631315087464     -0.84264546556526
  H   1.37656600163519      1.04855653966210      0.92751773570289
  H   2.54336118591419      0.15594462762253     -0.04771756268392
