14
Coordinates from ORCA-job run
  C   -0.77786461282067     -0.19432444078529     -0.01586446692937
  C   0.69079196530420     -0.30748983713981     -0.41657659954471
  Cl  -1.16656361842353     -1.42574194642964      1.23471008150662
  H   0.84401721633886      0.38848652865972     -1.25071068174029
  H   0.81857719516282     -1.32012509957139     -0.80756360063080
  C   -1.04294069817334      1.12323889825366      0.59491704332563
  N   -1.25665771005767      2.20397692130141      1.00553556501882
  N   -1.61365402299511     -0.47265905544838     -1.16038826656393
  H   -2.59389010432413     -0.39335225283432     -0.91328416156736
  H   -1.41065520895098      0.19537128160878     -1.89650602318705
  C   1.68240399569368     -0.00580824441158      0.69794071617613
  H   1.56366204531580      1.01278297366933      1.07362361144310
  H   2.70251964736392     -0.10730776906635      0.32249936892386
  H   1.56125391056617     -0.69704795780612      1.53266741376934
