14
Coordinates from ORCA-job run
  C   -0.90355026778539     -0.37763658215691      0.08016628167336
  C   0.58192214382292     -0.75738601839125      0.01778075366948
  Cl  -1.84219580761968     -1.91992271435852      0.12152778962881
  H   0.71680880305583     -1.35620955310573     -0.88934110630564
  H   0.81188828295067     -1.40665568723590      0.86687640593622
  C   -1.17812900059321      0.34597139661001      1.32896351183287
  N   -1.33364211612223      0.95134083750684      2.32314040793318
  N   -1.40805652165238      0.40987455812841     -1.01757766233394
  H   -1.08072787101787      1.36607114033646     -0.95458140713307
  H   -1.11580726781106      0.00545577745494     -1.89986820538569
  C   1.50371843579026      0.45642504426896      0.00776829409588
  H   1.37760785569692      1.06216020344667      0.90812706561739
  H   2.54530304064773      0.13157479066715     -0.02995257778541
  H   1.32786029063748      1.08993680682888     -0.86402955144344
