16
Coordinates from ORCA-job run
  C   0.69838070777932      0.46124710060049      0.42605859655020
  C   -0.34090480872910     -0.41015981225128     -0.27161065321464
  F   0.14236167994369      1.34640254909416      1.27500501145692
  H   0.17896927376906     -1.15800454811174     -0.87179710257761
  C   1.64333499765651     -0.39880882758201      1.14936477225358
  N   2.37489287285082     -1.11223971989834      1.72975354053100
  N   1.53738563831980      1.23624195619140     -0.60954411894379
  O   1.90524789823009      0.55877802325261     -1.55930473459076
  O   1.77893027878133      2.40176062224972     -0.36631801687173
  N   -1.13786604170304      0.39948792010277     -1.26103594136360
  O   -1.00570865545443      1.62002807555768     -1.25550052511838
  O   -1.88249323494254     -0.25061780141541     -1.98408038407444
  C   -1.29717718661766     -1.05206015449463      0.72030970299091
  H   -2.00251903668183     -1.68152646973326      0.17936423205644
  H   -1.84488806272357     -0.28681347455940      1.27136913622482
  H   -0.74694632047846     -1.67471543900276      1.42796648469108
