16
Coordinates from ORCA-job run
  C   0.78197863986181      0.61636263425812     -0.04933063639078
  C   -0.45928431480269     -0.11286884145295     -0.53792596541914
  F   1.02391107541139      1.69541529535249     -0.84402976223251
  H   -0.26461841040231     -0.44191117832693     -1.55745530436305
  C   0.75099603233609      1.00948022380794      1.35780845924370
  N   0.73057042859867      1.28279017570587      2.50029587975318
  N   2.00739170023754     -0.30671193460147     -0.25487543989861
  O   1.96641804706985     -1.04542473052948     -1.23059986849254
  O   2.93902625724162     -0.15856477296281      0.52402836016179
  N   -1.58059624325696      0.88060360541348     -0.64707927018379
  O   -1.77053730762811      1.62022335007684      0.31408169106933
  O   -2.24380310475046      0.83618024050287     -1.67787922029961
  C   -0.88786779003589     -1.25291860848244      0.36523596495167
  H   -0.10296077618180     -2.00929658419692      0.41884849497694
  H   -1.11133691265327     -0.89039384378000      1.36982650863853
  H   -1.78028732104549     -1.72396503078460     -0.04994989151512
