16
Coordinates from ORCA-job run
  C   0.81604175966931      0.40044042288968     -0.50774763491799
  C   -0.64522686905114     -0.06054518287950     -0.41772519338715
  F   1.35998667131527     -0.18683151534803     -1.60061398170943
  H   -1.10339456112919      0.24659349906729     -1.36119015382149
  C   1.02427635295250      1.84593393150750     -0.57329563439480
  N   1.25053954604485      2.99366596128951     -0.68500708149367
  N   1.56257445359492     -0.12145603997914      0.72660045434919
  O   2.29972438170529     -1.07922339306176      0.56945105620981
  O   1.28442164838037      0.46843415759856      1.76227015486497
  N   -1.37871541445734      0.73483027818809      0.63580493193528
  O   -1.65636885534250      1.89040527332232      0.32580426592504
  O   -1.64811588612297      0.17728650126917      1.69371115238984
  C   -0.76348162514897     -1.55006783106516     -0.18276738089765
  H   -1.80874665117072     -1.84922554466929     -0.26430988863552
  H   -0.18282031683861     -2.08856121031170     -0.93223950964997
  H   -0.41169463440107     -1.82167930781754      0.81125444323354
