16
Coordinates from ORCA-job run
  C   0.76906108627194      0.33785808705052      0.42144387122209
  C   -0.40603349153398     -0.34697321396639     -0.26960264512466
  F   0.37410299852121      1.30609125194120      1.27009555533741
  H   -0.02194474733760     -1.17323693144856     -0.86920758556784
  C   1.55633645670990     -0.66835880618442      1.14507385586916
  N   2.15550666204742     -1.49222293951615      1.73090122800496
  N   1.72192227858309      0.95680142226827     -0.61926894391181
  O   1.97080333982337      0.22131849900294     -1.56460724774234
  O   2.15150745748363      2.06876014169412     -0.38521658292512
  N   -1.05926986152372      0.58332947568530     -1.25776203769504
  O   -1.90680864893405      0.06738823141144     -1.97547338163379
  O   -0.72110188691859      1.76353591582454     -1.25790014501867
  C   -1.45290546857590     -0.81593090225254      0.72771070127190
  H   -1.01296829863840     -1.51803916984640      1.43789336913697
  H   -2.25449387202475     -1.32130932561442      0.19085997260014
  H   -1.86371400395355      0.03298826395055      1.27506001617662
