16
Coordinates from ORCA-job run
  C   0.91445024147824      0.33217184306767     -0.37065268614220
  C   -0.56788826379171     -0.03608033198038     -0.52225270853608
  F   1.59621294812222     -0.32521670237684     -1.33940071017713
  H   -0.83665941144526      0.26229369048940     -1.53858876160222
  C   1.22615941391112      1.75918257825786     -0.43326599022506
  N   1.55181086447738      2.88634818148289     -0.50016903392356
  N   1.40420823894971     -0.18977883553271      0.98575447402977
  O   0.98826280544559      0.44779610314507      1.94398473780620
  O   2.09845661651016     -1.19153721925378      0.98034028652624
  N   -1.41653791068580      0.83933385404461      0.36750262690150
  O   -1.55900892671641      1.99823387210408     -0.01357324793696
  O   -1.90043872518453      0.33709550807131      1.37560913750345
  C   -0.82187168539863     -1.50652815918321     -0.27495393644080
  H   -0.16106128386101     -2.10448137025472     -0.90359478108245
  H   -1.85597743872231     -1.74382555271053     -0.52598972441678
  H   -0.66011748308878     -1.76600745937068      0.77025031771606
