16
Coordinates from ORCA-job run
  C   0.71897721860729      0.41700786263978      0.36800999386612
  C   -0.41402342700562     -0.33729306601078     -0.32820494922870
  F   0.21792184570345      1.40031696319646      1.14635828731787
  H   0.02099773269177     -0.92402787423047     -1.14001094236655
  C   1.55102008520630     -0.48846603756222      1.16339377686219
  N   2.19138984084047     -1.21839320852647      1.82532311152124
  N   1.65997815417388      1.05839881604941     -0.67499276755457
  O   1.79709267137744      2.26554841864293     -0.62910352989959
  O   2.18280129134446      0.25277975603548     -1.42913757542108
  N   -1.26697054654946      0.71486484034019     -1.00460789262556
  O   -0.71010280818291      1.34899701388442     -1.89697490169732
  O   -2.42110844480233      0.85893379149394     -0.62167339989246
  C   -1.22830749849952     -1.17707738448556      0.63109126002764
  H   -1.60924917725931     -0.57239635745571      1.45348917444424
  H   -0.61205114205318     -1.98522992106080      1.02825796850625
  H   -2.07736579559267     -1.61496361295058      0.10778238614031
