16
Coordinates from ORCA-job run
  C   0.91656338239460      0.37027082550057     -0.32708680490470
  C   -0.54903564956792     -0.03426605152321     -0.54019697544114
  F   1.64861008986258     -0.23500965771130     -1.29315009369452
  H   -0.79303957045132      0.29184483812633     -1.55425163644146
  C   1.18676527448323      1.80699385159476     -0.33465324594538
  N   1.47084679404708      2.94667077585053     -0.37268827782530
  N   1.37721277915597     -0.18211201310626      1.02732380179571
  O   2.09703741688265     -1.16548219875809      1.01364547383848
  O   0.91482690789295      0.41465104286314      1.99068867996190
  N   -1.45098998142840      0.78427122988947      0.35060419568287
  O   -1.94763001372949      0.23383430744330      1.32694592608884
  O   -1.61950466530632      1.95019853968070      0.00303583416495
  C   -0.76677335624691     -1.51929432738687     -0.35239516710793
  H   -1.78533043737463     -1.77675756692842     -0.64405025908549
  H   -0.62984750162441     -1.81165622636714      0.68765190827301
  H   -0.06971146898962     -2.07515736916755     -0.98042335935985
