16
Coordinates from ORCA-job run
  C   0.92254973584929      0.23296149715655     -0.32302885402518
  C   -0.55949623842668     -0.14041711312195     -0.44264364164562
  F   1.65899822567358     -0.76894015221327     -0.89299722462535
  H   -0.84488080647370      0.09617717801663     -1.47413855653883
  C   1.25769952927965      1.49223007588401     -0.98967830485363
  N   1.51593896613440      2.45622674628800     -1.60953514686918
  N   1.41724874269166      0.30030645750558      1.12635715050127
  O   2.50825586075050      0.83190936866809      1.27645247957781
  O   0.73090236332895     -0.24862263917146      1.97716417485208
  N   -1.37620601590731      0.81175648260721      0.39415473526139
  O   -2.53951954012899      0.49953183211162      0.60548021607311
  O   -0.82540412827450      1.84940089637941      0.75445203097493
  C   -0.89964646574815     -1.58830384886236     -0.14563520302964
  H   -0.30132388885220     -2.23864285864020     -0.78326076539923
  H   -1.95206331988733     -1.75346716655493     -0.36990592476165
  H   -0.71505302000917     -1.83110675605291      0.89776283450773
