16
Coordinates from ORCA-job run
  C   0.77460511938708      0.34237598358767      0.33063122341554
  C   -0.46268007768119     -0.28987626549750     -0.30710242324478
  F   0.41327203926792      1.35011612462881      1.15401852903499
  H   -0.13324364947641     -0.89478255914172     -1.15448458656356
  C   1.56495016739091     -0.65303588698607      1.05818280963334
  N   2.17668582264586     -1.46066603031549      1.65360412552761
  N   1.70788975537966      0.91792182914257     -0.75679629900020
  O   2.10537767537844      0.08537147843012     -1.55677984941023
  O   1.96220588363038      2.10523236291871     -0.69681489049514
  N   -1.25449675857846      0.85086102301157     -0.91053403491624
  O   -2.36863773729658      1.08500852337102     -0.45974175794226
  O   -0.69322096613892      1.45740743415032     -1.81912696065393
  C   -1.29136184438867     -1.07447753028924      0.68606279367315
  H   -0.72978994805322     -1.94510425350044      1.02846371749860
  H   -2.20794142731228     -1.41984060735141      0.20956290507627
  H   -1.56361405415452     -0.45751162615894      1.54185469836685
