16
Coordinates from ORCA-job run
  C   0.77608637380693      0.66097664523753     -0.07019775188300
  C   -0.44938841566529     -0.13016206681760     -0.52140664473057
  F   0.94252547305932      1.73131206735707     -0.87984976560185
  H   -0.25576645389479     -0.46432499474191     -1.54334390703258
  C   0.78830950479650      1.06887011853339      1.33217517712407
  N   0.82789469435345      1.39105108981359      2.46142684180799
  N   1.98060679322890     -0.27554744410549     -0.30300445621199
  O   2.46730436371132     -0.23535960608412     -1.42140468851206
  O   2.29010922597244     -1.00181618837058      0.63213286671912
  N   -1.60170908411261      0.82819377029908     -0.63866601036392
  O   -1.79523837475894      1.57951561175856      0.31188349107058
  O   -2.27813398611457      0.74307899391454     -1.65757706111978
  C   -0.84530651853084     -1.26250731430671      0.40601231673634
  H   -0.04638805241648     -2.00030408699297      0.47952655844101
  H   -1.06420188754746     -0.87862398912234      1.40370830832964
  H   -1.73470365588789     -1.75435260637203      0.00858472522696
