16
Coordinates from ORCA-job run
  C   0.91882569070475      0.39523805410914     -0.29101198934254
  C   -0.54609043260727      0.01392307087909     -0.54572334734201
  F   1.65477294853561     -0.12560347750672     -1.30230001990224
  H   -0.78482105655187      0.42547466307878     -1.52946800002222
  C   1.19178915856000      1.82652245674235     -0.17146134635978
  N   1.48273841492411      2.96202372896957     -0.08751403679739
  N   1.37162650679889     -0.27413594632889      1.01257892749353
  O   2.09223397742440     -1.25237519945936      0.91596869069617
  O   0.90307613279076      0.23442786923996      2.02230800174783
  N   -1.45219724778570      0.75625237077356      0.40620326075908
  O   -1.61491296759918      1.94819110605091      0.15808394858353
  O   -1.95792385683113      0.12618512736918      1.32809800521255
  C   -0.76794473794030     -1.48113225487278     -0.48551420196762
  H   -1.78432485148051     -1.71083823055534     -0.80645208288792
  H   -0.64033933100627     -1.86017059076794      0.52741539830402
  H   -0.06650834793635     -1.98398274772152     -1.15221120817502
