16
Coordinates from ORCA-job run
  C   0.77867524979174      0.65838678848669     -0.07411196496457
  C   -0.44922163978111     -0.13198924817585     -0.52082800940688
  F   0.94933195221108      1.72274725352914     -0.89028867301551
  H   -0.25601672493009     -0.47431586812709     -1.54014501564232
  C   0.79054985548910      1.07454272304722      1.32590283346035
  N   0.82774047024413      1.40631849093389      2.45244686811904
  N   1.97997962206632     -0.28357857390716     -0.30003867414220
  O   2.46690348403023     -0.25327058730729     -1.41867399411740
  O   2.28699008361037     -1.00426409380937      0.64032600944990
  N   -1.59911495638764      0.82801749439375     -0.64542271489849
  O   -2.28242827530806      0.72794636659678     -1.65842472503921
  O   -1.78449948269253      1.59563259975077      0.29364207830042
  C   -0.84893500033130     -1.25706454905195      0.41394615305149
  H   -0.05108428483699     -1.99515266804871      0.49551110507031
  H   -1.06985950044916     -0.86541667411379      1.40823425130551
  H   -1.73801085272609     -1.75053945419700      0.01792447246957
