16
Coordinates from ORCA-job run
  C   0.93135225531712      0.21517041951974     -0.41243327741346
  C   -0.56257365145585     -0.12356879849478     -0.51171480520903
  F   1.59816915921563     -0.65453187503990     -1.20877198330993
  H   -0.80914620176509     -0.03310448802828     -1.57245890364594
  C   1.29710232472057      1.58515990814056     -0.76858292400577
  N   1.65814739023526      2.65502466827365     -1.09425869036727
  N   1.38551023357794     -0.02678356695367      1.03211839652005
  O   0.98907438416146      0.81640566504789      1.82576706332475
  O   2.03445488220862     -1.03477127266851      1.25188297323779
  N   -1.38571095776474      0.94675929173368      0.16272798114250
  O   -1.48397651886319      2.00425307812793     -0.45420281728568
  O   -1.89372194802971      0.68326018439248      1.24681877623356
  C   -0.87568777808080     -1.50090417720226      0.02952254570451
  H   -0.23450370151753     -2.23960632524447     -0.45270407689945
  H   -1.91654801977183     -1.74651737164165     -0.18277586033158
  H   -0.73194185218784     -1.54524533996243      1.10806560230491
