16
Coordinates from ORCA-job run
  C   0.92069849399953      0.30701713982406     -0.37893774197054
  C   -0.55600507069075     -0.08404115289939     -0.53023786572430
  F   1.62694786273400     -0.42291030189925     -1.27553832168829
  H   -0.80398018489623      0.12477623056006     -1.57381400617229
  C   1.22484981889187      1.72634821829942     -0.55212173999024
  N   1.54095306281151      2.84895514893332     -0.69668029678682
  N   1.38474705409016     -0.09829669100100      1.02618381585765
  O   2.08637671587493     -1.09063532252367      1.11728591332701
  O   0.94282114139749      0.61133326485550      1.91994831658121
  N   -1.42974074297795      0.85750784449470      0.26268939791895
  O   -1.57196830485540      1.97779157500424     -0.22048683793247
  O   -1.93186627846614      0.44004213970525      1.30009998717604
  C   -0.80653784211884     -1.52992978155734     -0.16356954587823
  H   -0.12733661978507     -2.17390116688340     -0.72340422654442
  H   -0.66806281310286     -1.69741342408144      0.90354872381039
  H   -1.83289629290630     -1.79664372083113     -0.41696557198367
