16
Coordinates from ORCA-job run
  C   0.72869292712795      0.46218777170611      0.28569808601116
  C   -0.42326128859468     -0.38073066064922     -0.26182905960981
  F   0.25112232389609      1.57493291915650      0.88384016883018
  H   -0.00621496577504     -1.10621413661560     -0.96340441341366
  C   1.55266146271224     -0.30640516174915      1.22106918770619
  N   2.19367240279743     -0.92749053469689      1.98550162652528
  N   1.67113921260738      0.89534994617974     -0.85847740086896
  O   1.83157458627209      2.08932061229929     -1.02203416906799
  O   2.17080277179951     -0.03844646683979     -1.46633765693035
  N   -1.26580859201947      0.55445254324497     -1.10303357670112
  O   -0.70669473612960      1.01808120625619     -2.09348205676988
  O   -2.41474027630001      0.77984356985598     -0.74450751940289
  C   -1.24097385749689     -1.02838036445233      0.83385385261209
  H   -1.60166595655645     -0.28514270721388      1.54421954715495
  H   -0.63446658722942     -1.76897117873703      1.35759406769875
  H   -2.10383942711102     -1.53238735774483      0.40032931622607
