16
Coordinates from ORCA-job run
  C   0.94285105086700      0.33654949960099     -0.28971390476555
  C   -0.51375777580407     -0.05888679718673     -0.57088629117801
  F   1.72209859158546     -0.33548871233398     -1.17105841865888
  H   -0.68816682976524      0.20860665514305     -1.61593112892923
  C   1.23845176992904      1.76628438249937     -0.36404807612096
  N   1.53454099186262      2.89987013030432     -0.45522456243557
  N   1.30859748660134     -0.14120627032098      1.12051785340156
  O   0.80010000146816      0.51917181131956      2.01688499136159
  O   2.00820380295177     -1.13531013173640      1.20948599138880
  N   -1.45515578920735      0.82557515334348      0.20978568906606
  O   -1.58437253452750      1.96868790380236     -0.22068114973908
  O   -2.01832331344422      0.34482350309486      1.18679480694651
  C   -0.77021294713189     -1.52616325718571     -0.30765310977574
  H   -1.77213794344229     -1.78682455997714     -0.64973182756333
  H   -0.70663878904717     -1.75446724858549      0.75524219858209
  H   -0.04407777289558     -2.13022206178163     -0.85278306158029
