16
Coordinates from ORCA-job run
  C   0.78300451608749      0.65258199758406     -0.07295428069431
  C   -0.44828545624908     -0.13043249629973     -0.52210262046763
  F   0.96446623111701      1.71272688735431     -0.89236130900923
  H   -0.25418337990955     -0.47622156710011     -1.54007901329291
  C   0.79304764873769      1.07430428515557      1.32546849048351
  N   0.83466782521281      1.41449733088920      2.44934592687265
  N   1.97865757254999     -0.29894101504215     -0.29023111492446
  O   2.27615213928909     -1.01856589835989      0.65390504192683
  O   2.47129491002096     -0.27532296835766     -1.40654086607502
  N   -1.59138694237792      0.83723551122367     -0.65323057332217
  O   -2.27242703457233      0.73856606739494     -1.66786849626426
  O   -1.77423708024214      1.60898762283034      0.28286905214510
  C   -0.85966729878984     -1.25069568209223      0.41337552201159
  H   -1.07850371897298     -0.85644643399606      1.40708653955645
  H   -0.06891595990611     -1.99623343765700      0.49623815036341
  H   -1.75268397199511     -1.73604020352729      0.01607955069048
