16

C	0.0	0.0	0.0
C	-0.541999	-0.045297	-1.433036
Br	1.972349	0.0	0.0
H	-1.638771	-0.186657	-1.211241
H	-0.27665	0.98903	0.371281
N	-0.500751	-0.966487	0.921588
H	-1.520298	-0.764273	0.909914
H	-0.388218	-1.882372	0.500682
N	-0.054801	-1.229598	-2.171352
O	0.451852	-1.073622	-3.287724
O	-0.194759	-2.336682	-1.639588
C	-0.326587	1.227291	-2.216142
H	-0.775191	1.151351	-3.207129
H	-0.827724	2.034212	-1.675354
H	0.732731	1.463826	-2.331466
H	-2.965741	0.0	0.0
