13
Coordinates from ORCA-job run
  C   0.66954774911493     -0.32936694899638      0.58443230387901
  C   -0.55645414187584     -0.34084799203864     -0.32397164230161
  Br  0.32455252991551      0.51288488790081      2.26099019400860
  H   -0.23661676409750     -0.66038754603336     -1.32119470669809
  H   0.97444264499178     -1.35948037425082      0.77669520710029
  N   1.85626798782884      0.27974374684274     -0.16674364803394
  O   2.52121109271444      1.14948950510571      0.36175989135913
  O   2.04459603626545     -0.24301289860859     -1.25945436632528
  N   -1.09243041034661      1.06849217972586     -0.50846190993594
  O   -2.29658655777130      1.24401447482746     -0.40231950101063
  O   -0.23807954249485      1.89993852168657     -0.78679429461554
  C   -1.58791242317382     -1.22773224030355      0.19134574077226
  N   -2.38253820107102     -1.99273531585783      0.59471673180175
