13
Coordinates from ORCA-job run
  C   0.80915157080516     -0.54801457576402     -0.33137973047055
  C   -0.68930912489197     -0.29535509566212     -0.34971246901084
  Br  1.17128850368739     -2.40239522090117      0.01347185029217
  H   -1.10840947358450     -0.85173452592680     -1.19585335772187
  H   1.26052697816504     -0.28502430405860     -1.28532080157150
  N   1.49831443914484      0.31520119110284      0.70278021832788
  O   2.71946812084599      0.29796013744440      0.67991006728603
  O   0.77682246685204      0.97117526247584      1.44721451986725
  N   -0.95859418152985      1.16916158549230     -0.68681923838424
  O   -0.13187536354618      1.69614572527780     -1.42131914859039
  O   -1.98988726548501      1.65924111167931     -0.25956107680432
  C   -1.38685704459911     -0.67869954796183      0.86904487471029
  N   -1.97063962586382     -1.04766174319794      1.81854429207011
