13
Coordinates from ORCA-job run
  C   0.87828870626207     -0.26452009095393     -0.47283578433586
  C   -0.64073209436177     -0.29376043844956     -0.43362277273451
  Br  1.57615643148838     -2.03780278937272     -0.71206511578503
  H   -0.99077697993955     -0.63021543071611     -1.41616430802894
  H   1.23496482631662      0.35487312737028     -1.29262001690927
  N   1.44766312852132      0.35041995628142      0.78684963098743
  O   0.65409795877699      0.60518838990300      1.68706800170313
  O   2.65059189040795      0.56236625268519      0.77718026991295
  N   -1.17789455043249      1.12976181460098     -0.30566718332750
  O   -0.48961295442724      1.99633131000612     -0.83099817170066
  O   -2.25968545415417      1.27076718551156      0.23849670331627
  C   -1.20718721221661     -1.15120161511995      0.59725945605954
  N   -1.67587369624150     -1.89220767174631      1.37811929084244
