13
Coordinates from ORCA-job run
  C   0.62134590333481      0.09620191481806      0.62248699940409
  C   -0.43493562324683      0.21794754616654     -0.46934132553299
  Br  1.24680145049185      1.82593060839192      1.17205424782364
  H   -0.06102741873972      0.79742388156454     -1.31300338897761
  H   0.24115609613289     -0.43415792631461      1.49326335572856
  N   1.78377433629915     -0.69741367005110      0.08508686930413
  O   2.33703368303140     -1.44494948338487      0.88134679122318
  O   2.07980435173457     -0.51131450616826     -1.09069487040029
  N   -1.61962296160648      0.96811346351097      0.10316869990578
  O   -1.98694244876990      1.95857283458226     -0.51429927396570
  O   -2.09650975434158      0.50870974864547      1.13379911660103
  C   -0.88327068286564     -1.10488961450378     -0.89082718035745
  N   -1.22660693145447     -2.18117479725714     -1.21304004075635
