13
Coordinates from ORCA-job run
  C   0.70396586657086      0.15455379539989      0.51359496306450
  C   -0.51286728131831      0.17545917802556     -0.40369639505069
  Br  1.31464838971943      1.93487280190527      0.89033196990878
  H   -0.30532551201682      0.73167926317944     -1.31742393053358
  H   0.49120502021603     -0.35115862501839      1.45331333495492
  N   1.80939823436583     -0.60964006333145     -0.16776549027049
  O   2.51160895287956     -1.30052756242785      0.55925370254701
  O   1.91513396418521     -0.45860102696539     -1.38043502787122
  N   -1.63333707567536      0.89588152779874      0.31747398165479
  O   -2.14122570738494      1.83986742124984     -0.27275352748253
  O   -1.92218568737064      0.46294740415227      1.42623100906218
  C   -0.94915750741419     -1.18525824511302     -0.69787333101239
  N   -1.28086165675662     -2.29007586885487     -0.92025125897133
