13
Coordinates from ORCA-job run
  C   0.86617005873017     -0.45555716605832     -0.32793727560201
  C   -0.63254050728979     -0.24938833239766     -0.47174460673939
  Br  1.28141501017062     -2.32988937883887     -0.27056678192919
  H   -0.93211625310105     -0.65926759927940     -1.44304867074903
  H   1.40263768446011     -0.01373647121533     -1.16453275255224
  N   1.39784956006684      0.23068504426064      0.91128901002554
  O   2.61396992862264      0.25662103592634      1.02298585526325
  O   0.56974698109926      0.71956250870612      1.67298983911928
  N   -0.93780940507016      1.24274817904936     -0.57865029910094
  O   -0.06164892610701      1.91967168338338     -1.10280418769813
  O   -2.03638507876645      1.61452414464775     -0.20253796066844
  C   -1.43544472636233     -0.86337948136226      0.57580224007374
  N   -2.09484432645290     -1.41159416682171      1.37775559055751
