13
Coordinates from ORCA-job run
  C   0.64755035755877     -0.36720932980370      0.58540323505359
  C   -0.55705323057291     -0.31584186875814     -0.34987902348216
  Br  0.28408200658029      0.42383887349450      2.28313006448513
  H   -0.22118828173010     -0.60758366326010     -1.35037781446365
  H   0.92234452650058     -1.41084008218872      0.74784651768947
  N   1.86595041663589      0.23740844621783     -0.11633645222174
  O   2.54327700128487      1.06542639580928      0.46139264848671
  O   2.06494837696510     -0.24800543093097     -1.22436143040133
  N   -1.05425676323380      1.11230835601186     -0.49610681211808
  O   -0.17318177203454      1.93250515149214     -0.71892527777591
  O   -2.25676219082429      1.31264036091947     -0.41834044212030
  C   -1.62144443927481     -1.19341331125302      0.11127599808944
  N   -2.44526600785506     -1.94123389775049      0.48727878877882
