13
Coordinates from ORCA-job run
  C   0.64840972968297     -0.34225838629604      0.59890443649547
  C   -0.55500669734255     -0.33052916624295     -0.33957605028584
  Br  0.27777241432243      0.50681303857694      2.26665100676094
  H   -0.21556372049848     -0.65348047888718     -1.32915180669040
  H   0.92897375002135     -1.37785945685483      0.79845805339089
  N   1.86413151938779      0.24453267608661     -0.12267816333248
  O   2.07013874107209     -0.28291682357363     -1.20993190916129
  O   2.53203061968133      1.10161341173058      0.42272565126815
  N   -1.06000874757024      1.08893920335460     -0.53297194381247
  O   -2.26183855412824      1.28915891984682     -0.44493822740284
  O   -0.18451846310928      1.90278481759833     -0.79767668830251
  C   -1.61448250201005     -1.19918127617341      0.14891348266768
  N   -2.43003808950911     -1.94661647916584      0.54327215840474
