13
Coordinates from ORCA-job run
  C   -0.31682101953670     -0.16152791628824     -0.09047510009057
  C   0.75333726703281     -0.36219079895437      0.97509073782945
  Br  0.37351148219491     -0.81934337847669     -1.84222913788952
  H   0.81382526638441     -1.43556671938753      1.17977656515577
  H   0.40880703714969      0.13666610187014      1.88464827489649
  N   -0.59942169627326      1.32349220220052     -0.31340573126620
  O   0.16880135692478      2.12630503570952      0.19993870560740
  O   -1.59274021575278      1.57990514547239     -0.98003214201836
  N   -1.53667601516970     -0.72637147812878      0.31636983387615
  H   -1.46174966638767     -1.72606433439800      0.45216427402702
  H   -2.27441530339054     -0.51713443877631     -0.34593146483471
  C   2.08453511173670      0.11775490677228      0.62164327425350
  N   3.18000639508732      0.46407567238508      0.38544191045357
