13
Coordinates from ORCA-job run
  C   -0.37482001385425     -0.19013546346344     -0.14984383025120
  C   1.09443514895411     -0.50554813371945      0.09270638890027
  Br  -0.85431487700490     -1.04856137163575     -1.91139191280345
  H   1.20273352707700     -1.59003214372324      0.18471558080683
  H   1.68605400738798     -0.18125683300446     -0.76253183821883
  N   -0.56429384586030      1.30232473738392     -0.42587619743182
  O   -1.68363897095739      1.74949413245693     -0.21715815609399
  O   0.40346275045809      1.91370254178391     -0.85712011604959
  N   -1.19027551888955     -0.52690113531649      0.92340560903114
  H   -2.14811692005064     -0.22694708795903      0.79907643315824
  H   -1.13035113923360     -1.50360463444884      1.17543179125479
  C   1.57800501172634      0.14631606358703      1.30903540515769
  N   1.98112084024711      0.66214932805891      2.28255084253992
