13
Coordinates from ORCA-job run
  C   -0.26354932319968     -0.31341445627160     -0.14911801728547
  C   0.80130155295585     -0.41612394047998      0.93800037033069
  Br  0.36396581319235     -1.12133534853813     -1.78442432328900
  H   1.00588425228543     -1.47828397682376      1.08632507254643
  H   0.40275044108765     -0.00398293841244      1.86799126617832
  N   -0.53913947260686      1.19718642435236     -0.42479061937467
  O   -0.92685441267090      1.53598558850654     -1.53204765905493
  O   -0.47203480419486      1.90848638735944      0.57573884780784
  N   -1.45399610623084     -0.95745156872021      0.27423492725692
  H   -2.15663946048882     -0.96940281240321     -0.45513263323397
  H   -1.82235534590929     -0.52084816983232      1.11260253316661
  C   2.03216719528603      0.28849718671849      0.59718188940009
  N   3.02749967049394      0.85068762454483      0.33343834555115
