18

C	0.0	0.0	0.0
C	-0.491325	-0.136756	-1.467064
F	1.425935	0.0	0.0
H	0.415541	-0.232194	-2.07284
N	-0.451572	1.219476	0.561476
H	-0.010511	1.384061	1.455971
H	-0.293551	1.985179	-0.07875
C	-0.381607	-1.149673	0.912931
H	-1.465137	-1.178907	1.030141
H	0.078725	-0.975523	1.891651
H	-0.023432	-2.094705	0.509447
N	-1.155832	1.104538	-1.87688
H	-2.051129	1.136655	-1.385176
H	-1.366019	1.029164	-2.867121
N	-1.259691	-1.366729	-1.63931
H	-1.49808	-1.444505	-2.623295
H	-2.146948	-1.248393	-1.146514
Br	-4.195774	0.0	0.0
