18

C	0.0	0.0	0.0
C	-0.344822	-0.291619	-1.487211
F	1.387588	0.0	0.0
H	0.100647	-1.276558	-1.683506
N	-0.457725	1.325215	0.352671
H	-1.476567	1.307473	0.319911
H	-0.19811	1.517214	1.314869
C	-0.465257	-1.091895	0.94194
H	-0.10833	-2.069019	0.605207
H	-1.556981	-1.098728	0.997492
H	-0.058812	-0.902051	1.939775
N	0.34664	0.701732	-2.306513
H	-0.180785	0.758628	-3.170243
H	0.265195	1.594362	-1.82983
N	-1.739031	-0.363747	-1.863949
H	-2.211927	0.515567	-1.690804
H	-2.273016	-1.044325	-1.335626
Br	-4.446165	0.0	0.0
