18

C	0.0	0.0	0.0
C	-0.261233	0.178889	-1.519126
F	1.416612	0.0	0.0
H	0.313244	-0.623597	-2.01128
N	-0.472082	1.074535	0.806643
H	-1.433241	0.887108	1.077308
H	-0.463532	1.914442	0.234994
C	-0.477115	-1.3291	0.527319
H	-0.068382	-2.143247	-0.076478
H	-1.568887	-1.363781	0.500963
H	-0.137035	-1.447428	1.558423
N	0.232459	1.511015	-1.874653
H	1.242999	1.525873	-1.818859
H	-0.058233	1.686121	-2.828303
N	-1.617021	0.093887	-1.993904
H	-2.259476	0.612071	-1.399042
H	-1.952957	-0.859496	-1.948672
Br	-4.316931	0.0	0.0
