18

C	0.0	0.0	0.0
C	-0.384166	0.307723	-1.453399
F	1.433774	0.0	0.0
H	-1.474114	0.395716	-1.455524
N	-0.439407	1.006347	0.915737
H	-1.424105	0.824966	1.105512
H	-0.400221	1.894174	0.424774
C	-0.445293	-1.362491	0.470562
H	0.042767	-2.150692	-0.10479
H	-1.53099	-1.437662	0.372333
H	-0.167472	-1.469691	1.521154
N	-0.009394	-0.728209	-2.423115
H	0.904346	-1.090166	-2.168398
H	-0.669665	-1.495157	-2.353945
N	0.192284	1.601861	-1.795286
H	1.201586	1.501789	-1.785339
H	-0.08013	1.809245	-2.748697
Br	-3.900182	0.0	0.0
