18

C	0.0	0.0	0.0
C	-0.480843	0.242277	-1.443921
F	1.392477	0.0	0.0
H	-1.517633	0.585643	-1.370342
N	-0.426781	1.148464	0.768423
H	-1.447575	1.153604	0.735913
H	-0.164	1.002821	1.73842
C	-0.420148	-1.338206	0.573809
H	-1.510013	-1.406061	0.568043
H	0.02032	-2.147819	-0.010383
H	-0.062563	-1.412713	1.606193
N	-0.363953	-0.978842	-2.240733
H	-1.148162	-1.576963	-1.998697
H	-0.512653	-0.684605	-3.20059
N	0.295858	1.274163	-2.117837
H	1.271403	1.011964	-2.012959
H	0.173318	2.126352	-1.58127
Br	-3.888261	0.0	0.0
