13

C	-0.575206	0.030371	-1.399601
C	0.0	0.0	0.0
Cl	-0.032551	-1.505357	-2.293037
H	1.096224	0.0	0.0
H	-0.123989	0.827375	-1.989432
H	-0.337158	0.929193	0.471908
N	-1.990089	0.152978	-1.347076
H	-2.3267	-0.53955	-0.686249
H	-2.41123	-0.001363	-2.253043
N	-0.593264	-1.127017	0.741214
H	-0.059768	-1.954688	0.497724
H	-0.423821	-0.96989	1.727695
Cl	3.597946	0.0	0.0
