13

C	-0.398522	-0.079616	-1.478736
C	0.0	0.0	0.0
Cl	-0.231957	1.545337	-2.254673
H	1.095232	0.0	0.0
H	-1.456128	-0.336906	-1.602564
H	-0.317027	-0.958387	0.435068
N	0.40135	-1.023829	-2.226305
H	0.170988	-1.955452	-1.895987
H	1.37865	-0.857662	-1.984793
N	-0.522309	1.090329	0.806551
H	-1.474771	1.304232	0.53493
H	0.033656	1.913942	0.620054
Cl	3.529987	0.0	0.0
