14

C	-0.571999	-0.054001	-1.404231
C	0.0	0.0	0.0
F	-0.23547	-1.229342	-2.005193
H	1.0913	0.0	0.0
H	-0.324705	-0.934573	0.474623
C	-2.040531	0.072167	-1.418498
N	-3.214745	0.064809	-1.371072
N	-0.018518	1.068735	-2.278293
O	0.956715	0.801468	-2.959643
O	-0.597191	2.146737	-2.203496
N	-0.456199	1.201574	0.679885
H	0.362418	1.656789	1.068301
H	-1.098352	0.992914	1.430744
H	2.818586	0.0	0.0
