14

C	-0.521713	0.023153	-1.401178
C	0.0	0.0	0.0
F	-0.295509	1.224143	-2.020649
H	1.092803	0.0	0.0
H	-0.355661	0.903372	0.502302
C	-0.005497	-1.06735	-2.238462
N	0.417813	-1.919769	-2.925172
N	-2.063774	-0.099851	-1.397611
O	-2.60045	-0.727297	-2.306162
O	-2.648147	0.510682	-0.508834
N	-0.462802	-1.249795	0.600364
H	-1.145755	-1.075809	1.323933
H	0.343886	-1.703501	1.015028
H	2.829297	0.0	0.0
