14

C	-0.509222	-0.010779	-1.424462
C	0.0	0.0	0.0
F	-0.034492	-1.068284	-2.121864
H	1.099787	0.0	0.0
H	-0.352782	0.916439	0.479278
C	-1.982152	-0.01248	-1.509206
N	-3.156407	-0.012537	-1.542095
N	-0.048022	1.26303	-2.142589
O	-0.462381	2.308593	-1.651134
O	0.667897	1.14379	-3.122773
N	-0.477808	-1.219317	0.648779
H	0.345879	-1.746236	0.92394
H	-0.998709	-0.997668	1.485272
H	2.829872	0.0	0.0
