14

C	-0.503872	0.129364	-1.42015
C	0.0	0.0	0.0
F	-0.320803	-1.030162	-2.105969
H	1.095074	0.0	0.0
H	-0.361218	-0.975002	0.341199
C	-1.923869	0.513625	-1.518822
N	-3.070676	0.737149	-1.639492
N	0.280061	1.219447	-2.17149
O	0.223651	2.332314	-1.664191
O	0.857874	0.90367	-3.197438
N	-0.559809	1.065579	0.83849
H	0.103436	1.833314	0.812646
H	-0.559657	0.729256	1.793653
H	2.855379	0.0	0.0
