14

C	-0.505741	0.081453	-1.416993
C	0.0	0.0	0.0
F	-0.169695	1.274717	-1.98458
H	1.096886	0.0	0.0
H	-0.357989	0.90281	0.508812
C	-0.059271	-1.017298	-2.282304
N	0.306049	-1.850763	-3.023727
N	-2.039565	0.053106	-1.392121
O	-2.580389	1.094667	-1.031259
O	-2.607391	-1.003792	-1.64986
N	-0.439315	-1.255117	0.592019
H	-1.141808	-1.116269	1.303261
H	0.372607	-1.692236	1.014098
H	2.79113	0.0	0.0
