14

C	-0.553364	0.081128	-1.393028
C	0.0	0.0	0.0
F	-1.926384	-0.070994	-1.404452
H	1.090741	0.0	0.0
H	-0.344745	-0.954679	0.413913
C	-0.244543	1.332572	-2.093193
N	-0.07456	2.348308	-2.656007
N	-0.009902	-1.08835	-2.208589
O	0.848135	-0.856164	-3.05068
O	-0.470756	-2.185851	-1.912642
N	-0.442985	1.175261	0.741097
H	0.370132	1.5467	1.221328
H	-1.146813	0.939602	1.42537
H	2.808114	0.0	0.0
