14

C	-0.51207	0.017276	-1.423191
C	0.0	0.0	0.0
F	-0.041012	-1.027322	-2.141043
H	1.10046	0.0	0.0
H	-0.354348	0.905317	0.498347
C	-1.984397	0.017482	-1.502221
N	-3.158731	0.018732	-1.530895
N	-0.051969	1.303219	-2.118932
O	-0.460551	2.339128	-1.604244
O	0.656153	1.200944	-3.106487
N	-0.479495	-1.232336	0.623301
H	-0.990295	-1.027061	1.471518
H	0.342646	-1.767874	0.879072
H	2.831501	0.0	0.0
