14

C	-0.443495	0.099484	-1.454261
C	0.0	0.0	0.0
F	-0.011637	-0.963433	-2.179947
H	1.090695	0.0	0.0
H	-0.367547	0.884039	0.525272
C	-1.908616	0.187771	-1.601967
N	-3.082879	0.195533	-1.653326
N	0.13177	1.366287	-2.085306
O	0.887839	1.24394	-3.03347
O	-0.239767	2.409345	-1.556654
N	-0.44213	-1.222357	0.638792
H	0.176905	-1.973054	0.36326
H	-1.398652	-1.470253	0.417107
H	2.842692	0.0	0.0
