14

C	-0.511478	0.083643	-1.426496
C	0.0	0.0	0.0
F	-0.404345	-1.125269	-2.045856
H	1.091123	0.0	0.0
H	-0.352911	-0.965831	0.375047
C	-1.908379	0.538287	-1.527752
N	-3.044874	0.826048	-1.607071
N	0.327024	1.078471	-2.245453
O	0.955899	0.640874	-3.194759
O	0.270619	2.239253	-1.864031
N	-0.492953	1.124187	0.790022
H	0.314047	1.683327	1.045018
H	-0.916889	0.790282	1.644622
H	2.821489	0.0	0.0
