14

C	-0.547907	-0.014906	-1.396798
C	0.0	0.0	0.0
F	-1.921408	-0.172937	-1.406379
H	1.098696	0.0	0.0
H	-0.34468	-0.924447	0.477557
C	-0.238658	1.187305	-2.178101
N	-0.052393	2.159181	-2.808947
N	0.004017	-1.236162	-2.126644
O	0.858074	-1.060317	-2.985919
O	-0.446393	-2.312549	-1.748384
N	-0.441656	1.223734	0.658294
H	0.36715	1.617293	1.126639
H	-1.15773	1.038376	1.345355
H	2.802584	0.0	0.0
