18

C	0.0	0.0	0.0
C	-0.562575	-0.087768	-1.429143
Cl	1.791679	0.0	0.0
H	-1.660167	-0.160985	-1.304066
C	-0.474964	1.313994	0.607135
H	-1.568451	1.321117	0.599865
H	-0.08666	2.170624	0.052912
H	-0.117761	1.376804	1.63727
C	-0.468334	-1.17734	0.843858
H	-1.560484	-1.205874	0.822426
H	-0.065279	-2.122298	0.480153
H	-0.126104	-1.025302	1.869979
N	-0.10585	-1.335545	-2.137168
O	-0.711323	-2.367276	-1.861142
O	0.842312	-1.245995	-2.914675
C	-0.213415	1.065598	-2.249915
N	0.016319	2.003374	-2.918645
Cl	-3.717142	0.0	0.0
