18

C	0.0	0.0	0.0
C	-0.218166	0.083208	-1.551426
Cl	1.801464	0.0	0.0
H	0.420512	0.892704	-1.910591
C	-0.527047	1.236601	0.69642
H	-0.168667	2.150161	0.219558
H	-0.198667	1.224037	1.739012
H	-1.621497	1.207388	0.661766
C	-0.55071	-1.270846	0.602526
H	-1.642546	-1.235862	0.503089
H	-0.29323	-1.311227	1.663614
H	-0.152814	-2.15955	0.10958
N	-1.584874	0.496912	-2.079334
O	-1.823011	1.693838	-1.972379
O	-2.262958	-0.348156	-2.642988
C	0.181711	-1.154176	-2.221108
N	0.543243	-2.133297	-2.759408
Cl	-3.925209	0.0	0.0
