18

C	0.0	0.0	0.0
C	-0.526346	-0.016883	-1.447096
Cl	1.791832	0.0	0.0
H	-1.628375	-0.043837	-1.363338
C	-0.467936	1.288217	0.66223
H	-0.105952	1.303807	1.692733
H	-0.069617	2.163849	0.145509
H	-1.561032	1.304927	0.657997
C	-0.468832	-1.221084	0.775531
H	-0.030554	-2.138611	0.382705
H	-0.156412	-1.108597	1.816258
H	-1.558797	-1.272795	0.723681
N	-0.104166	-1.267717	-2.174497
O	-0.786935	-2.267399	-1.971765
O	0.89433	-1.212864	-2.88973
C	-0.075864	1.137174	-2.216969
N	0.259123	2.070968	-2.845355
Cl	-3.703456	0.0	0.0
