18

C	0.0	0.0	0.0
C	-0.215947	0.073734	-1.550791
Cl	1.801325	0.0	0.0
H	0.404167	0.896561	-1.910959
C	-0.529373	1.239806	0.688121
H	-0.169176	2.15095	0.207437
H	-1.623714	1.21052	0.649968
H	-0.205217	1.233273	1.732006
C	-0.548601	-1.270022	0.606881
H	-0.149051	-2.158761	0.115576
H	-1.640807	-1.239676	0.508445
H	-0.290441	-1.307461	1.667944
N	-1.591637	0.448579	-2.078114
O	-1.853132	1.642444	-1.996829
O	-2.260467	-0.424237	-2.610351
C	0.213714	-1.154721	-2.21806
N	0.601975	-2.123304	-2.756754
Cl	-3.942605	0.0	0.0
