20

C	-0.434128	0.00791	-1.469438
C	0.0	0.0	0.0
F	-1.819107	0.277764	-1.544911
H	1.091657	0.0	0.0
C	0.291282	1.123334	-2.198635
H	0.002654	1.112112	-3.253356
H	0.024018	2.096401	-1.78349
H	1.37118	0.983539	-2.104012
C	-0.206198	-1.328919	-2.146388
H	-0.446756	-1.23892	-3.208595
H	0.834755	-1.634797	-2.027881
H	-0.852064	-2.093633	-1.711786
N	-0.459812	-1.278292	0.627813
O	-1.608014	-1.313746	1.080184
O	0.310892	-2.236605	0.616308
C	-0.526826	1.166917	0.812924
H	-0.208633	1.056381	1.851774
H	-0.093126	2.094347	0.436847
H	-1.613512	1.221962	0.773211
Cl	3.409519	0.0	0.0
