20

C	-0.421449	-0.001854	-1.473365
C	0.0	0.0	0.0
F	-1.80986	0.246912	-1.561631
H	1.091735	0.0	0.0
C	0.296795	1.124912	-2.1933
H	1.376371	1.013433	-2.064515
H	0.04352	1.096217	-3.25633
H	-0.009189	2.094452	-1.797369
C	-0.166438	-1.333448	-2.150658
H	-0.803378	-2.110251	-1.725011
H	0.87792	-1.623567	-2.022956
H	-0.398348	-1.242695	-3.214774
N	-0.472376	-1.264654	0.642388
O	0.265296	-2.246922	0.593408
O	-1.599139	-1.265667	1.148351
C	-0.520813	1.18355	0.793218
H	-0.044806	2.095916	0.43205
H	-1.603356	1.271722	0.716591
H	-0.244779	1.065959	1.84293
Cl	3.402128	0.0	0.0
