14
Coordinates from ORCA-job run
  C   0.62608986409418      0.03565638670234     -0.80067578148064
  C   -0.78073228428893     -0.08342794653720     -0.20476915218146
  F   0.78119082109776     -1.01232261402236     -1.68497832303277
  H   -1.52471512351502      0.03799752513807     -0.99332414511671
  H   0.72741479375952      0.95902297653104     -1.37963387637739
  N   1.59776260856443     -0.15143976713140      0.24727593414721
  H   2.51509548772635     -0.26468115197603     -0.16793696932502
  H   1.63131719566004      0.66019823000809      0.85366914841569
  N   -0.94251607770633      1.20646592421414      0.63573641431125
  O   -0.96768222777400      2.24716592022778     -0.02277296037532
  O   -0.95468939631906      1.12449082540191      1.85506543500886
  N   -0.98299792886924     -1.23143779209288      0.56153921776152
  H   -0.13160482198339     -1.61266727612705      0.94247434586949
  H   -1.59593291044628     -1.91602124033645      0.15833071237531
