14
Coordinates from ORCA-job run
  C   0.70058820213007      0.27152123339475     -0.78284379710776
  C   -0.67585087907447     -0.12251603482249     -0.24906472833719
  F   0.86708236178800     -0.42185334818188     -1.99215124889104
  H   -1.37425945954316     -0.17437019505424     -1.08472353380672
  H   0.72345195569821      1.33191277314636     -1.03143076763839
  N   1.69719444441977     -0.03634326649838      0.16860857333881
  H   2.59128080882663      0.35625456801885     -0.09189644832723
  H   1.78663905799719     -1.04171651144523      0.25424934175639
  N   -1.17718892550927      1.06881374309492      0.58688407927779
  O   -1.36393193949302      0.89188887564294      1.78595419853379
  O   -1.35292212566714      2.11893045108026     -0.02379110279559
  N   -0.63662580962974     -1.33869908664885      0.47245627721214
  H   -1.56254996364271     -1.72067322258824      0.60467192027366
  H   -0.22190772830037     -1.18414997913878      1.38307723651135
