14
Coordinates from ORCA-job run
  C   0.42514165241966      0.03123117278044     -0.93916022011181
  C   -0.77293883011668     -0.11035630515929      0.00317294799663
  F   0.31539144377659     -0.98326371801630     -1.87711158023032
  H   -1.68604711271116     -0.12843465337170     -0.59151152586983
  H   0.35043622167856      0.96979593201612     -1.50477069059441
  N   1.64471017154723     -0.16708631491994     -0.22074570615989
  H   1.68133673388968      0.43113635107032      0.59596495295752
  H   2.44497603292350      0.01277817180873     -0.81215916360485
  N   -0.86094665360790      1.21446182428143      0.75972472689279
  O   -1.69772732451162      2.02353896024030      0.36540185021614
  O   -0.06081643769324      1.39541998366551      1.67367493314918
  N   -0.66754803250600     -1.19533259020842      0.90383975788936
  H   -1.37650536194348     -1.89367236928617      0.75205280673403
  H   0.25853749685488     -1.59921644490103      0.89262691073545
