14
Coordinates from ORCA-job run
  C   0.71291262839263     -0.31879046416081     -0.60628296464557
  C   -0.69994531894147      0.02671600750923     -0.13150474118159
  F   1.18723189351005     -1.40998225985035      0.15026252413916
  H   -1.19430956162609      0.60885561256917     -0.90889942970413
  H   0.62713498890992     -0.69661068522400     -1.62883311176845
  N   1.57468556034615      0.79510612539501     -0.58544841185841
  H   2.43890219425895      0.60259913589854     -1.07214986119924
  H   1.77952677212130      1.07404905328245      0.36575357003931
  N   -0.62483848159849      0.98484415550560      1.04025510234132
  O   -1.35161954286699      1.97193121913755      1.00922012921304
  O   0.13212275653675      0.67340983989095      1.95858496169923
  N   -1.49134051738981     -1.08718260197205      0.27179267860411
  H   -2.17101859880074     -1.35825193913077     -0.41967695447017
  H   -0.91844477285218     -1.86669319885054      0.55792650879138
