14
Coordinates from ORCA-job run
  C   0.73445520159349      0.39921545447157     -0.69195559539725
  C   -0.67686259463324     -0.01285978149233     -0.27580635693877
  F   0.88185650085137      0.00030097750712     -2.02993032461766
  H   -1.35729809324028      0.18054479573983     -1.10542007804180
  H   0.83381376861796      1.48406895129685     -0.68208358556213
  N   1.68605666666147     -0.19314552124613      0.16599567937737
  H   1.70591371313385     -1.19430240419389      0.01379888965291
  H   2.60999932973824      0.18674542298169      0.01397617894415
  N   -1.11783948433427      0.98037598548481      0.81401245411192
  O   -1.21414392540286      2.15320697873407      0.46522210358462
  O   -1.33825426900842      0.54140484045265      1.93754985684867
  N   -0.73293921509743     -1.36420202955879      0.13921819486427
  H   -0.33281823942880     -1.45545965943578      1.06478099531764
  H   -1.68393935945107     -1.70389401074168      0.16764158785605
