15

C	-0.516792	-0.004651	-1.447164
C	0.0	0.0	0.0
Cl	0.174284	-1.383206	-2.37932
H	1.088242	0.0	0.0
H	-0.402709	0.896883	0.476783
C	-2.044542	-0.068986	-1.529547
H	-2.489785	0.765422	-0.982245
H	-2.412534	-1.003574	-1.107254
H	-2.340464	-0.014607	-2.57746
C	-0.066419	1.235192	-2.091276
N	0.259248	2.26214	-2.560253
N	-0.550843	-1.129658	0.74072
O	0.066665	-2.189478	0.738673
O	-1.609965	-0.949482	1.375883
H	2.684213	0.0	0.0
