15

C	-0.400252	0.080019	-1.462322
C	0.0	0.0	0.0
Cl	-2.192479	0.396075	-1.663857
H	1.0911	0.0	0.0
H	-0.379212	-0.896348	0.485368
C	0.394318	1.099567	-2.265902
H	0.128585	2.103203	-1.94507
H	0.197679	0.978405	-3.332963
H	1.452718	0.922263	-2.038146
C	-0.181555	-1.257289	-2.024707
N	-0.01546	-2.327391	-2.480563
N	-0.422238	1.129467	0.812174
O	-0.382964	2.264673	0.324578
O	-0.699882	0.893849	1.994807
H	2.6064	0.0	0.0
