15

C	-0.446551	-0.100861	-1.460551
C	0.0	0.0	0.0
Cl	-0.239827	1.570073	-2.134438
H	1.088947	0.0	0.0
H	-0.368442	0.90192	0.483729
C	0.427274	-1.04099	-2.281668
H	1.468337	-0.772742	-2.086489
H	0.188865	-0.948494	-3.343225
H	0.257684	-2.062961	-1.948037
C	-1.870706	-0.420536	-1.598886
N	-3.007919	-0.692591	-1.716264
N	-0.433484	-1.127143	0.812041
O	-0.61009	-2.225314	0.264938
O	-0.505268	-0.941243	2.031487
H	2.639817	0.0	0.0
