15

C	-0.471722	-0.095616	-1.435978
C	0.0	0.0	0.0
Cl	0.222253	1.211293	-2.465624
H	1.088442	0.0	0.0
H	-0.295848	-0.898188	0.54519
C	0.061757	-1.422338	-1.978061
H	-0.164446	-1.519106	-3.04106
H	1.143423	-1.427589	-1.816943
H	-0.393003	-2.255332	-1.435404
C	-1.93058	-0.034582	-1.565595
N	-3.100613	-0.076994	-1.674564
N	-0.519861	1.127656	0.764476
O	-0.994183	2.101308	0.166729
O	-0.388073	1.055292	1.990703
H	2.632333	0.0	0.0
