15

C	-0.53765	0.016462	-1.424639
C	0.0	0.0	0.0
Cl	0.380819	-1.082452	-2.52277
H	1.088245	0.0	0.0
H	-0.303576	0.904152	0.528335
C	-2.02077	-0.330767	-1.54313
H	-2.349529	-0.224093	-2.578945
H	-2.168287	-1.358436	-1.218831
H	-2.602837	0.34258	-0.908541
C	-0.340886	1.375274	-1.945217
N	-0.298761	2.46128	-2.392631
N	-0.441814	-1.118099	0.791977
O	-0.546563	-0.936161	2.017837
O	-0.55031	-2.230564	0.247626
H	2.517689	0.0	0.0
