15

C	0.0	0.0	0.0
C	-0.267773	-0.032537	-1.542839
Cl	1.789749	0.0	0.0
H	0.374226	0.755657	-1.958792
C	-0.282752	1.383669	0.62416
H	0.163948	1.400945	1.62675
H	-1.34534	1.576617	0.681075
H	0.215261	2.154591	0.031856
C	-0.71016	-1.131752	0.6223
N	-0.780436	-2.286573	0.923624
C	-1.641454	0.182539	-2.043411
N	-2.65087	0.151528	-2.652438
C	0.211744	-1.285282	-2.148348
N	0.573343	-2.266048	-2.687821
H	-2.131081	0.0	0.0
