13

C	0.0	0.0	0.0
C	-0.532589	0.066042	-1.443389
F	1.368646	0.0	0.0
H	-1.650812	0.06198	-1.293823
C	-0.423189	1.184348	0.769635
N	-0.616967	2.10202	1.477076
C	-0.418529	-1.250096	0.660102
N	-0.599922	-2.227575	1.287537
C	-0.104369	-1.1028	-2.204711
N	0.23229	-2.041621	-2.825283
C	-0.095376	1.296856	-2.095294
N	0.248169	2.288188	-2.624823
Cl	-3.239096	0.0	0.0
