13

C	0.0	0.0	0.0
C	-0.388164	-0.166552	-1.517458
F	1.371963	0.0	0.0
H	0.595275	-0.236282	-2.005671
C	-0.411767	1.290262	0.570065
N	-0.460222	2.374112	1.024543
C	-0.420149	-1.134615	0.837019
N	-0.436294	-2.080588	1.537327
C	-1.03468	1.006929	-2.105544
N	-1.352726	1.974078	-2.690947
C	-1.080403	-1.414124	-1.842909
N	-1.437003	-2.462918	-2.235112
Cl	-2.859726	0.0	0.0
