13

C	0.0	0.0	0.0
C	-0.392057	0.110295	-1.520138
F	1.372002	0.0	0.0
H	0.589506	0.152508	-2.01379
C	-0.41846	1.163492	0.797187
N	-0.43501	2.13283	1.465099
C	-0.418698	-1.26698	0.617885
N	-0.440405	-2.328388	1.126142
C	-1.066718	1.354657	-1.890589
N	-1.406277	2.395827	-2.316122
C	-1.058686	-1.074115	-2.061492
N	-1.409003	-2.045387	-2.621519
Cl	-2.865562	0.0	0.0
