14

C	-0.437189	0.016286	-1.446225
C	0.0	0.0	0.0
F	-1.820653	0.35906	-1.515718
H	1.093383	0.0	0.0
H	0.089274	0.81541	-1.964145
N	-0.186505	-1.228344	-2.06535
H	-0.466057	-1.199195	-3.035482
H	-0.679377	-1.975061	-1.592415
C	-0.545303	-1.132827	0.714932
N	-0.952924	-2.115442	1.215869
N	-0.377841	1.264159	0.66494
O	-0.707937	1.228898	1.851109
O	-0.260019	2.295935	0.004335
F	2.454457	0.0	0.0
