14

C	-0.232586	-0.227637	-1.487941
C	0.0	0.0	0.0
F	-1.502563	-0.759952	-1.742822
H	1.093105	0.0	0.0
H	-0.230117	0.743076	-1.991505
N	0.772661	-1.147108	-1.920572
H	0.916849	-1.062289	-2.917832
H	1.642467	-0.918125	-1.42059
C	-0.511735	-1.075935	0.821336
N	-0.892304	-1.97878	1.469248
N	-0.472253	1.314686	0.486789
O	-0.411675	2.265341	-0.291197
O	-0.820534	1.404089	1.663787
F	2.532515	0.0	0.0
