14

C	-0.246757	0.056806	-1.518356
C	0.0	0.0	0.0
F	-0.394107	-1.295004	-1.945116
H	1.094942	0.0	0.0
H	-1.192062	0.533892	-1.794065
N	0.864016	0.69295	-2.093993
H	0.901294	0.572899	-3.094848
H	1.728466	0.419265	-1.608045
C	-0.573366	-1.15067	0.660866
N	-1.031623	-2.089537	1.19927
N	-0.442435	1.236874	0.692971
O	-0.399944	1.229097	1.921476
O	-0.785582	2.202419	0.011518
F	2.547055	0.0	0.0
