14

C	-0.428797	0.024576	-1.449297
C	0.0	0.0	0.0
F	-1.798365	0.415475	-1.529782
H	1.092112	0.0	0.0
H	0.129938	0.80088	-1.966622
N	-0.22028	-1.230991	-2.059927
H	-0.757755	-1.951453	-1.595241
H	-0.478207	-1.193515	-3.036426
C	-0.55765	-1.129764	0.709265
N	-0.974744	-2.118737	1.190488
N	-0.372351	1.266942	0.663111
O	-0.215455	2.298388	0.011547
O	-0.740251	1.232497	1.83858
F	2.45371	0.0	0.0
