16

C	-0.467329	0.01525	-1.44533
C	0.0	0.0	0.0
Cl	0.34867	1.247708	-2.381938
H	1.092705	0.0	0.0
H	-0.300472	-0.954376	-1.907488
N	-1.970989	0.230509	-1.462819
O	-2.438656	1.31513	-1.781594
O	-2.612272	-0.743474	-1.072261
N	-0.37073	-1.329017	0.599681
O	-0.860425	-1.338442	1.727708
O	-0.109594	-2.330018	-0.060895
C	-0.516292	1.152185	0.829259
H	-0.26876	2.086501	0.322372
H	-0.020084	1.148112	1.798407
H	-1.595244	1.097026	0.987791
Br	3.40317	0.0	0.0
