16

C	-0.573534	-0.006874	-1.406335
C	0.0	0.0	0.0
Cl	0.319684	-1.06424	-2.491722
H	1.089998	0.0	0.0
H	-1.618758	-0.306528	-1.410961
N	-0.571171	1.410964	-1.935216
O	-1.648564	2.002871	-1.827511
O	0.470974	1.880781	-2.370558
N	-0.43581	-1.261339	0.692123
O	-1.298072	-1.971259	0.163012
O	0.08043	-1.481646	1.782325
C	-0.466783	1.171736	0.852096
H	-0.04852	2.096938	0.455316
H	-0.06515	1.033616	1.85549
H	-1.556355	1.252106	0.889742
Br	3.433233	0.0	0.0
