16

C	-0.464626	0.189561	-1.433127
C	0.0	0.0	0.0
Cl	0.337227	1.538412	-2.206237
H	1.09166	0.0	0.0
H	-0.28442	-0.712707	-2.011614
N	-1.970701	0.390322	-1.427799
O	-2.607203	-0.635277	-1.191032
O	-2.444395	1.506689	-1.585307
N	-0.369215	-1.393306	0.432228
O	-0.110082	-2.306158	-0.346466
O	-0.854565	-1.540265	1.552304
C	-0.521523	1.040037	0.963222
H	-0.276047	2.030114	0.575562
H	-1.600324	0.962527	1.110848
H	-0.027177	0.918271	1.925703
Br	3.401195	0.0	0.0
