16

C	-0.459052	0.113316	-1.44255
C	0.0	0.0	0.0
Cl	-2.151969	0.586675	-1.647682
H	1.103576	0.0	0.0
H	0.159298	0.878369	-1.91828
N	-0.170244	-1.154311	-2.255496
O	-0.932571	-1.450694	-3.16823
O	0.875501	-1.719562	-1.965307
N	-0.541123	-1.239418	0.645418
O	-1.697189	-1.184435	1.071995
O	0.186119	-2.226127	0.713593
C	-0.407403	1.212247	0.817766
H	0.04864	1.126196	1.805609
H	-1.486541	1.306546	0.917664
H	0.004594	2.107041	0.344868
Br	3.461584	0.0	0.0
