16

C	-0.471616	0.0477	-1.443093
C	0.0	0.0	0.0
Cl	0.355111	1.287087	-2.360176
H	1.097035	0.0	0.0
H	-0.318548	-0.914581	-1.923806
N	-1.97198	0.281784	-1.448393
O	-2.622622	-0.687764	-1.063489
O	-2.428805	1.376328	-1.74998
N	-0.372971	-1.338278	0.575856
O	-0.14471	-2.326962	-0.113917
O	-0.831387	-1.366588	1.71554
C	-0.50986	1.137515	0.853748
H	-1.587918	1.080533	1.01767
H	-0.264496	2.080492	0.362066
H	-0.007157	1.11512	1.818885
Br	3.399927	0.0	0.0
