16

C	-0.405758	0.090077	-1.454575
C	0.0	0.0	0.0
Cl	-2.141294	0.340825	-1.755391
H	1.105522	0.0	0.0
H	0.130289	0.925935	-1.900211
N	0.014568	-1.113228	-2.259032
O	0.722362	-0.890824	-3.236268
O	-0.410276	-2.203398	-1.894309
N	-0.514338	-1.233679	0.669291
O	0.275684	-2.147757	0.876057
O	-1.705289	-1.234622	0.990385
C	-0.447905	1.221312	0.782156
H	-1.532757	1.298528	0.835893
H	-0.029837	2.114748	0.312676
H	-0.035043	1.158342	1.79068
Br	3.43185	0.0	0.0
