18
Coordinates from ORCA-job run
  C   -0.82402483676486     -0.19006933193134      0.17296031815141
  C   0.58117533396250      0.20436790945496      0.63531763540995
  Br  -1.55868246397524     -1.35500591428270      1.56535335605904
  H   0.53077048407111      0.54152543504836      1.66950313480459
  C   -0.94649678278673     -0.88569950956862     -1.16082251779767
  H   -0.57216041223610     -0.23606641407436     -1.95084266231690
  H   -0.37747767164194     -1.81523451349341     -1.14112823165315
  H   -1.98972456733585     -1.12130792739809     -1.36017947474764
  N   -1.70848642342272      1.05921277812306      0.21858033526137
  O   -1.43895902017679      1.88314815897756      1.08477552774465
  O   -2.62961366560725      1.12399527461824     -0.58309045159008
  N   1.07689873671648      1.41803806447906     -0.11304237843827
  O   0.53892595428594      1.71751447482254     -1.17652994706288
  O   2.02671625010801      1.99773033753191      0.39931362458808
  C   1.62562244816627     -0.88708313056049      0.46197808054239
  H   1.80399173498958     -1.09288346430630     -0.59489200916843
  H   2.56073504647738     -0.55820604791597      0.91548956613146
  H   1.30278985517020     -1.80397617952439      0.95525609408210
