18
Coordinates from ORCA-job run
  C   -0.75819884919714      0.15991195551961      0.06819308007342
  C   0.74744822998402     -0.16227333008246     -0.01093760369285
  Br  -1.09682104265050      1.68769673347301      1.19843562988261
  H   0.82928884395669     -1.08228855762874     -0.59302739984357
  C   -1.64005781733435     -0.99856292165719      0.49998224287612
  H   -2.68826392061969     -0.71880991786842      0.37882008377378
  H   -1.42309215590486     -1.87520656853149     -0.11089368898817
  H   -1.46013950384798     -1.24019417536399      1.54546455940439
  N   -1.13537117846988      0.49118840931019     -1.38672507786496
  O   -0.96150139835696     -0.44868147397711     -2.15917415533990
  O   -1.54986929812231      1.60064851729149     -1.68086122012725
  N   1.22938568001523     -0.54598017884190      1.36136140974018
  O   0.96902690631228     -1.69295704810585      1.72505365948324
  O   1.83852105720947      0.29371412092181      2.01660861704937
  C   1.60802572635560      0.93509615290629     -0.59785012231023
  H   1.32949831197695      1.10642560929868     -1.63919061383489
  H   1.50934622433646      1.86291809637963     -0.03806386591242
  H   2.65477418435698      0.62835457695644     -0.57619553436885
