18
Coordinates from ORCA-job run
  C   -0.77568383140756     -0.02673092441859      0.03216281616177
  C   0.76547304192260      0.00925105524712      0.02006459416856
  Br  -1.49737486490787      1.03556115150338      1.47353128501179
  H   1.07721132879435     -0.67961036361434     -0.76732471309288
  C   -1.38445897639710     -1.41767884982489      0.07060605719596
  H   -0.95065177355806     -2.03155407685853     -0.71932022391578
  H   -1.19181916551921     -1.88778193655031      1.03271415654972
  H   -2.46380612987850     -1.34303070732706     -0.07468896592286
  N   -1.16729579179841      0.59258907469026     -1.32149280463576
  O   -0.73974471677774     -0.03807029289065     -2.28576180390699
  O   -1.83423937600793      1.61364402808506     -1.36430799054417
  N   1.27119065546249     -0.62166913939720      1.28845136224607
  O   1.64240147604885      0.11809798055344      2.19434838817766
  O   1.27188023867111     -1.85242211876097      1.31793350858234
  C   1.37274047536368      1.38048124671761     -0.18050535891522
  H   1.09872584805192      1.76406217079937     -1.16493880447907
  H   1.04494448045689      2.07924977110775      0.58641807314648
  H   2.46050708148048      1.30761193093858     -0.13888957582761
