16

C	0.0	0.0	0.0
C	-0.29256	0.311661	-1.491854
F	1.356462	0.0	0.0
H	0.580855	-0.097874	-2.008341
H	-0.416944	0.723464	0.690273
N	-0.309771	-1.359816	0.567267
O	-0.0758	-2.325765	-0.150572
O	-0.574438	-1.39632	1.763931
C	-0.327346	1.824951	-1.6142
H	0.511681	2.250273	-1.056949
H	-0.25131	2.135589	-2.655472
H	-1.27012	2.182078	-1.199578
N	-1.410034	-0.311389	-2.306121
O	-1.495362	-1.529251	-2.313466
O	-2.008276	0.441743	-3.066559
Cl	-3.014513	0.0	0.0
