13
Coordinates from ORCA-job run
  C   -0.13081100393031      0.12052188152152      0.01385407587799
  C   0.95469741885756      0.81030251683065      0.42299096840289
  H   0.87003397229206      1.84936168838061      0.72822467344473
  C   -0.07393556521081     -1.31367713665735     -0.41981602110259
  H   -0.43709435472044     -1.41034430505688     -1.44798025671880
  H   0.93502343875713     -1.72412215444900     -0.36834711047745
  H   -0.73101626662193     -1.92405513443755      0.20768519532878
  C   -1.47940025525917      0.77699327517318     -0.02469865312637
  H   -1.43899248229708      1.81630145863038      0.30541078016273
  H   -1.88766841139541      0.75090915976911     -1.04004918643642
  H   -2.18513030290247      0.23685299450473      0.61441032887163
  C   2.26260002016701      0.23735169139442      0.47950629379406
  N   3.34269379226387     -0.22639593560382      0.52780891197881
