13
Coordinates from ORCA-job run
  C   -0.00741483251663     -0.17701549828554     -0.02265875990382
  C   1.07177453322406     -0.02587485006132      0.77369508817611
  H   1.64523834043680     -0.88845839688913      1.10093213149948
  C   -0.83637342695386      0.97533469759341     -0.50576339888905
  H   -0.84777957357622      0.99813300989832     -1.60014916501065
  H   -0.46730348987533      1.93497378313595     -0.14235004021516
  H   -1.87444815226957      0.85493257791689     -0.17989310476266
  C   -0.43664374710726     -1.54249003601875     -0.47223695959218
  H   0.21316161543655     -2.32642266932133     -0.07980126398987
  H   -0.43223311173115     -1.60311447575854     -1.56524785881669
  H   -1.46202204189496     -1.74660047290709     -0.14792048084336
  C   1.52620568941659      1.24938592633314      1.23096135562240
  N   1.90583819741098      2.29621640436399      1.61043245672544
