13
Coordinates from ORCA-job run
  C   -0.13129701882921      0.11951417662030      0.01813028152994
  C   0.95405184967110      0.80891228945508      0.42854666533356
  H   0.86480913547220      1.84063025235580      0.75667260352660
  C   -0.06908666252962     -1.30517588967404     -0.44538598420446
  H   -0.44026436877365     -1.38319406935966     -1.47222145249737
  H   -0.71742859318805     -1.93181706209926      0.17523653425686
  H   0.94264027998920     -1.71032244542513     -0.41013254924877
  C   -1.48470425952989      0.76687697598279      0.00666006475527
  H   -1.44808676563361      1.79991781668049      0.35634380234565
  H   -2.17994908768644      0.20935155338509      0.64223991442028
  H   -1.90323534621101      0.75808672952153     -1.00480848272496
  C   2.26610457717343      0.24363491846631      0.45997169773092
  N   3.34844626007556     -0.21641524590929      0.48874690477648
