13
Coordinates from ORCA-job run
  C   -0.02774216675898     -0.17614156883098      0.01211806895532
  C   1.17028952787298     -0.02361034284595      0.61455084447856
  H   1.69898398968285     -0.88013068739371      1.02329585322375
  C   -0.65493152658326     -1.53424802275254     -0.10237172246665
  H   -1.63359125339639     -1.54438071877377      0.38806040781553
  H   -0.03484742364020     -2.31165293183793      0.34697682233594
  H   -0.82481137160896     -1.78920472552918     -1.15331170748991
  C   -0.80225007412902      0.96775069990030     -0.57098768314114
  H   -0.97852406055577      0.79684506057060     -1.63788391157214
  H   -0.28742774396913      1.92174975171528     -0.45288634419349
  H   -1.78476626372771      1.04012191090289     -0.09384639428739
  C   1.81295440883144      1.24512117975840      0.75380416543390
  N   2.34666395798217      2.28678039511658      0.87248160090772
