13
Coordinates from ORCA-job run
  C   -0.01500673009184     -0.17782573822067     -0.00714374648840
  C   1.02423086707647     -0.00199381402674      0.83587773087191
  H   1.53238252540070     -0.85515579530993      1.27634802518103
  C   -0.75450111880970      0.96078238829973     -0.64354186834861
  H   -0.35732429157396      1.93228084920047     -0.34762180276865
  H   -1.81417338214062      0.91985460676021     -0.37197148309113
  H   -0.70300193100506      0.88065027828670     -1.73405954607242
  C   -0.48907317415412     -1.55837042373630     -0.35359178633930
  H   0.09710345951644     -2.33078410160512      0.14700317431070
  H   -0.42797739698464     -1.72284523266591     -1.43413071805045
  H   -1.53977948984392     -1.68313143695982     -0.07307897764574
  C   1.51756674775667      1.28855293275091      1.20073370071926
  N   1.92855391485357      2.34798548722649      1.50517729772177
