13
Coordinates from ORCA-job run
  C   -0.11215816453412      0.13647142117318     -0.02764118316897
  C   0.79693665809464      0.67210433413654      0.81365470529813
  H   0.71672724407446      1.70788057136358      1.13110419196228
  C   -1.25450992893711      0.96229284095794     -0.54126805863858
  H   -2.21035937194864      0.50362045728860     -0.26867962980680
  H   -1.23382621660419      1.98013080583175     -0.14829812047580
  H   -1.22757544129201      1.01181462650928     -1.63455005254224
  C   -0.05208349359891     -1.28518757207277     -0.50009475039523
  H   -0.96701393861112     -1.81454480539465     -0.21554525351591
  H   0.80301123065538     -1.82411985934790     -0.09072849764167
  H   0.00644899378197     -1.31802602206538     -1.59262634671428
  C   1.90800802332070     -0.06544806584268      1.32650081327282
  N   2.82539440559895     -0.66798873253751      1.75017218236625
