13
Coordinates from ORCA-job run
  C   -0.13016119044030      0.12170477005509      0.01625143151659
  C   0.95467735062942      0.79467001733233      0.45385440326500
  H   0.86924273271465      1.82138625047920      0.79826752007305
  C   -0.07308158272112     -1.29566301700803     -0.46936225743714
  H   -0.73709190670329     -1.92717227338773      0.12933801691141
  H   -0.42808069050925     -1.35305058327467     -1.50327541058346
  H   0.93423344384977     -1.71098679651222     -0.42405422002109
  C   -1.47807606992705      0.78008730115419     -0.00451486026423
  H   -1.88617286409822      0.78298609646566     -1.02026632281546
  H   -1.43718336848813      1.80938937206470      0.35560213592757
  H   -2.18431039322204      0.22221729901393      0.61872636282991
  C   2.25949794375509      0.21458103345506      0.50278603821612
  N   3.33550659516046     -0.25914946983752      0.54664716238174
