13
Coordinates from ORCA-job run
  C   -0.12461803353954      0.12760902169511      0.00206911449122
  C   0.77482946891859      0.57689685172581      0.90241918586252
  H   0.61650621617430      1.51669771894846      1.42377234683873
  C   -1.36324455323601      0.91969195570419     -0.29692890492880
  H   -1.40264855527023      1.17906470986426     -1.35970941414680
  H   -1.41099294479244      1.84108122929131      0.28583933553252
  H   -2.25748170203979      0.32620115847341     -0.08176138454313
  C   0.04027707268871     -1.16085479996127     -0.74697886871369
  H   0.96090327032840     -1.68159553248132     -0.48158927083625
  H   0.04514507774532     -0.97123693629767     -1.82510562508758
  H   -0.80634639923940     -1.82471785648203     -0.54498972625903
  C   1.97077146429507     -0.13492801484648      1.22650806664421
  N   2.95689961796703     -0.71590950563378      1.49845514514608
