18

C	-0.175626	-0.003292	-1.527075
C	0.0	0.0	0.0
Cl	-1.924979	-0.043599	-2.015687
H	1.103174	0.0	0.0
N	0.381985	1.221859	-2.055581
H	1.333874	1.283339	-1.690671
H	0.440103	1.149861	-3.066962
N	0.401622	-1.247699	-2.016368
H	1.392125	-1.217178	-1.767869
H	0.327417	-1.27573	-3.028112
N	-0.499554	-1.189136	0.66443
H	-0.105478	-1.996955	0.195667
H	-1.504689	-1.229212	0.512498
C	-0.545854	1.240795	0.672548
H	-1.639807	1.257691	0.611058
H	-0.163981	2.148498	0.208745
H	-0.257073	1.21895	1.724579
Cl	3.485327	0.0	0.0
