18

C	-0.389344	-0.182963	-1.477402
C	0.0	0.0	0.0
Cl	-0.119651	1.435731	-2.365182
H	1.102243	0.0	0.0
N	0.43628	-1.20797	-1.989726
H	1.417655	-1.003792	-1.807187
H	0.26506	-1.344764	-2.977425
N	-1.77506	-0.51677	-1.743387
H	-2.335891	0.314576	-1.604878
H	-2.026868	-1.173253	-1.006169
N	-0.516927	-1.210223	0.680961
H	-0.213341	-1.155675	1.649687
H	-0.016925	-1.998445	0.276919
C	-0.571098	1.226472	0.676568
H	-0.348592	1.187081	1.746969
H	-1.658822	1.2662	0.558414
H	-0.128407	2.137317	0.278608
Cl	3.503455	0.0	0.0
