18

C	-0.396377	0.08659	-1.466814
C	0.0	0.0	0.0
Cl	0.082579	-1.719713	-2.238116
H	1.098628	0.0	0.0
N	-1.781188	0.224545	-1.649894
H	-2.224913	-0.476845	-1.06678
H	-2.047569	0.076542	-2.614755
N	0.390441	1.030277	-2.128582
H	0.257956	1.010015	-3.132362
H	1.370383	0.871172	-1.906797
N	-0.632639	-1.162473	0.624164
H	-0.125968	-1.989398	0.326849
H	-0.494052	-1.080462	1.625807
C	-0.45786	1.261944	0.723887
H	-0.014966	1.275031	1.72472
H	-0.117246	2.148955	0.191431
H	-1.546737	1.289356	0.809368
Cl	3.500298	0.0	0.0
