18

C	-0.409964	0.112372	-1.479094
C	0.0	0.0	0.0
Cl	-0.136094	1.804324	-2.0615
H	1.09385	0.0	0.0
N	0.413985	-0.728914	-2.33114
H	0.333196	-1.66666	-1.943741
H	1.388741	-0.452703	-2.196373
N	-1.813301	-0.184306	-1.6372
H	-1.978821	-0.289059	-2.634185
H	-1.939325	-1.094508	-1.206922
N	-0.406084	-1.362786	0.421139
H	0.393563	-1.798399	0.869443
H	-1.142042	-1.297581	1.117216
C	-0.564374	1.068617	0.916023
H	-0.181528	2.054894	0.659845
H	-1.656992	1.090911	0.846205
H	-0.269131	0.850477	1.945982
Cl	3.473913	0.0	0.0
