18

C	-0.33172	-0.020379	-1.490009
C	0.0	0.0	0.0
Cl	-2.222665	-0.41799	-1.605198
H	1.097168	0.0	0.0
N	-0.053967	1.190996	-2.136608
H	-0.216637	1.091811	-3.129896
H	-0.582585	1.963965	-1.762258
N	0.314586	-1.080147	-2.203223
H	1.312217	-0.871983	-2.12939
H	0.156373	-1.919501	-1.654013
N	-0.382369	-1.286871	0.578615
H	-1.333752	-1.252428	0.925859
H	0.244046	-1.486171	1.348698
C	-0.518625	1.217181	0.75069
H	-1.609968	1.288339	0.685861
H	-0.236019	1.13328	1.80313
H	-0.068068	2.138627	0.373285
Cl	3.463253	0.0	0.0
