18

C	-0.445016	0.019065	-1.46442
C	0.0	0.0	0.0
Cl	0.094052	-1.628064	-2.188985
H	1.101915	0.0	0.0
N	-1.865828	0.06085	-1.70043
H	-2.281978	-0.619181	-1.070128
H	-2.177553	0.985424	-1.424477
N	0.180901	1.096637	-2.132009
H	0.013799	1.025942	-3.128257
H	1.181366	1.073237	-1.948747
N	-0.586961	-1.165565	0.674148
H	-0.054722	-1.982426	0.393556
H	-0.41763	-1.050131	1.667601
C	-0.4724	1.257524	0.717395
H	-0.009266	1.297218	1.708069
H	-0.174813	2.152589	0.172248
H	-1.559903	1.248352	0.846916
Cl	3.513936	0.0	0.0
