18

C	-0.438757	-0.070383	-1.468826
C	0.0	0.0	0.0
Cl	0.1357	1.474998	-2.312134
H	1.094986	0.0	0.0
N	0.183696	-1.159721	-2.182229
H	1.184354	-0.971473	-2.192878
H	0.057912	-1.954556	-1.557152
N	-1.854696	-0.218994	-1.583714
H	-2.324432	0.634351	-1.30972
H	-2.064856	-0.415556	-2.555261
N	-0.376729	-1.296056	0.582272
H	0.242496	-1.487506	1.360428
H	-1.333932	-1.27046	0.913468
C	-0.536175	1.190237	0.783336
H	-0.130883	1.15701	1.7979
H	-0.241527	2.140095	0.335875
H	-1.630889	1.154008	0.859027
Cl	3.49001	0.0	0.0
