11

C	-0.556379	-0.070174	-1.403511
C	0.0	0.0	0.0
F	-0.258708	1.091862	-2.116338
H	1.098599	0.0	0.0
H	-0.12778	-0.914117	-1.95361
H	-1.645985	-0.172189	-1.368385
H	-0.359444	0.92395	0.461938
N	-0.541732	-1.154676	0.751688
H	-0.434747	-0.955469	1.73946
H	0.082194	-1.935829	0.57785
Cl	3.670364	0.0	0.0
