11

C	-0.452891	-0.01452	-1.43343
C	0.0	0.0	0.0
F	-1.821161	0.256131	-1.556008
H	1.102391	0.0	0.0
H	0.085033	0.747118	-2.003615
H	-0.275294	-0.993771	-1.888014
H	-0.347167	0.930212	0.459122
N	-0.567057	-1.138266	0.748068
H	-0.415802	-0.958195	1.734396
H	0.015715	-1.942888	0.53952
Cl	3.62117	0.0	0.0
