11

C	-0.422608	-0.06804	-1.445036
C	0.0	0.0	0.0
F	-1.830496	-0.053627	-1.550544
H	1.094876	0.0	0.0
H	-0.070856	-0.984133	-1.926354
H	-0.057268	0.801735	-1.997372
H	-0.351514	-0.897429	0.519328
N	-0.486406	1.188427	0.703754
H	-1.41301	1.419246	0.365802
H	0.129412	1.964461	0.49547
Cl	3.595524	0.0	0.0
