13

C	0.0	0.0	0.0
C	-0.487909	-0.106311	-1.432768
F	1.384733	0.0	0.0
H	0.219354	-0.756342	-1.960748
H	-0.285183	0.978261	0.408771
H	-1.482694	-0.561385	-1.41064
N	-0.495637	-1.114802	0.75486
H	-0.268963	-0.965136	1.73348
H	-1.520739	-1.01849	0.67198
N	-0.504879	1.228458	-2.061499
H	-1.358135	1.667576	-1.71647
H	-0.646487	1.101887	-3.057929
H	-3.166987	0.0	0.0
