13

C	0.0	0.0	0.0
C	-0.381492	0.060381	-1.483386
F	1.395569	0.0	0.0
H	0.395597	-0.527273	-1.992542
H	-0.288094	0.917983	0.528876
H	-0.249157	1.110387	-1.803814
N	-0.467493	-1.195047	0.621697
H	-1.387816	-1.417397	0.23702
H	-0.592782	-1.031934	1.616055
N	-1.687667	-0.521699	-1.765379
H	-2.434112	-0.193098	-1.113714
H	-1.975881	-0.271834	-2.712037
H	-3.650301	0.0	0.0
