13

C	0.0	0.0	0.0
C	-0.417698	-0.037489	-1.459055
F	1.410446	0.0	0.0
H	-0.295524	-1.087565	-1.793454
H	-0.31803	0.936012	0.462063
H	0.33238	0.548163	-2.007045
N	-0.516485	-1.089075	0.728237
H	-0.16775	-1.96861	0.375251
H	-0.374273	-1.011847	1.723295
N	-1.731253	0.546207	-1.645915
H	-2.435994	0.245849	-0.938137
H	-2.111134	0.241255	-2.534922
H	-3.991412	0.0	0.0
