13

C	0.0	0.0	0.0
C	-0.613433	0.189375	-1.369291
F	1.42737	0.0	0.0
H	0.056444	0.807951	-1.975611
H	-0.261901	0.843676	0.642836
H	-1.564656	0.707978	-1.185173
N	-0.454891	-1.198356	0.58635
H	-0.272077	-1.967377	-0.043431
H	-0.015031	-1.351701	1.48199
N	-0.867439	-1.106321	-2.017954
H	-0.879697	-0.971537	-3.019745
H	-1.817527	-1.346108	-1.739599
H	-3.769472	0.0	0.0
