16

C	-0.507953	0.255344	-1.413803
C	0.0	0.0	0.0
F	-1.779258	0.76366	-1.381569
H	1.093821	0.0	0.0
H	-0.398038	-0.919277	0.423044
C	0.389944	1.109004	-2.268432
H	0.418197	2.108989	-1.838801
H	-0.006716	1.149584	-3.285817
H	1.401222	0.69683	-2.251837
N	-0.624586	-1.108131	-2.088827
O	0.366246	-1.824613	-2.009216
O	-1.665771	-1.367244	-2.682137
N	-0.434185	1.096055	0.90363
O	-0.256655	2.253407	0.531961
O	-0.914486	0.770434	1.988724
Br	3.45878	0.0	0.0
