16

C	-0.548491	0.062	-1.40282
C	0.0	0.0	0.0
F	-1.899317	0.310969	-1.360636
H	1.091307	0.0	0.0
H	-0.329359	0.904629	0.514117
C	0.158171	1.132723	-2.195075
H	-0.227362	1.148014	-3.216635
H	-0.032515	2.100761	-1.731698
H	1.231793	0.9392	-2.189953
N	-0.379235	-1.246874	-2.163474
O	-1.388036	-1.797712	-2.582354
O	0.776233	-1.606121	-2.332678
N	-0.519179	-1.126358	0.811005
O	-0.643871	-2.22387	0.270096
O	-0.763205	-0.889352	1.990974
Br	3.450373	0.0	0.0
