16

C	-0.558062	0.172148	-1.388426
C	0.0	0.0	0.0
F	-1.909729	0.406546	-1.319692
H	1.089369	0.0	0.0
H	-0.321313	0.861191	0.587536
C	0.136898	1.310073	-2.097679
H	-0.25511	1.399091	-3.113282
H	1.212385	1.126087	-2.111481
H	-0.06072	2.238287	-1.558412
N	-0.379473	-1.065983	-2.25882
O	0.772027	-1.457528	-2.376598
O	-1.37115	-1.515971	-2.817734
N	-0.521166	-1.184256	0.724993
O	-0.795778	-2.192392	0.077086
O	-0.620659	-1.07818	1.944836
Br	3.451477	0.0	0.0
