11
Coordinates from ORCA-job run
  C   -0.17623366960133     -0.20150284649518      0.27760884458387
  C   1.23621628420004     -0.14963330653192     -0.26322281283630
  Br  -0.17903753923833     -0.65781573265922      2.16950287322016
  H   1.20960051135519      0.15772182384965     -1.31150575620963
  H   1.68408252944730     -1.14088033110161     -0.18985223360040
  H   1.82526005302592      0.56463566543883      0.30835450566411
  C   -1.01045075106119     -1.15437158730746     -0.43996939714207
  N   -1.61504891441068     -1.95615643068724     -1.05101435012924
  N   -0.83694622355726      1.18606090516264      0.17901536918817
  O   -0.09071447364215      2.14476982125749      0.31331720213710
  O   -2.04772780651751      1.20717201907403      0.00976575512421
