11
Coordinates from ORCA-job run
  C   -0.23520610144379     -0.25822665396544      0.26077724010659
  C   1.23974561326396     -0.09494844315569     -0.07407395824115
  Br  -0.47041226797729     -0.96617080504894      2.04269789291566
  H   1.73500087151401     -1.06470158860516     -0.03134357178510
  H   1.33115385166945      0.31598733197484     -1.08207392895122
  H   1.70099630945153      0.57966423540771      0.64870818731911
  C   -0.92657053961102     -1.12278064091619     -0.68464507859950
  N   -1.43849108149552     -1.85753212951848     -1.44628336468602
  N   -0.86105081818361      1.15230214143923      0.16464119618564
  O   -0.87097915070945      1.84283514821705      1.16803463473959
  O   -1.20318668647829      1.47357140417108     -0.96643924900360
