14

C	0.0	0.0	0.0
C	-0.492578	-0.281923	-1.420469
Br	1.953385	0.0	0.0
H	-0.02518	0.439265	-2.096802
H	-1.57382	-0.098717	-1.384167
C	-0.325138	1.398766	0.355851
N	-0.526072	2.521877	0.639807
N	-0.53568	-0.979729	0.901892
H	-1.559143	-0.898407	0.813806
H	-0.287661	-0.745169	1.856506
N	-0.131717	-1.644659	-1.815704
H	-0.737175	-1.905334	-2.586639
H	-0.380235	-2.24768	-1.038145
Br	-3.773209	0.0	0.0
