14

C	0.0	0.0	0.0
C	-0.432117	-0.439708	-1.397794
Br	2.06607	0.0	0.0
H	0.05823	0.197138	-2.140945
H	-1.516302	-0.273451	-1.40801
C	-0.290098	1.41305	0.24574
N	-0.477373	2.555669	0.444192
N	-0.52614	-0.827728	0.946349
H	-0.463693	-0.585449	1.918202
H	-0.535926	-1.80327	0.696016
N	-0.156665	-1.862216	-1.548633
H	-0.872003	-2.287557	-2.121649
H	0.747635	-2.008708	-1.976618
Br	-3.851325	0.0	0.0
