14

C	0.0	0.0	0.0
C	-0.454115	-0.485641	-1.379087
Br	1.979555	0.0	0.0
H	-0.131708	-1.535142	-1.465989
H	-1.5477	-0.464778	-1.316883
C	-0.346136	1.416516	0.186408
N	-0.564503	2.559784	0.343422
N	-0.496884	-0.770027	1.102957
H	-0.378287	-1.754178	0.881996
H	-1.507825	-0.586634	1.136541
N	0.006911	0.376768	-2.450843
H	-0.702893	0.452743	-3.165135
H	0.862184	0.031283	-2.863683
Br	-3.739729	0.0	0.0
