14

C	0.0	0.0	0.0
C	-0.476286	-0.293556	-1.424633
Br	1.953768	0.0	0.0
H	-0.002214	0.424062	-2.100718
H	-1.558176	-0.115772	-1.412217
C	-0.330943	1.396766	0.343562
N	-0.554565	2.51803	0.617416
N	-0.548984	-0.975743	0.898404
H	-0.290907	-0.752514	1.853986
H	-1.573049	-0.877656	0.811339
N	-0.104562	-1.656788	-1.806493
H	-0.70567	-1.926845	-2.576883
H	-0.356044	-2.256278	-1.026133
Br	-3.765662	0.0	0.0
