14

C	0.0	0.0	0.0
C	-0.469876	-0.373929	-1.407378
Br	2.065537	0.0	0.0
H	-0.006241	0.301061	-2.134087
H	-1.555198	-0.206344	-1.36575
C	-0.284594	1.39853	0.31246
N	-0.500952	2.523231	0.572511
N	-0.52398	-0.870466	0.909339
H	-0.565564	-1.825351	0.587698
H	-0.441268	-0.688304	1.89094
N	-0.209168	-1.788176	-1.630551
H	0.695524	-1.916847	-2.066515
H	-0.926422	-2.176018	-2.228155
Br	-3.910124	0.0	0.0
