14

C	0.0	0.0	0.0
C	-0.466372	0.286359	-1.420912
Br	2.042974	0.0	0.0
H	-1.56029	0.312964	-1.333939
H	-0.18539	-0.584345	-2.034301
C	-0.302535	1.109399	0.908007
N	-0.522871	1.987443	1.655616
N	-0.522182	-1.189683	0.47473
H	-0.395992	-1.99362	-0.117991
H	-0.426624	-1.374742	1.458544
N	0.04148	1.555519	-1.90207
H	0.931331	1.443581	-2.367613
H	-0.621866	1.969327	-2.541763
Br	-3.976689	0.0	0.0
