14

C	0.0	0.0	0.0
C	-0.426278	0.260489	-1.44396
Br	2.04321	0.0	0.0
H	-0.101893	-0.611988	-2.032257
H	-1.522883	0.268149	-1.399168
C	-0.325966	1.121473	0.881579
N	-0.569423	2.008753	1.609542
N	-0.527771	-1.189544	0.472906
H	-0.342445	-1.995679	-0.103553
H	-0.437128	-1.363958	1.46028
N	0.077934	1.532627	-1.922778
H	-0.575253	1.936101	-2.577826
H	0.979086	1.430059	-2.366627
Br	-3.956353	0.0	0.0
