15

C	-0.277742	0.027711	-1.48619
C	0.0	0.0	0.0
Cl	-1.985479	0.452761	-1.879139
H	1.091065	0.0	0.0
H	-0.300446	0.978523	0.388463
C	0.699213	0.978239	-2.147172
H	1.690477	0.687352	-1.771412
H	0.490919	1.99243	-1.802369
H	0.611107	0.933608	-3.232389
N	-0.035451	-1.343747	-2.122476
O	0.416246	-2.230974	-1.408637
O	-0.258742	-1.442328	-3.324924
C	-0.676081	-1.027051	0.760143
N	-1.243916	-1.815818	1.420136
F	2.593989	0.0	0.0
