15

C	-0.44982	-0.033271	-1.450994
C	0.0	0.0	0.0
Cl	0.198239	-1.468839	-2.257423
H	1.093454	0.0	0.0
H	-0.332266	0.946367	0.436759
C	-1.950059	0.028346	-1.680796
H	-2.176461	0.051767	-2.749695
H	-2.351691	0.922093	-1.200605
H	-2.410093	-0.856907	-1.239481
N	0.137461	1.222593	-2.117891
O	0.819482	1.126878	-3.1254
O	-0.204921	2.2773	-1.588957
C	-0.57866	-1.098581	0.739837
N	-1.054187	-1.988448	1.345477
F	2.521417	0.0	0.0
