15

C	-0.207636	0.060133	-1.497304
C	0.0	0.0	0.0
Cl	-1.938711	0.211468	-2.008554
H	1.093923	0.0	0.0
H	-0.414911	-0.90984	0.429529
C	0.637933	1.148815	-2.105576
H	0.60071	1.130774	-3.192476
H	1.649854	0.970472	-1.721253
H	0.275863	2.111186	-1.738116
N	0.218344	-1.301615	-2.061902
O	-0.10027	-2.29799	-1.422237
O	0.800466	-1.312613	-3.141852
C	-0.519596	1.177966	0.65795
N	-0.927564	2.133656	1.20817
F	2.574344	0.0	0.0
