15

C	-0.29524	0.098416	-1.494343
C	0.0	0.0	0.0
Cl	-1.939057	0.737464	-1.832957
H	1.09171	0.0	0.0
H	-0.310067	0.943147	0.459746
C	0.772855	0.954709	-2.147787
H	1.741947	0.614373	-1.754445
H	0.707498	0.898959	-3.235887
H	0.615743	1.991237	-1.837977
N	-0.220122	-1.307684	-2.089476
O	0.915276	-1.705012	-2.33026
O	-1.25045	-1.954907	-2.234203
C	-0.638727	-1.103692	0.680214
N	-1.140537	-1.996499	1.257304
F	2.590425	0.0	0.0
