15

C	-0.538468	0.005171	-1.4134
C	0.0	0.0	0.0
Cl	0.185963	-1.369714	-2.290811
H	1.10057	0.0	0.0
H	-0.283537	-0.966519	0.43364
C	-2.047151	-0.065714	-1.545903
H	-2.401198	-0.963313	-1.036089
H	-2.494954	0.809665	-1.067963
H	-2.340747	-0.101947	-2.594235
N	-0.09461	1.272219	-2.156344
O	-0.469317	1.378924	-3.323003
O	0.556666	2.102143	-1.536548
C	-0.596724	1.046532	0.804706
N	-1.101083	1.876627	1.468558
F	2.524056	0.0	0.0
