15

C	-0.254288	-0.336224	-1.458485
C	0.0	0.0	0.0
Cl	0.064207	1.127594	-2.43838
H	1.099249	0.0	0.0
H	-0.425986	0.963818	0.275603
C	0.656177	-1.451826	-1.908892
H	0.370907	-2.37566	-1.399613
H	0.608967	-1.605453	-2.98571
H	1.654064	-1.148564	-1.567705
N	-1.728056	-0.652395	-1.726114
O	-2.55925	0.032948	-1.137819
O	-1.988415	-1.554232	-2.520611
C	-0.504878	-1.050818	0.862384
N	-0.902193	-1.912649	1.556767
F	2.586265	0.0	0.0
