15

C	-0.22733	0.140563	-1.482985
C	0.0	0.0	0.0
Cl	-1.976036	0.252626	-1.956891
H	1.103252	0.0	0.0
H	-0.406996	-0.931356	0.388304
C	0.564398	1.296673	-2.03997
H	1.589518	1.137673	-1.681245
H	0.171327	2.222579	-1.616403
H	0.511156	1.33635	-3.126468
N	0.240581	-1.162355	-2.147347
O	0.120529	-2.202671	-1.510131
O	0.650314	-1.085059	-3.302095
C	-0.495709	1.147796	0.726897
N	-0.849873	2.095501	1.323732
F	2.558239	0.0	0.0
