15

C	-0.450618	-0.116563	-1.446635
C	0.0	0.0	0.0
Cl	0.203508	-1.591766	-2.170802
H	1.102097	0.0	0.0
H	-0.332048	0.969663	0.381918
C	-1.951703	-0.076811	-1.676892
H	-2.40401	-0.945514	-1.197815
H	-2.359325	0.834055	-1.236774
H	-2.179736	-0.101367	-2.746002
N	0.129014	1.102658	-2.178087
O	-0.252892	2.182009	-1.726124
O	0.852559	0.956924	-3.151162
C	-0.574333	-1.054869	0.802682
N	-1.046066	-1.908234	1.461148
F	2.519626	0.0	0.0
