15

C	-0.44379	0.145911	-1.446045
C	0.0	0.0	0.0
Cl	0.154292	-1.214103	-2.407387
H	1.098866	0.0	0.0
H	-0.327968	0.889751	0.544682
C	-1.939708	0.288148	-1.667205
H	-2.161489	0.431778	-2.727959
H	-2.434994	-0.619456	-1.320718
H	-2.307067	1.142176	-1.0959
N	0.187407	1.4465	-1.965574
O	0.849441	1.445475	-2.99156
O	-0.100972	2.441081	-1.302439
C	-0.587173	-1.174321	0.602713
N	-1.069993	-2.124234	1.10149
F	2.519294	0.0	0.0
