18

C	0.0	0.0	0.0
C	-0.265101	-0.022388	-1.561872
Cl	1.744237	0.0	0.0
H	0.350986	-0.876294	-1.8509
N	-0.397352	1.298479	0.691594
O	-0.822768	2.220385	-0.005878
O	-0.173617	1.386561	1.891858
N	-0.623507	-1.171574	0.641943
O	-0.630671	-2.195116	-0.102245
O	-0.624844	-1.243544	1.88729
N	0.347352	1.155623	-2.187045
H	0.474871	0.945802	-3.171695
H	-0.296049	1.930826	-2.10596
C	-1.65433	-0.312377	-2.121673
H	-1.511136	-0.498527	-3.200224
H	-2.326954	0.537163	-2.006609
H	-2.091793	-1.202566	-1.673555
H	-2.003055	0.0	0.0
