12
Coordinates from ORCA-job run
  C   0.41970555345858      0.57662662407968     -0.22058536421143
  C   -0.36413912947763     -0.62574977815539      0.26623954192161
  Br  -0.79753250570513      2.10293866541656     -0.44798651304524
  H   -0.82241988220702     -0.36166950009209      1.22865391244487
  H   0.78027676426124      0.38484887972665     -1.23641405646687
  H   0.36516137230609     -1.42391005167827      0.45273572535003
  N   1.41876664024042      0.95151914170943      0.75172266433368
  H   2.05678023127146      0.17381351079456      0.88406155051255
  H   1.95311541405635      1.74652004640003      0.42365887922147
  N   -1.28321243817967     -1.09440511475276     -0.76239489748930
  H   -2.05267456301675     -0.44148150358077     -0.84744818642371
  H   -1.67282745700795     -1.98805091986764     -0.49124325614766
