12
Coordinates from ORCA-job run
  C   0.68320828363540      0.25939325443637     -0.40153530416068
  C   -0.75793559169805     -0.20781132503315     -0.46477202992133
  Br  0.91292148572647      1.71691946720120     -1.78258923721272
  H   -1.01115176641144     -0.44771424759674     -1.49851571883020
  H   1.34996272479865     -0.52982977024116     -0.74399405470920
  H   -1.40646975469776      0.62642381052926     -0.15061390108425
  N   1.03128651211541      0.66096162301531      0.90945153857169
  H   2.01986805344182      0.84881679178107      1.00592001709688
  H   0.50981223962242      1.48063960963595      1.19546454429392
  N   -0.86404406196780     -1.41696537287860      0.34166600319647
  H   -0.66650698335563     -1.19267010282271      1.30803739154625
  H   -1.79995114120948     -1.79716373802680      0.28248075121318
