12
Coordinates from ORCA-job run
  C   0.59275580701743      0.45548427706976     -0.45465850991459
  C   -0.36784752061520     -0.71855890971850     -0.50629321263082
  Br  -0.21001716022387      2.06273384300341     -1.21343005538341
  H   -0.63346905128998     -0.91476970588054     -1.54832213175271
  H   1.44865466226077      0.25291975970756     -1.10887205025316
  H   0.21329584376006     -1.59015194876370     -0.14889562656077
  N   0.94570570289115      0.73244448843524      0.92807288956446
  H   1.48232320240046      1.58845412913654      0.99243609045992
  H   1.52566332523993     -0.02741680416744      1.27107922555385
  N   -1.56776612059080     -0.44061165870860      0.25923515593924
  H   -1.29853318676275     -0.12393408919008      1.18202790711834
  H   -2.13076550408720     -1.27559338092364      0.34962031785966
