12
Coordinates from ORCA-job run
  C   0.48953015277576      0.50388975011339     -0.25475124752106
  C   -0.44220792541513     -0.54838618987123      0.31219371322043
  Br  -0.56274320819516      2.05082857831509     -0.86057062055942
  H   0.19164995245833     -1.35365734280532      0.70413732592959
  H   0.94093607906294      0.12715192928767     -1.17830122430672
  H   -0.97687481162868     -0.10182858787364      1.16120549746345
  N   1.40412078956033      0.96490402211833      0.76161631526133
  H   1.94691805398879      0.17732266509877      1.09956199975976
  H   2.04366400333163      1.65119808012333      0.38087338701895
  N   -1.28176517049361     -1.11425713116016     -0.73516123709631
  H   -1.97803081934216     -0.43296633368514     -1.01204342240605
  H   -1.77419709610303     -1.92319943966109     -0.37876048676396
