12
Coordinates from ORCA-job run
  C   0.61189635754563      0.33562267933696     -0.28632648916966
  C   -0.44143594057428     -0.57556766198329      0.30931658188671
  Br  -0.35265246128449      1.99450960517369     -0.98272351793640
  H   -0.90230427994431     -0.06353522332573      1.16905478938212
  H   1.01406910075604     -0.09822112124972     -1.19982299305104
  H   0.10298218425062     -1.44456463788163      0.69077385792841
  N   1.63664218027017      0.63625020077127      0.63116420848794
  H   1.28159603617721      1.09859670303806      1.45810347659980
  H   2.36712807985758      1.20206962840892      0.22185823621476
  N   -1.37760684484115     -1.02741590407524     -0.70778521524231
  H   -2.00217746689635     -0.27209611677367     -0.96066404038460
  H   -1.93913694531667     -1.78564815143962     -0.34294889471572
