12
Coordinates from ORCA-job run
  C   0.69372995418014      0.19133051359317     -0.25149044311766
  C   -0.64565286744549     -0.46716159188141     -0.56758558414643
  Br  1.40764513297510      0.97350731682056     -1.97778365895363
  H   -1.35259561608873      0.31348066787868     -0.86860887740422
  H   1.44685887685739     -0.55323778994997      0.00872606650776
  H   -0.52945100131324     -1.13643024951620     -1.42133946466658
  N   0.57178272711438      1.13654096602718      0.79326380661982
  H   -0.03616382549657      1.90231608229464      0.52944255309950
  H   1.46493032887773      1.50998081278300      1.08444453610784
  N   -1.20308551254990     -1.21073063288507      0.55066751622337
  H   -1.17964604400321     -0.62954567751904      1.37942846226170
  H   -0.63835215310761     -2.03005041764554      0.73883508746854
