12
Coordinates from ORCA-job run
  C   0.44298684053391      0.49085603444344     -0.17692651927914
  C   -0.50625838604935     -0.58209146595146      0.35064911533681
  Br  -0.59960835607875      2.01251518303316     -0.86459775652190
  H   -1.07361050667761     -0.14708956597615      1.17664989565189
  H   0.96251429103388      0.12665146244885     -1.07271589951740
  H   0.11835191876911     -1.38172234257083      0.77029623425824
  N   1.29181400906013      0.96803114201585      0.88105671136504
  H   1.72868507986600      0.18337237030061      1.35080299602543
  H   2.01382368262348      1.58204543183988      0.52697991776136
  N   -1.42351220764238     -1.18267630008918     -0.59673291972493
  H   -2.03990977651886     -0.47428659142529     -0.97425043160618
  H   -0.91727658891955     -1.59560535806888     -1.37021134374923
