12
Coordinates from ORCA-job run
  C   0.71454065755051      0.20437928801629     -0.34627052121557
  C   -0.58038275801903     -0.55467425107703     -0.61749965077137
  Br  1.42253822777914      0.87311182917618     -2.04039781516165
  H   -1.26569010761864      0.12388578706623     -1.12971962314589
  H   1.49115967575265     -0.48483925279469      0.01292387517248
  H   -0.36993629984266     -1.39051416616252     -1.28979843513825
  N   0.46764959374627      1.33734938217397      0.52459726009420
  H   1.29103866548510      1.92468241077494      0.57619131413467
  H   0.28504387320821      0.98980205931180      1.45953974210812
  N   -1.24132607003503     -1.06219426318978      0.57457169858509
  H   -0.63115182019948     -1.65429788945001      1.12306288811003
  H   -1.58548363780703     -0.30669093384539      1.15079926722814
