12
Coordinates from ORCA-job run
  C   0.70794833470540      0.31150566100928     -0.40539299170735
  C   -0.59427332726882     -0.47553828852808     -0.57569100431259
  Br  1.12713318361010      1.13276865307752     -2.16142599863096
  H   -1.39168172381017      0.22906452575685     -0.83356433427452
  H   1.54036805560843     -0.37043563669538     -0.21789876327280
  H   -0.49792168283770     -1.16940164059464     -1.41362815615029
  N   0.70733888652447      1.31833951398318      0.60685973353129
  H   -0.16263860729358      1.83158950525454      0.64707058767364
  H   0.96393729386907      0.95994763667028      1.51417456727603
  N   -0.99581851359816     -1.22454365657095      0.60476297926872
  H   -0.30925384560789     -1.93269288625606      0.83315492143853
  H   -1.09513805390113     -0.61060338710654      1.40257845916030
