15
Coordinates from ORCA-job run
  C   -0.78187104040089     -0.77078772341917      0.06844927179067
  C   0.33218084882634      0.20505590601331     -0.30231166580889
  Br  -0.74779295164983     -1.30014566739724      1.91941298249083
  H   0.18161550759068      0.38448383094817     -1.37209836885081
  H   -0.73671650454216     -1.67907695733196     -0.53184616730340
  N   -2.10193892908746     -0.11661255557721     -0.29303688641664
  O   -2.87977116484777      0.23837405126529      0.57458015020976
  O   -2.24461657644008      0.01639324463873     -1.50600031785283
  C   1.71568603338047     -0.40540068816295     -0.09588661083917
  H   1.81670097357777     -1.36850793482206     -0.60504836515250
  H   2.47248553019367      0.27194247829164     -0.49897960603792
  H   1.92200213042739     -0.55469078648812      0.96555325090875
  N   0.08158145989800      1.46576730106029      0.37663974302533
  H   0.61955394587554      2.20720668073220     -0.05293638770233
  H   0.35190073719835      1.40499882024908      1.35150897753917
