15
Coordinates from ORCA-job run
  C   -1.02747112818020      0.05245553423933     -0.22588733149628
  C   0.49386962962306      0.04180701585567     -0.43459439828938
  Br  -2.00071402231833      0.07376686529076     -1.89476092761232
  H   0.72036894099527     -0.82674196192079     -1.06018987692142
  H   -1.35706931196872      0.91208906885102      0.35666139069115
  N   -1.43119939508028     -1.15963168265478      0.56072908400388
  O   -1.88480675846590     -0.94959103876581      1.68413556085249
  O   -1.20738921892226     -2.25491878188674      0.05821637234765
  C   1.19487869999465     -0.10518467319714      0.91144039348014
  H   0.96807705131503     -1.05656239735354      1.39406499295707
  H   2.27066853833743     -0.04809264088060      0.74414817889485
  H   0.90912631144332      0.70194571338667      1.59352305031098
  N   0.99119219496322      1.22546166033036     -1.10792146456187
  H   0.56274486015848      1.33643910293586     -2.01832321458259
  H   0.79972360810522      2.05675821576973     -0.56024181007437
