15
Coordinates from ORCA-job run
  C   -0.75598901797482     -0.70576810125567      0.02028260078309
  C   0.42710442965768      0.24753748911048     -0.26409628633117
  Br  -0.96873581323546     -1.12173505288333      1.88748441489856
  H   0.33711667926661      0.46707647353866     -1.33685952722253
  H   -0.65696963696332     -1.64500967188504     -0.52079271806866
  N   -2.00547863616442     -0.07105349320456     -0.52462312440592
  O   -2.54472784785722      0.81903071574720      0.12371050705508
  O   -2.32612319323106     -0.44588443902520     -1.65102296425203
  C   1.74630513063635     -0.47255391828531     -0.02784786943202
  H   1.87907730168705     -0.70197985570611      1.03199842649566
  H   2.56196183961708      0.17947923649359     -0.34158674024640
  H   1.80172268769184     -1.40647969255145     -0.59166195620238
  N   0.41991791817425      1.50617925606122      0.44444276923616
  H   0.53590028192637      1.34764251682322      1.43837927005361
  H   -0.45208212323095      2.00351853702230      0.31119319763897
