15
Coordinates from ORCA-job run
  C   -0.78243592665669     -0.67672620959396      0.14729312626508
  C   0.39949329313428      0.21531747974471     -0.21552975741601
  Br  -1.11554283508370     -0.82226606259119      2.04188353812915
  H   0.31778669221208      0.32690689045974     -1.31300168124650
  H   -0.63841353486297     -1.68753244867918     -0.23069525637226
  N   -2.05392023071302     -0.20884179416837     -0.51232862106880
  O   -2.75384635708520     -1.07714165567727     -1.02419864145565
  O   -2.29512635670716      0.99550315900798     -0.50053463574688
  C   1.70034033554951     -0.51310488487950      0.09467351851676
  H   1.79356514754871     -0.66749812385429      1.17048065312697
  H   2.54940002435342      0.08939363548141     -0.23812151260365
  H   1.75429927486654     -1.47654482239477     -0.41764177812971
  N   0.37708283750540      1.47677022657968      0.49853381178772
  H   1.19548615609100      2.01728669156323      0.24782871632859
  H   -0.44816852015219      2.00747791900177      0.25235851988521
