13

C	-0.456668	-0.071944	-1.418177
C	0.0	0.0	0.0
F	-1.834123	-0.13443	-1.551976
H	1.103349	0.0	0.0
H	-0.087391	0.777089	-1.995358
H	-0.327135	0.986389	0.355866
N	0.058875	-1.282908	-2.152429
O	0.869128	-1.089041	-3.055186
O	-0.380809	-2.381237	-1.810401
N	-0.519341	-1.054929	0.884632
H	0.287842	-1.369954	1.417541
H	-0.802887	-1.849749	0.326568
H	2.899028	0.0	0.0
