13

C	-0.515541	0.065655	-1.399408
C	0.0	0.0	0.0
F	-1.899486	0.015159	-1.451293
H	1.098327	0.0	0.0
H	-0.18191	0.952832	-1.931282
H	-0.350316	-0.93094	0.459813
N	-0.056027	-1.113219	-2.212987
O	-0.316363	-2.229617	-1.771879
O	0.51354	-0.880473	-3.276758
N	-0.431595	1.218625	0.693802
H	-1.186844	1.018805	1.332478
H	0.361463	1.541068	1.234061
H	2.914401	0.0	0.0
