13
Coordinates from ORCA-job run
  C   -0.48973677373378      0.39822921451589      0.12020990363364
  C   0.75309448587671     -0.39531971310506     -0.21931075923711
  Br  -0.13338396037589      1.49665676101867      1.69586231765120
  H   1.09953306522062     -1.00404387806866      0.61414685388585
  H   -0.69253152341491      1.10669138424051     -0.68266281980337
  H   0.56233925037275     -1.02029486384009     -1.09677171845185
  C   -1.67628155599009     -0.51274866470481      0.37502630755672
  H   -1.89603272457207     -1.09422186741107     -0.52570935238925
  H   -1.47182413227780     -1.20149774796020      1.19707691693311
  H   -2.56078629065046      0.07083383491339      0.63102635692717
  N   1.88711248541075      0.50004724674220     -0.60027178818856
  O   2.97009071325415      0.30338593589842     -0.05802727279358
  O   1.64840696088003      1.35328235776081     -1.45059494572396
