13
Coordinates from ORCA-job run
  C   -0.40348411719957      0.36350080918262      0.34356757463084
  C   0.65755988307424     -0.35257996869321     -0.46325045734471
  Br  0.22044770007739      0.55954401117870      2.18460922689736
  H   0.31564593524642     -0.47478524034608     -1.49526597469028
  H   -0.51265507579540      1.38099175847916     -0.03118216514306
  H   0.92776528701671     -1.31619109205130     -0.03465012186234
  C   -1.72179831937852     -0.38739679570332      0.31546832342173
  H   -2.47294088146968      0.13232301129613      0.91055207082606
  H   -1.60638220026126     -1.39632768569197      0.71631073842327
  H   -2.08582751823636     -0.45675081101233     -0.71431244357775
  N   1.91533767732354      0.44960125459254     -0.54728548520968
  O   1.79491164093283      1.62091252791750     -0.89608098912216
  O   2.96941998866967     -0.12184177914844     -0.28648029724928
