13
Coordinates from ORCA-job run
  C   -0.62699010188856      0.58722310055381     -0.03764090626489
  C   0.88551770412209      0.61892672510467     -0.18528010730116
  Br  -1.14014560883995      2.25400859630772      0.84173310484142
  H   1.20681416932075      1.45427910655475     -0.80758789917289
  H   -1.08606675841284      0.62465157120483     -1.02547692982068
  H   1.38960572989790      0.63601940965582      0.77949838760996
  C   -1.12182175366404     -0.60621171199857      0.75523282768812
  H   -0.87958267814624     -1.53153545685829      0.22497253673351
  H   -0.65857271032317     -0.63710851060830      1.74351002392609
  H   -2.20404619239742     -0.56207855240314      0.88028230267073
  N   1.31590352887169     -0.63108741046521     -0.88195574449511
  O   0.88114022432541     -0.79549982273946     -2.02031350513646
  O   2.03824444713438     -1.41158704430863     -0.26697409127866
