13
Coordinates from ORCA-job run
  C   -0.56115257403275      0.62946335156214      0.23054106850448
  C   0.71949535699894      0.59462755917251     -0.59121953320365
  Br  -0.14532163058972      1.09032030996912      2.08446127991901
  H   0.47337762433700      0.37059785238573     -1.63186908961142
  H   -1.13581304968732      1.48127596852883     -0.14137318750104
  H   1.26511219942199      1.53291914478939     -0.51480983402389
  C   -1.40698334599941     -0.62986294047347      0.18186902689448
  H   -2.35075551292767     -0.46090805799487      0.70160580961103
  H   -0.89765663457718     -1.47274695473180      0.64542937687655
  H   -1.62016720407683     -0.89078520747977     -0.85883208597935
  N   1.65580648321427     -0.47718381776097     -0.14639885339079
  O   1.33565929947809     -1.63464267655329     -0.41475664694846
  O   2.66839898844058     -0.13207453141354      0.45635266885305
