19

C	0.0	0.0	0.0
C	-0.461304	-0.038118	-1.469849
Cl	1.811755	0.0	0.0
H	-1.556981	-0.078794	-1.348966
N	-0.440011	1.16252	0.739243
H	-1.470384	1.109001	0.666733
H	-0.122254	2.014347	0.283978
N	-0.48786	-1.188719	0.64548
H	-0.316892	-1.054863	1.639097
H	-1.512403	-1.108374	0.5226
C	0.010688	-1.284757	-2.21126
H	-0.165189	-2.175577	-1.607458
H	-0.53695	-1.383468	-3.156033
H	1.079348	-1.228833	-2.441414
C	-0.116677	1.220728	-2.256807
H	-0.49114	1.123881	-3.281708
H	-0.587218	2.109421	-1.827546
H	0.965266	1.38244	-2.306011
H	-3.0911	0.0	0.0
