19

C	0.0	0.0	0.0
C	-0.237744	-0.071817	-1.559752
Cl	1.872434	0.0	0.0
H	0.614662	-0.628703	-1.957354
N	-0.543958	1.188124	0.556774
H	-1.560132	1.107063	0.358393
H	-0.452827	1.106466	1.566696
N	-0.412413	-1.156049	0.750017
H	-0.128374	-2.004739	0.270291
H	-1.440559	-1.104956	0.742454
C	-0.192822	1.323014	-2.179404
H	-1.085255	1.8912	-1.911679
H	0.680703	1.881431	-1.838253
H	-0.151649	1.238502	-3.27155
C	-1.484453	-0.830583	-2.008546
H	-1.568115	-0.749167	-3.09944
H	-2.386225	-0.448981	-1.518985
H	-1.409723	-1.895152	-1.761872
H	-3.281683	0.0	0.0
