19

C	0.0	0.0	0.0
C	-0.259628	0.006974	-1.561743
Cl	1.819358	0.0	0.0
H	0.585259	-0.538684	-1.992283
N	-0.544279	1.163808	0.621969
H	-1.56184	1.087554	0.440732
H	-0.432667	1.030766	1.62424
N	-0.433371	-1.190859	0.691939
H	-1.46043	-1.131056	0.676457
H	-0.154086	-2.017068	0.171698
C	-0.206645	1.429594	-2.114045
H	0.667884	1.969206	-1.746155
H	-0.164611	1.397417	-3.209067
H	-1.097559	1.987219	-1.82049
C	-1.513734	-0.717995	-2.043506
H	-1.585598	-0.600028	-3.132361
H	-1.456444	-1.79098	-1.831364
H	-2.414694	-0.342927	-1.547886
H	-3.318087	0.0	0.0
