14
Coordinates from ORCA-job run
  C   -0.72934200292861      0.14286896649744      0.78496620623576
  C   0.68597625547649      0.19099951180846      0.23497448669140
  Cl  -1.15029107020943      1.87943685838769      1.20840747165576
  H   1.38757728691741      0.58578904372483      0.96672980103743
  H   -0.66971272369526     -0.35870494236481      1.74997376388787
  N   -1.62065389003434     -0.54304759711127     -0.05446133501511
  H   -2.49819330054782     -0.74460616283638      0.40235186333434
  H   -1.76603388784108     -0.07439104955122     -0.93732379383865
  N   0.85423222627980      1.00889880553712     -1.00355367536757
  O   -0.09001293602861      1.07693373074035     -1.78373480036902
  O   1.95994878620468      1.52071275108062     -1.14621156151268
  N   1.11598833559753     -1.22037872237822     -0.08041897664549
  O   1.29928907255639     -1.52820076776217     -1.24831467617473
  O   1.22022784825286     -1.93531042577244      0.90761522608070
