14
Coordinates from ORCA-job run
  C   -0.87099255037885     -0.07118457598563      0.46196481250411
  C   0.59261232005629      0.04784637424691      0.09592011688912
  Cl  -0.91152520981204     -0.29005825781910      2.27275890009193
  H   1.10730153835031      0.85637093540261      0.60996252675290
  H   -1.26552446091462     -0.99489929726878      0.04355513315364
  N   -1.57359330548481      1.04812906131271     -0.03294062542785
  H   -1.31928066407551      1.90879704590482      0.43483230269111
  H   -2.57437785675975      0.91872666208033      0.01417057490318
  N   0.70198701093647      0.30494044897275     -1.38066500349941
  O   0.30429815566987     -0.58828883854788     -2.11818958687322
  O   1.15240033734828      1.39718397515906     -1.70474507509134
  N   1.35688882063934     -1.21108601633954      0.37770387936122
  O   0.76013771453867     -2.27480528295973      0.26141377516754
  O   2.54066814988634     -1.05267223415853      0.66525826937704
