14
Coordinates from ORCA-job run
  C   -0.70925215087949      0.08254999556750      0.82238256155784
  C   0.29495296574286     -0.41926005614316     -0.22389367163639
  Cl  0.04876590661125      1.33717357008064      1.83717584869775
  H   -0.08455572118325     -1.33062632281996     -0.68800196470976
  H   -0.88284277806128     -0.77185961158777      1.47953116500390
  N   -1.95856655275187      0.53295943604186      0.30513137938795
  H   -2.53671881089180     -0.22665299688632     -0.02528372960891
  H   -1.85114546457119      1.25719227360331     -0.39001538491300
  N   1.59781978594177     -0.79669871894129      0.42341063687681
  O   2.58727966933865     -0.11804124106062      0.19303395443179
  O   1.50867496907376     -1.76095938923970      1.17518145433758
  N   0.58597738013714      0.51851383723960     -1.35249151083534
  O   1.15119345928911      0.00147590622957     -2.31060655413049
  O   0.24841734220434      1.69323331791635     -1.24555418445974
