14
Coordinates from ORCA-job run
  C   -0.72929712251061      0.24350606358093      0.84296245897593
  C   0.67437194999301      0.20177358567475      0.22552436730025
  Cl  -1.00968846158742      1.97887768081487      1.24532703055695
  H   1.43872996655885      0.52590045385201      0.93018689859377
  H   -0.65096139175549     -0.27318108563170      1.79869261267645
  N   -1.79015902079056     -0.31490388855405      0.10037898120671
  H   -1.76730409623786     -0.09369630901350     -0.88265829368186
  H   -1.93936831064171     -1.29380840912880      0.28699779138214
  N   0.82664251952507      1.04439241454759     -0.99525720504294
  O   1.88214451296706      1.66143120297090     -1.09583205415810
  O   -0.09897013326409      1.03921459558972     -1.80118111808214
  N   0.98568811582097     -1.22429571173056     -0.14447832028911
  O   0.91503126693890     -2.00733825947510      0.79655463742875
  O   1.26314020498388     -1.48787233349707     -1.30621778686680
