14
Coordinates from ORCA-job run
  C   -0.89596425136876     -0.13848105985935      0.39473128333467
  C   0.57539185622918      0.10804188630959      0.14011554419569
  Cl  -1.06481402561757     -0.29458646049799      2.20453096824128
  H   0.96809086240801      0.98035130811143      0.65750602232530
  H   -1.16687761083525     -1.11044420227533     -0.01253286222591
  N   -1.65666840607933      0.88898377048894     -0.20280650594704
  H   -2.64170900744573      0.66616798077822     -0.22720697870795
  H   -1.52192949319721      1.78717463561658      0.24366526597667
  N   0.78200369037455      0.32204322444956     -1.33280072740538
  O   0.53438636520105     -0.63116300848102     -2.06063485442470
  O   1.15225030563512      1.44122121654721     -1.66661202403335
  N   1.42775774220298     -1.06045988541472      0.53546172312807
  O   2.56412187415906     -0.77875925589331      0.90738381724833
  O   0.94396009833388     -2.18009014987980      0.41919932829429
