14
Coordinates from ORCA-job run
  C   -0.73585404790473      0.05583027487785      0.69220967354362
  C   0.39278832386882     -0.40736512651936     -0.22420286009970
  Cl  -0.22523731829752      1.37089854005038      1.76701589999612
  H   0.09135806725050     -1.31985237756112     -0.74198896439504
  H   -0.96489448874264     -0.78401749484607      1.35472131329029
  N   -1.81097450538731      0.51970786600612     -0.15115047988873
  H   -2.52497734958373      0.96667870167535      0.40961293733369
  H   -2.23047341595017     -0.25842448409248     -0.64890270520466
  N   1.62886522982931     -0.77032206913212      0.54946244826430
  O   1.41613203673859     -1.50583871970894      1.50683085472496
  O   2.71135261665972     -0.37279880645139      0.14650475169022
  N   0.69018341134148      0.59473790348680     -1.28848482271336
  O   0.40363780863479      0.24149054348920     -2.43024769810576
  O   1.15709363154291      1.66927524872580     -0.94038034843596
