14
Coordinates from ORCA-job run
  C   -0.89104036707099     -0.04353367872657      0.42627558197965
  C   0.58891915739904      0.03806389217291      0.12013640789877
  Cl  -1.01265033231916     -0.22108077288479      2.23737034669088
  H   1.09811780911316      0.84721185646406      0.63861925542259
  H   -1.28695392303331     -0.96796216073536      0.01078152206175
  N   -1.54810900851577      1.07887374116392     -0.12222083571085
  H   -1.29749385140282      1.94356972385509      0.34019401572271
  H   -2.55244856881006      0.96978286436391     -0.11584683755733
  N   0.76516783012062      0.26083851528351     -1.35524547236385
  O   1.25233505594906      1.33609786289272     -1.68312345511860
  O   0.38033665906601     -0.64033680506350     -2.08987210320369
  N   1.31433285754786     -1.22951666886422      0.45968298590244
  O   2.48960146082230     -1.08887150587737      0.78843552830144
  O   0.69988522113408     -2.28313686404432      0.34381305997406
