14
Coordinates from ORCA-job run
  C   -0.86904564038794     -0.24177630542231      0.48857299507236
  C   0.39794920836864     -0.34714922150958     -0.34522752693350
  Cl  -0.50761699183546      0.51626201875781      2.09826599523841
  H   0.22232641197024     -1.02240111914399     -1.18206667653765
  H   -1.14886642421050     -1.26803411975173      0.72762566147830
  N   -1.89196129669145      0.37142133611090     -0.27548168811763
  H   -1.73953097789878      1.36851619652113     -0.35624913288439
  H   -2.80183670135776      0.20065450000755      0.12995164858650
  N   1.51506166058822     -0.94662511837725      0.46378478570478
  O   1.30852505259144     -2.10679927574753      0.79903529845135
  O   2.48293184816042     -0.25198418603755      0.73410934255971
  N   0.88361733555239      0.93508967214252     -0.94092702872308
  O   0.44624772368916      1.99246991712903     -0.49775417160538
  O   1.70219879146138      0.80035570532097     -1.84363950228978
