14
Coordinates from ORCA-job run
  C   -0.89934952739807     -0.23303892883058      0.53233951270688
  C   0.51992546273843      0.16391899586602      0.14813995722574
  Cl  -0.87794262028546     -0.39465442339093      2.31533451301711
  H   0.85610810737241      1.08543917506036      0.61889981905662
  H   -1.10705221378894     -1.21720378297766      0.11657500263504
  N   -1.90766981935773      0.68415250209683      0.12535644951383
  H   -2.14611979425997      0.57316957843539     -0.84959294676848
  H   -1.69732724255483      1.64652634926025      0.35171388895779
  N   0.63063540537771      0.35078955110688     -1.33777224714457
  O   1.42903622575329      1.20437932358862     -1.71508412421588
  O   -0.06399542897317     -0.37256457696977     -2.04661487277363
  N   1.51511797620378     -0.90416602243113      0.49765856417160
  O   1.24170474900755     -2.03839035746829      0.11735536615641
  O   2.50592872016498     -0.54735738334601      1.12569111746152
