14
Coordinates from ORCA-job run
  C   -0.72493401383278      0.19479316000393      0.87848819577400
  C   0.67639469952133      0.13177447603801      0.23136564377835
  Cl  -0.82333992581092      1.72508185795593      1.79130906125983
  H   1.44925561816964      0.57222950614769      0.86027934309218
  H   -0.73451374380355     -0.60258944636214      1.62611900719161
  N   -1.87031985284237      0.04645275115469      0.04368062234361
  H   -1.86756078646077     -0.86363917883888     -0.39873603720740
  H   -1.91447742571219      0.77896332852057     -0.65201683502138
  N   0.76332379511202      0.81439453819568     -1.10790947941773
  O   0.06919509832265      1.81275318213810     -1.25514790985496
  O   1.55300350126961      0.34144794479814     -1.91547292365811
  N   1.05688477483734     -1.29666134408991      0.01072325513027
  O   0.24923125566042     -1.98332022717673     -0.61057557920740
  O   2.11885700556958     -1.67068054848507      0.49689363579716
