14
Coordinates from ORCA-job run
  C   -0.86454074229358     -0.24268856009704      0.41457664551716
  C   0.56775937787584      0.15350154478336      0.12825781894594
  Cl  -0.95220931844815     -0.51311454169383      2.21635672690760
  H   0.89810133326144      1.02884910448642      0.68283729890882
  H   -1.06079389364223     -1.21140288742607     -0.04036568720667
  N   -1.73686634159041      0.74170658099356     -0.09746225380566
  H   -1.67165596198876      1.62026011426717      0.40068622211300
  H   -2.69718970481409      0.42827873871529     -0.10824860913348
  N   0.69902358462363      0.46561841624289     -1.33557461228226
  O   0.50739968193609     -0.46575862156938     -2.10761336816955
  O   0.95793250037249      1.62923830898420     -1.61776600627346
  N   1.53816875515419     -0.94999213069827      0.42694742476643
  O   2.65927589461697     -0.58325270676029      0.77000025996494
  O   1.15359483493655     -2.10224336022798      0.26736813974714
