14
Coordinates from ORCA-job run
  C   -0.70820587119407      0.14157870799473      0.80436157540780
  C   0.68977065528383      0.20107203217322      0.21309760653536
  Cl  -1.13615881494794      1.87756994249296      1.22461413044855
  H   1.40701663772019      0.61273071564597      0.91997964320083
  H   -0.61429435695340     -0.35059663683785      1.77151992546567
  N   -1.61568330612142     -0.56173685637281     -0.00239907722823
  H   -1.79283050395965     -0.10238234674741     -0.88436143149919
  H   -2.47701768084960     -0.76920386148623      0.48184686801730
  N   0.81259597443409      1.00780672489642     -1.03814151697616
  O   -0.15522362881700      1.05974387160856     -1.79008876926218
  O   1.90870510510889      1.52812826498039     -1.21907192645362
  N   1.12863858089383     -1.20812569924255     -0.10062215717202
  O   1.28287419134831     -1.52464698761703     -1.27037529623136
  O   1.26981301805394     -1.91193787148838      0.89064042574724
