14
Coordinates from ORCA-job run
  C   -0.85724544103318     -0.20809293891417      0.43904139048764
  C   0.57696634791764      0.17770308545801      0.13610084833070
  Cl  -0.94850267341806     -0.51435639694401      2.19426985597417
  H   0.88653414529838      1.07626730146348      0.66328745687938
  H   -1.08431697685401     -1.14857653302675     -0.06248834097594
  N   -1.69649745421916      0.89386358350849      0.03317408253195
  H   -2.27119659304536      0.62621893391750     -0.75388936919451
  H   -2.28761797043170      1.20811321863588      0.78912448616839
  N   0.74042417172446      0.43098282403608     -1.33502766305101
  O   1.69236407359030      1.13857487612081     -1.64713308006729
  O   -0.05548298221273     -0.11103160685114     -2.09544923551853
  N   1.53865917450876     -0.92000732037068      0.46659802064498
  O   1.29758640520679     -2.01125641431062     -0.04367723848601
  O   2.46832577296784     -0.63940261272288      1.21506878627606
