14
Coordinates from ORCA-job run
  C   -0.88901520677990     -0.24804310889646      0.35343147640966
  C   0.56208312900739      0.13932427601213      0.16648406767508
  Cl  -1.08139537535824     -0.60024431966677      2.13308080815425
  H   0.87168949279925      0.98343613235614      0.77840821663674
  H   -1.07068484062258     -1.19203607289882     -0.15636239666397
  N   -1.71921563276223      0.77098905180987     -0.16003229797157
  H   -2.68124044336823      0.47280164436721     -0.23846183813832
  H   -1.67096816274388      1.62556104400590      0.37999467586727
  N   0.77933308479761      0.51595226543455     -1.27162499497851
  O   1.06635926578021      1.68797845305502     -1.48383433302509
  O   0.62141919400693     -0.37570214010328     -2.09624023732111
  N   1.49923283923648     -0.99153792916954      0.46849830745626
  O   2.60058185555749     -0.65873600241506      0.89917915507812
  O   1.11182080044971     -2.12874329389091      0.22847939082121
