14
Coordinates from ORCA-job run
  C   -0.69250362680171      0.14377764403399      0.81252409599072
  C   0.26155641496753     -0.36220837282356     -0.28252856360864
  Cl  0.09179628721149      1.48096389269636      1.69326154740173
  H   -0.28248429026936     -0.97710301856711     -1.00012285796514
  H   -0.80735321364028     -0.67205896741338      1.52745139989708
  N   -1.97902714872607      0.55379074059631      0.34832575413185
  H   -1.91031295428904      1.17886907447443     -0.44401323428500
  H   -2.56314894185156     -0.24049459189593      0.12314107790893
  N   1.38986091426787     -1.21587508319386      0.21526095895387
  O   2.02921238906576     -1.77918115717272     -0.66683785917510
  O   1.56604206275568     -1.30253550117784      1.42534372876948
  N   0.84480004727183      0.77666941673355     -1.06669063790478
  O   0.02727668672236      1.36338728084825     -1.77071414682197
  O   2.02428537331551      1.05299864286147     -0.91640126329305
