14
Coordinates from ORCA-job run
  C   -0.73618713070884      0.14733153524718      0.77738193716196
  C   0.68352022205121      0.19538314604878      0.23894282269023
  Cl  -1.16662765517903      1.88597777557812      1.18110463634698
  H   1.37729496406954      0.59949234825058      0.97307764836758
  H   -0.68272506364440     -0.34553111098075      1.74729716928765
  N   -1.61786537325400     -0.54980334445534     -0.06294029395742
  H   -2.49845729451712     -0.75033249944539      0.38841755756960
  H   -1.75765377436901     -0.09034460759937     -0.95154518190879
  N   0.85873606857043      1.00291523337430     -1.00549189043637
  O   -0.07860647702649      1.05726790310146     -1.79498241934252
  O   1.96229356220849      1.52070669058886     -1.14246417539652
  N   1.12136945176035     -1.21702802911537     -0.05979027167773
  O   1.31308556399798     -1.53513302329279     -1.22364608377990
  O   1.22282293604090     -1.92190201730027      0.93563854507522
