14
Coordinates from ORCA-job run
  C   -0.82513781756566     -0.11748376510647      0.57305746280162
  C   0.42845616038315     -0.34016493751936     -0.26755230506939
  Cl  -0.49678840307164      0.86036185085386      2.01537775702670
  H   0.22042384887696     -1.07824852758208     -1.04448646765943
  H   -1.12513255929562     -1.09840997689540      0.95313155326425
  N   -1.78417437287846      0.56750035436253     -0.26055379199249
  H   -2.56794951422745      0.88195519076254      0.29692089399941
  H   -2.13079437628991     -0.05463114472627     -0.98303896243222
  N   1.55453877939674     -0.91372331544849      0.54528856768341
  O   2.67370145050089     -0.44303706918729      0.41070114505713
  O   1.22847824097127     -1.87015868341001      1.23928795735061
  N   0.84979929454376      0.90155326396914     -0.97879259084517
  O   0.73989733641879      0.86359462542649     -2.20217835623955
  O   1.23468193223721      1.84089213450081     -0.29816286294489
