14
Coordinates from ORCA-job run
  C   -0.58951988284877      0.28851724969030      0.87470371617065
  C   0.73539600733023      0.14979740058880      0.12879657241477
  Cl  -0.67335091268882      1.92001755864460      1.58681475966498
  H   1.56102080676460      0.63036289923868      0.64929959761777
  H   -0.54447270899405     -0.39698227180907      1.72885366574174
  N   -1.69666746773241      0.10927217208629     -0.02206907952361
  H   -2.56580897146456      0.30959798972064      0.45610759491084
  H   -1.71121632551952     -0.85151714701923     -0.34549749239162
  N   0.64384592044223      0.76273659025734     -1.24132104565770
  O   0.37355168823123      0.01482714915688     -2.17102079823153
  O   0.82123163217122      1.97178604049203     -1.27988783185920
  N   1.11582465950801     -1.28702966141845     -0.06687302025106
  O   2.29624037198134     -1.48558210701750     -0.33051768811080
  O   0.23292518281930     -2.13580386261131      0.03061104950475
