14
Coordinates from ORCA-job run
  C   -0.77570541562950     -0.02125894993877      0.73791149667317
  C   0.54857921348410      0.13460003614139      0.00193345750529
  Cl  -0.38010360384772      0.19115099972534      2.47096594253721
  H   1.03277820175881      1.09295113513180      0.17777973314456
  H   -1.12684334893308     -1.04279845639566      0.60479994541178
  N   -1.79116266498559      0.89266132163524      0.34144628635324
  H   -1.48041810437724      1.85366307725542      0.30237361476913
  H   -2.23872301959926      0.60913537132554     -0.51818957903792
  N   0.34688509523011     -0.00331425999923     -1.47975306465357
  O   -0.52487734969863     -0.78225774598688     -1.85595221491879
  O   1.09266296380141      0.66624646855997     -2.18958626044793
  N   1.52983874492191     -0.93678318417967      0.37894123567434
  O   2.65389147656804     -0.56439195207921      0.69748536516091
  O   1.11219781130662     -2.08960386119529      0.32984404182859
