14
Coordinates from ORCA-job run
  C   -0.88661448832328     -0.08261221832826      0.59498478193960
  C   0.54932397907884      0.07112360572552      0.11051980102447
  Cl  -0.76812867641169     -0.26294814420308      2.37188456458155
  H   1.06999798425632      0.91630172022117      0.55593949267502
  H   -1.28715792919931     -1.01297655179825      0.19668827714712
  N   -1.75072442886052      0.99660018201789      0.25907673144495
  H   -2.06687551585398      0.94107243034978     -0.69841860539989
  H   -1.36541177395832      1.90628029048746      0.47306924586671
  N   0.58620947856159      0.25311484884597     -1.37950851558815
  O   -0.27028217110228     -0.33260820345082     -2.03652213035007
  O   1.49040022709451      0.96197084990556     -1.81350385340863
  N   1.36944140562233     -1.15480808154570      0.38990212823079
  O   2.44912552583184     -0.97861872012671      0.94377790813925
  O   0.87969638326397     -2.22189200810053      0.03311017369727
