14
Coordinates from ORCA-job run
  C   -0.78656562919903      0.02870541467285      0.73524217785045
  C   0.35863289850426     -0.30951634607798     -0.23392260924235
  Cl  -0.39014616412725      1.53834257102414      1.59766956678740
  H   0.02983968721235     -1.05608685659038     -0.95747007072667
  H   -0.80255670853896     -0.76165542605547      1.48686200709329
  N   -2.07520772574455      0.13540939909539      0.13009788937644
  H   -2.46047249738224     -0.77391347926852     -0.08732412770626
  H   -2.05601904310693      0.71978874230768     -0.69523964255954
  N   1.58229281220584     -0.88209280203819      0.41746717513155
  O   1.64773081199365     -0.87807250018400      1.64162142841658
  O   2.41124525221705     -1.33383605456921     -0.36543530787182
  N   0.77044260840572      0.89260679313841     -1.03230850823227
  O   1.84510105995930      1.41961063169416     -0.79255246939582
  O   -0.07431736239923      1.26170991285120     -1.84370750892093
