14
Coordinates from ORCA-job run
  C   -0.72445569424259      0.14009948529181      0.78969468072151
  C   0.68450764275071      0.20876832526861      0.22528534739342
  Cl  -1.17847225449219      1.87489098448384      1.18598717336825
  H   1.38454214148413      0.62920949103485      0.94412202319908
  H   -0.64517015873215     -0.34237367572932      1.76298063486911
  N   -1.60852120721446     -0.57949680886214     -0.02872121356806
  H   -1.76989040031598     -0.13154654041427     -0.91950692266243
  H   -2.47836332450278     -0.78950376315776      0.43888027025834
  N   0.82293937243097      1.01203193175344     -1.02646200647060
  O   -0.12529394548180      1.03603696330154     -1.80440513672776
  O   1.91161459864654      1.55542204641039     -1.18267798319459
  N   1.14145383640208     -1.19794173292760     -0.07261298975193
  O   1.26278358902651     -1.89699262072035      0.92471563666452
  O   1.32132580424104     -1.51960408573307     -1.23727951409888
