14
Coordinates from ORCA-job run
  C   -0.83903594426850     -0.11953800657916      0.54695492002976
  C   0.44851857590119     -0.33779237608408     -0.24243678555910
  Cl  -0.58342205015894      0.90917822435065      1.96873552088860
  H   0.28704408240366     -1.10966831012385     -0.99684547738927
  H   -1.12741094397245     -1.09589981214271      0.94770532889635
  N   -1.78463666834098      0.51437448895408     -0.33950389147418
  H   -2.08025477138757     -0.13400170359088     -1.06161598183099
  H   -2.60066914886890      0.81492236250159      0.17790119113988
  N   1.55420019833514     -0.85193722234074      0.63528469866826
  O   1.23406809841142     -1.82659427278243      1.30663349239322
  O   2.65115537912221     -0.31813499742080      0.57921358682632
  N   0.86269437346614      0.88774940053851     -0.98493986314081
  O   1.16915385813165      1.87252105704850     -0.32943189104917
  O   0.80859496122594      0.79582116767130     -2.20965484839888
