14
Coordinates from ORCA-job run
  C   -0.85576678280419     -0.12948260312941      0.66322034799618
  C   0.35440605645913     -0.34886980147119     -0.25440362459809
  Cl  -0.37952517093426      0.85256748948046      2.07153907791236
  H   0.12444436727828     -1.12398982479629     -0.98677564261249
  H   -1.09769034558369     -1.11998301902523      1.05380685786728
  N   -2.01273705726219      0.41768976633644      0.03309465818378
  H   -2.45313537224550     -0.23928081479081     -0.59608528008132
  H   -1.81877276079791      1.29854429005338     -0.42150378162489
  N   1.53175925967434     -0.85911358077911      0.52906395123655
  O   2.50492854950174     -0.13367210026465      0.66769692846980
  O   1.35941348450624     -1.97960040344877      0.99562813228814
  N   0.79874296887565      0.83887529048517     -1.04805609634206
  O   0.37425425806541      1.94787156985220     -0.73961492134738
  O   1.56867854526697      0.57744374149782     -1.96661060734785
