14
Coordinates from ORCA-job run
  C   -0.86249092529436      0.19280485329758      0.72155036509236
  C   0.62658601895651      0.17368343059241      0.35207927751842
  Cl  -1.20290098022405      1.89801074453074      1.19764301056434
  H   1.25954637653315      0.43195050911805      1.19973632085107
  H   -0.95113957965429     -0.39364479992271      1.63523790028177
  N   -1.78177123514547     -0.29321181562772     -0.23126169697898
  H   -1.96075160661524     -1.28142355300813     -0.14854872627837
  H   -1.59007012421707      0.00041844711341     -1.17622444664759
  N   0.98889265412942      1.10160778222491     -0.75729539229587
  O   2.04612448242870      1.71013351440684     -0.62763043196440
  O   0.21651134929320      1.16881721864535     -1.70873894660709
  N   0.99138037522827     -1.22640556046685     -0.06504652347086
  O   1.46104723385397     -1.40887261730123     -1.17964456351786
  O   0.75903596072724     -2.07486815360268      0.78914385345304
