19
Coordinates from ORCA-job run
  C   -0.68135584094714      0.03989948606562     -0.15965502181778
  C   0.79212660480416      0.23735484249562      0.21813535996370
  F   -0.72751737410978      0.04293429326785     -1.57570556518773
  H   0.82328310618392      0.34731967238578      1.30976524823610
  C   -1.54677766842842      1.19166452975906      0.31050219023479
  H   -1.12689604908861      2.13767567911512     -0.02505378096049
  H   -1.60240691748740      1.20063490547000      1.40222652567512
  H   -2.55709677973854      1.07525105552017     -0.08799652927751
  C   -1.23630127564390     -1.29856793053448      0.28729419030236
  H   -2.30309214916775     -1.34949954788505      0.05981679920457
  H   -0.74026148425176     -2.11821754548674     -0.23252126022416
  H   -1.10534397674044     -1.43244649379208      1.36429315582694
  N   1.23858533174995      1.50818485559390     -0.35496869297892
  H   2.20453194518964      1.67402232934283     -0.09819616187285
  H   1.20174277782708      1.43168154514941     -1.36558348439993
  C   1.66705307638810     -0.95204464784193     -0.18368737560555
  H   1.43316989707024     -1.85718817822459      0.38137909664045
  H   2.71820082849968     -0.71332621069982     -0.00108439083632
  H   1.54635594789098     -1.16433263970066     -1.24896030292280
