19
Coordinates from ORCA-job run
  C   -0.62549236590637      0.18541775929136      0.44758011838029
  C   0.89296133313491      0.13403799131192      0.25969467611203
  F   -0.82883421058023      1.12636340381694      1.49014857139306
  H   1.29251018883282     -0.22032635560525      1.22531206260931
  C   -1.19474537988787     -1.12522777843316      0.95294575864794
  H   -2.23059201107723     -0.96964785615125      1.26150769549596
  H   -1.18021101940155     -1.89303609778493      0.17776456036219
  H   -0.62969075515581     -1.48291193714256      1.81706497017725
  C   -1.37215103392496      0.71188258285439     -0.76018672510624
  H   -1.35101546876097     -0.01082266480853     -1.57831771682352
  H   -2.41448919948214      0.89104528778217     -0.48743188594994
  H   -0.92172625161786      1.64269605581253     -1.10219316579868
  N   1.36817578453839      1.47600030020928     -0.07417686344371
  H   1.12056766479417      2.10538683282988      0.68043010193832
  H   2.37923374435306      1.46630913055578     -0.14339662572853
  C   1.32943313969341     -0.83089003335951     -0.83270410577354
  H   0.95413461279244     -0.50258625159762     -1.80348652411253
  H   0.99147454033669     -1.85041686022973     -0.63930931712862
  H   2.42145668731909     -0.85527350935173     -0.89124558525104
