17

C	-0.30773	-0.033335	-1.494467
C	0.0	0.0	0.0
F	-0.079007	1.274454	-2.006093
H	1.105366	0.0	0.0
N	0.521417	-0.991743	-2.116206
H	1.483806	-0.855609	-1.805547
H	0.462747	-0.929971	-3.124435
C	-1.733245	-0.299253	-1.794807
N	-2.859851	-0.519673	-2.04045
C	-0.505022	-1.246972	0.70164
H	-0.138463	-1.254374	1.732204
H	-0.133036	-2.144509	0.207489
H	-1.598923	-1.261734	0.719257
N	-0.609339	1.189948	0.589435
H	-0.1441	2.000234	0.196199
H	-0.379026	1.18434	1.577661
Cl	3.469655	0.0	0.0
