17

C	-0.520998	0.011145	-1.438514
C	0.0	0.0	0.0
F	-0.116245	-1.139712	-2.095259
H	1.099648	0.0	0.0
N	-1.954485	0.057039	-1.435402
H	-2.308261	0.377594	-2.328141
H	-2.211611	0.720441	-0.709712
C	0.056378	1.151964	-2.201155
N	0.384129	2.106325	-2.802689
C	-0.494413	-1.233293	0.736024
H	-0.233186	-2.132307	0.178639
H	0.005655	-1.286475	1.707074
H	-1.576989	-1.208163	0.882558
N	-0.521388	1.224668	0.643413
H	0.134551	1.976248	0.44637
H	-0.478457	1.084926	1.646846
Cl	3.463236	0.0	0.0
