17

C	-0.303966	0.087074	-1.493401
C	0.0	0.0	0.0
F	-0.081993	1.432437	-1.895905
H	1.097464	0.0	0.0
N	0.532964	-0.813083	-2.188257
H	0.482436	-0.66449	-3.187395
H	1.492844	-0.700944	-1.86041
C	-1.72744	-0.16187	-1.819591
N	-2.85598	-0.358995	-2.075678
C	-0.504899	-1.30021	0.597408
H	-0.131062	-2.154289	0.032818
H	-1.59871	-1.317579	0.612208
H	-0.139328	-1.390548	1.624098
N	-0.610388	1.137583	0.684144
H	-0.150569	1.978733	0.354231
H	-0.377827	1.053323	1.668313
Cl	3.467029	0.0	0.0
