17

C	-0.524932	-0.012046	-1.435077
C	0.0	0.0	0.0
F	-1.968362	-0.0425	-1.340154
H	1.094401	0.0	0.0
N	-0.086675	1.111842	-2.139342
H	-0.582979	1.238476	-3.009987
H	-0.15415	1.915372	-1.524486
C	-0.208575	-1.252029	-2.172304
N	-0.016118	-2.239616	-2.777954
C	-0.485451	-1.20934	0.788389
H	-0.073892	-1.158469	1.799534
H	-0.136642	-2.142118	0.33768
H	-1.578174	-1.232278	0.845392
N	-0.407194	1.289663	0.568851
H	0.281298	1.564428	1.259117
H	-1.310324	1.203362	1.021612
Cl	3.466711	0.0	0.0
