17

C	-0.52638	0.036252	-1.435752
C	0.0	0.0	0.0
F	-0.126649	-1.104577	-2.113555
H	1.093013	0.0	0.0
N	-1.959461	0.08481	-1.426547
H	-2.316195	0.417891	-2.31308
H	-2.212686	0.738153	-0.690653
C	0.049915	1.188433	-2.182064
N	0.38105	2.147751	-2.774651
C	-0.494031	-1.244757	0.717116
H	-0.235289	-2.135092	0.144714
H	0.00874	-1.313993	1.685569
H	-1.576131	-1.221179	0.866615
N	-0.515817	1.215988	0.666348
H	0.150353	1.964023	0.49165
H	-0.481544	1.052659	1.666011
Cl	3.457315	0.0	0.0
