17

C	-0.518058	0.008922	-1.433159
C	0.0	0.0	0.0
F	0.090867	-1.04282	-2.142022
H	1.094997	0.0	0.0
N	-1.943029	-0.126399	-1.476739
H	-2.265453	-0.057193	-2.434962
H	-2.188884	-1.043155	-1.122284
C	-0.162188	1.256725	-2.141365
N	0.067176	2.205007	-2.793682
C	-0.438862	-1.266229	0.734357
H	-1.51183	-1.258118	0.96242
H	-0.194997	-2.162138	0.15798
H	0.106388	-1.323117	1.678391
N	-0.430223	1.244686	0.624642
H	-1.325706	1.135198	1.081727
H	0.26396	1.532203	1.300058
Cl	3.448753	0.0	0.0
