17

C	-0.295192	0.073438	-1.511351
C	0.0	0.0	0.0
F	-1.622148	0.50927	-1.721051
H	1.098363	0.0	0.0
N	0.586365	1.026148	-2.100099
H	1.52534	0.905157	-1.718154
H	0.617953	0.935121	-3.107292
C	-0.258838	-1.255377	-2.174019
N	-0.222741	-2.29649	-2.717738
C	-0.593668	-1.219901	0.673372
H	-0.182139	-2.14745	0.270942
H	-1.683396	-1.237394	0.55775
H	-0.360934	-1.165762	1.73707
N	-0.435155	1.221871	0.67024
H	-1.335852	1.499699	0.295411
H	0.222101	1.95986	0.445639
Cl	3.416084	0.0	0.0
