17

C	-0.305396	-0.043542	-1.495148
C	0.0	0.0	0.0
F	-0.087095	1.262646	-2.013316
H	1.105299	0.0	0.0
N	0.532541	-0.998557	-2.109649
H	1.493067	-0.856613	-1.79556
H	0.477187	-0.942235	-3.11843
C	-1.727946	-0.324108	-1.79671
N	-2.851724	-0.558699	-2.042127
C	-0.503328	-1.24416	0.70793
H	-0.136013	-1.246086	1.738208
H	-0.130046	-2.143396	0.217913
H	-1.597101	-1.260615	0.726218
N	-0.611634	1.192243	0.582138
H	-0.148855	2.0011	0.183248
H	-0.380742	1.192739	1.570072
Cl	3.470856	0.0	0.0
