17

C	-0.544616	0.030506	-1.430983
C	0.0	0.0	0.0
F	-0.083066	-1.076381	-2.11538
H	1.100503	0.0	0.0
N	-1.991334	0.014965	-1.534352
H	-2.293764	-0.905574	-1.231826
H	-2.318041	0.685741	-0.844189
C	-0.065718	1.247375	-2.130663
N	0.257073	2.247333	-2.652748
C	-0.476658	-1.242348	0.732761
H	-1.547712	-1.196691	0.954306
H	0.06923	-1.326814	1.675003
H	-0.260463	-2.13886	0.150363
N	-0.532969	1.210893	0.657546
H	-0.480829	1.066133	1.660219
H	0.11129	1.972648	0.462122
Cl	3.460124	0.0	0.0
