14

C	-0.568045	0.014406	-1.425085
C	0.0	0.0	0.0
Cl	-0.011035	1.473008	-2.299939
H	1.089876	0.0	0.0
H	-1.656457	0.081564	-1.375338
C	-0.214696	-1.174659	-2.195645
N	0.034871	-2.118231	-2.850929
N	-0.571749	-1.262903	0.598733
O	0.183194	-2.17795	0.906129
O	-1.801469	-1.283306	0.732921
N	-0.409071	1.09771	0.809178
H	-1.251277	1.56031	0.496652
H	0.367124	1.745976	0.872193
H	2.742792	0.0	0.0
