14

C	-0.439031	0.025025	-1.440652
C	0.0	0.0	0.0
Cl	-2.243065	-0.075882	-1.604273
H	1.090762	0.0	0.0
H	-0.040454	-0.846462	-1.95886
C	0.007387	1.246832	-2.100441
N	0.363796	2.199312	-2.686893
N	-0.352724	-1.306409	0.584042
O	-0.196511	-2.307104	-0.125529
O	-0.663388	-1.345219	1.783266
N	-0.426181	1.125534	0.751398
H	0.286848	1.325606	1.442787
H	-1.298731	0.942397	1.226237
H	2.519531	0.0	0.0
