14

C	-0.505921	-0.10181	-1.44313
C	0.0	0.0	0.0
Cl	-0.326842	1.47596	-2.27875
H	1.097506	0.0	0.0
H	-1.5733	-0.337667	-1.452932
C	0.196884	-1.103848	-2.249325
N	0.710942	-1.888162	-2.956756
N	-0.423193	-1.157823	0.722555
O	-0.402962	-1.115263	1.970932
O	-0.67789	-2.198251	0.074157
N	-0.369492	1.224708	0.66268
H	-0.774493	0.968079	1.558297
H	0.509342	1.70078	0.871922
H	2.403483	0.0	0.0
