14

C	-0.546093	-0.079202	-1.412774
C	0.0	0.0	0.0
Cl	0.223057	-1.309988	-2.462814
H	1.098964	0.0	0.0
H	-0.291752	0.883952	-1.855683
C	-2.001191	-0.224895	-1.452108
N	-3.172233	-0.303264	-1.511956
N	-0.430649	-1.112587	0.831392
O	-0.768105	-2.171826	0.280175
O	-0.32681	-0.970184	2.060817
N	-0.299359	1.287729	0.571818
H	-1.00841	1.201946	1.289587
H	0.559639	1.6071	1.019664
H	2.470619	0.0	0.0
