14

C	-0.528592	-0.02242	-1.440746
C	0.0	0.0	0.0
Cl	-0.273131	1.578453	-2.226214
H	1.0899	0.0	0.0
H	-1.606626	-0.197577	-1.456425
C	0.100464	-1.037682	-2.286797
N	0.541984	-1.856149	-3.00397
N	-0.4462	-1.245872	0.654976
O	-0.15633	-1.394523	1.841427
O	-0.995489	-2.117077	-0.046886
N	-0.352832	1.129831	0.794807
H	-1.10338	1.681996	0.405334
H	0.478983	1.702648	0.901607
H	2.541776	0.0	0.0
