14

C	-0.516718	-0.020563	-1.446577
C	0.0	0.0	0.0
Cl	-0.311652	1.5964	-2.211883
H	1.089618	0.0	0.0
H	-1.58776	-0.232662	-1.473695
C	0.151153	-1.002432	-2.301898
N	0.617335	-1.760983	-3.06806
N	-0.441097	-1.251491	0.643103
O	-0.935042	-2.139768	-0.079956
O	-0.199937	-1.391143	1.841066
N	-0.357575	1.124477	0.798724
H	0.471101	1.700844	0.909119
H	-1.111854	1.674789	0.415
H	2.534247	0.0	0.0
