14

C	-0.439505	0.005186	-1.456351
C	0.0	0.0	0.0
Cl	0.412593	-1.151276	-2.530773
H	1.101933	0.0	0.0
H	-0.150471	0.994439	-1.812644
C	-1.884862	-0.137858	-1.623234
N	-3.05074	-0.205507	-1.748153
N	-0.467444	-1.173391	0.726807
O	-0.577234	-1.073151	1.958774
O	-0.6277	-2.230345	0.097918
N	-0.353752	1.242023	0.623118
H	-1.196916	1.136873	1.175362
H	0.407353	1.484426	1.253764
H	2.483945	0.0	0.0
