14

C	0.0	0.0	0.0
C	-0.361695	-0.047828	-1.54608
Cl	1.767405	0.0	0.0
H	-1.378932	-0.325702	-1.74264
H	-0.300124	0.87001	0.570658
H	0.269902	-0.840333	-1.990119
N	-0.378049	-1.258657	0.780905
O	-0.171049	-2.323727	0.2038
O	-0.731167	-1.138968	1.951287
C	-0.166355	1.320891	-2.188979
H	0.876681	1.611144	-2.319237
H	-0.654357	1.319296	-3.169359
H	-0.685024	2.072146	-1.591455
Cl	-2.759246	0.0	0.0
