14

C	0.0	0.0	0.0
C	-0.541919	-0.008562	-1.40607
Cl	1.767281	0.0	0.0
H	0.032745	-0.726342	-1.995533
H	-0.366099	0.825174	0.605546
H	-1.579632	-0.339055	-1.337329
N	-0.377478	-1.252428	0.764352
O	-0.495137	-2.286942	0.120225
O	-0.461711	-1.143262	1.982486
C	-0.502698	1.389147	-2.009869
H	-0.802408	1.352639	-3.060652
H	-1.218589	2.026237	-1.486582
H	0.492285	1.840888	-1.957179
Cl	-3.546073	0.0	0.0
