17

C	-0.366274	0.021049	-1.475554
C	0.0	0.0	0.0
F	-1.774979	0.033659	-1.587792
H	1.095861	0.0	0.0
H	-0.344167	-0.946002	0.432464
N	0.09474	1.195097	-2.191126
H	-0.213795	2.020145	-1.688478
H	1.111564	1.192537	-2.148267
C	0.1462	-1.214216	-2.183796
H	1.234707	-1.263185	-2.091076
H	-0.283631	-2.109796	-1.729299
H	-0.138773	-1.166224	-3.237031
C	-0.545797	1.172474	0.80398
H	-1.631957	1.252792	0.706705
H	-0.094749	2.117491	0.491337
H	-0.301214	1.046398	1.861249
Cl	3.573103	0.0	0.0
