17

C	-0.406618	0.101544	-1.468926
C	0.0	0.0	0.0
F	-0.311477	1.453427	-1.83942
H	1.094125	0.0	0.0
H	-0.303512	-0.993956	0.351927
N	0.493628	-0.610121	-2.349007
H	0.363127	-1.607244	-2.209944
H	1.447087	-0.406571	-2.049936
C	-1.839556	-0.313728	-1.754447
H	-2.047775	-0.160899	-2.813266
H	-2.534951	0.28599	-1.165011
H	-1.991543	-1.367844	-1.507801
C	-0.558082	1.084419	0.909144
H	-0.219227	0.921331	1.935151
H	-0.197941	2.061995	0.59004
H	-1.6536	1.105063	0.912764
Cl	3.584187	0.0	0.0
