17

C	-0.398506	-0.005731	-1.474074
C	0.0	0.0	0.0
F	-0.216891	1.309819	-1.931074
H	1.096338	0.0	0.0
H	-0.365534	0.920096	0.466083
N	0.462014	-0.824482	-2.302854
H	0.306158	-1.799548	-2.075979
H	1.425902	-0.617416	-2.040603
C	-1.852419	-0.346703	-1.743928
H	-2.075175	-1.384704	-1.486895
H	-2.504069	0.306159	-1.157979
H	-2.04984	-0.194647	-2.806011
C	-0.477203	-1.225972	0.77245
H	-1.564708	-1.254764	0.892823
H	-0.024802	-1.234366	1.766482
H	-0.162476	-2.14922	0.276575
Cl	3.578297	0.0	0.0
