16

C	-0.59676	-0.078552	-1.400671
C	0.0	0.0	0.0
Br	0.215061	-1.455616	-2.483934
H	1.093608	0.0	0.0
H	-1.6584	-0.304568	-1.336297
N	-0.515876	1.242152	-2.108434
O	-1.572095	1.880378	-2.140247
O	0.564358	1.631294	-2.527358
N	-0.492245	-1.212036	0.685859
H	0.268693	-1.884131	0.689541
H	-0.667346	-0.980878	1.656202
C	-0.491416	1.252659	0.713652
H	-1.584143	1.282291	0.776725
H	-0.072059	1.254827	1.722252
H	-0.139068	2.160068	0.221687
Cl	3.455283	0.0	0.0
