16

C	-0.351487	0.031898	-1.491767
C	0.0	0.0	0.0
Br	-2.273941	-0.018924	-1.837191
H	1.098705	0.0	0.0
H	0.030575	0.926946	-1.976678
N	0.266923	-1.112543	-2.244555
O	1.107642	-0.809493	-3.086546
O	-0.078032	-2.254027	-1.946716
N	-0.475598	-1.137628	0.756425
H	-1.46715	-1.282286	0.584887
H	0.015451	-1.973391	0.460035
C	-0.459377	1.29305	0.657261
H	-0.043475	1.319538	1.664752
H	-1.550833	1.34325	0.726433
H	-0.097863	2.168178	0.110843
Cl	3.424267	0.0	0.0
