16

C	-0.428745	0.009867	-1.460896
C	0.0	0.0	0.0
Br	-2.360862	-0.097962	-1.706795
H	1.098048	0.0	0.0
H	-0.105759	0.920415	-1.960545
N	0.217068	-1.0999	-2.251716
O	1.180294	-0.745104	-2.92823
O	-0.220565	-2.23813	-2.158249
N	-0.440731	-1.210874	0.675478
H	-1.209582	-1.01909	1.304458
H	0.335155	-1.585811	1.204257
C	-0.445722	1.287154	0.684227
H	-0.093753	2.170048	0.143493
H	-1.536689	1.337643	0.770028
H	-0.009594	1.31521	1.685559
Cl	3.343464	0.0	0.0
