16

C	-0.368073	0.007871	-1.463246
C	0.0	0.0	0.0
Br	-2.28509	-0.142257	-1.820222
H	1.106153	0.0	0.0
H	-0.037543	0.927489	-1.940751
N	0.294875	-1.085111	-2.262749
O	0.755743	-0.754946	-3.351283
O	0.306097	-2.219976	-1.796192
N	-0.574647	-1.130738	0.729779
H	-0.207779	-1.982852	0.321222
H	-0.190767	-1.082804	1.668311
C	-0.458055	1.298037	0.647674
H	-0.055332	2.165184	0.118399
H	-1.549137	1.353705	0.681238
H	-0.073305	1.33747	1.670462
Cl	3.408753	0.0	0.0
