16

C	-0.392842	0.01336	-1.468669
C	0.0	0.0	0.0
Br	-0.233219	1.72943	-2.362265
H	1.096488	0.0	0.0
H	0.228093	-0.686608	-2.021144
N	-1.804808	-0.461447	-1.692105
O	-1.99273	-1.215183	-2.643214
O	-2.676491	-0.06572	-0.921484
N	-0.408851	-1.332668	0.461794
H	0.335919	-1.718188	1.028963
H	-1.252744	-1.269935	1.019791
C	-0.487748	1.146228	0.871565
H	-0.115229	2.106191	0.511884
H	-1.577792	1.183075	0.92086
H	-0.085384	0.993643	1.876338
Cl	3.404675	0.0	0.0
