16

C	-0.538034	-0.017546	-1.429651
C	0.0	0.0	0.0
Br	0.294035	-1.355801	-2.538479
H	1.093636	0.0	0.0
H	-1.609443	-0.211856	-1.441595
N	-0.379688	1.32925	-2.078251
O	-1.423948	1.971494	-2.231636
O	0.747785	1.722428	-2.343377
N	-0.462659	-1.239398	0.624394
H	-1.243906	-1.052547	1.241336
H	0.293343	-1.626213	1.173659
C	-0.476124	1.252563	0.732422
H	-0.128035	1.194671	1.766239
H	-1.570378	1.333679	0.729202
H	-0.056037	2.161404	0.297526
Cl	3.465896	0.0	0.0
