15

C	-0.209258	-0.177155	-1.510532
C	0.0	0.0	0.0
Cl	-0.150215	1.501375	-2.358135
H	1.096247	0.0	0.0
H	-1.208609	-0.527141	-1.7912
N	0.829732	-1.036579	-1.910188
H	1.714627	-0.738427	-1.458008
H	0.908073	-1.123391	-2.913019
N	-0.462871	-1.124108	0.773429
H	0.289434	-1.800452	0.783447
H	-1.288435	-1.547966	0.36414
N	-0.702479	1.204398	0.504363
O	-1.932936	1.194177	0.38094
O	-0.061406	2.10765	1.035852
F	2.657616	0.0	0.0
