15

C	-0.513281	-0.043748	-1.428077
C	0.0	0.0	0.0
Cl	0.143262	-1.515326	-2.222237
H	1.089708	0.0	0.0
H	-0.092012	0.787653	-1.994403
N	-1.965244	-0.140763	-1.478498
H	-2.316021	0.747093	-1.133444
H	-2.259501	-0.234277	-2.44416
N	-0.463497	-1.069408	0.828437
H	-1.224712	-1.564447	0.382392
H	0.315491	-1.688977	0.998569
N	-0.417557	1.313149	0.603602
O	-0.263084	1.467062	1.807502
O	-0.834886	2.209651	-0.152185
F	2.553768	0.0	0.0
