15

C	-0.151856	-0.017512	-1.519238
C	0.0	0.0	0.0
Cl	-1.837198	0.406471	-2.049571
H	1.092392	0.0	0.0
H	-0.031293	-1.068879	-1.780401
N	0.827382	0.764497	-2.233371
H	0.662391	1.733692	-1.980173
H	1.704031	0.521424	-1.743827
N	-0.569497	-1.1371	0.636731
H	-1.557289	-0.993736	0.810444
H	-0.113295	-1.277259	1.528408
N	-0.461084	1.301021	0.583246
O	-1.161383	1.271076	1.599918
O	-0.106999	2.345548	0.03477
F	2.599366	0.0	0.0
