15

C	-0.433634	-0.033475	-1.440239
C	0.0	0.0	0.0
Cl	-2.436711	-0.170824	-1.421705
H	1.092118	0.0	0.0
H	-0.226748	-1.025437	-1.833494
N	0.004164	0.957088	-2.286647
H	-0.066552	1.877659	-1.880048
H	-0.346104	0.88206	-3.227784
N	-0.377156	-1.146095	0.751287
H	-1.211005	-1.606209	0.417418
H	0.415288	-1.766158	0.812124
N	-0.471214	1.255345	0.673306
O	-0.933374	1.206947	1.805689
O	-0.310841	2.316611	0.05089
F	2.526242	0.0	0.0
