15

C	-0.238966	0.153273	-1.498601
C	0.0	0.0	0.0
Cl	-1.885481	0.94818	-1.867794
H	1.098154	0.0	0.0
H	-0.416771	-0.855576	-1.874802
N	0.835967	0.851724	-2.101089
H	1.672713	0.731135	-1.508845
H	1.009326	0.509587	-3.036315
N	-0.570405	-1.194048	0.528093
H	-0.049137	-1.460722	1.352626
H	-1.529666	-1.027601	0.806959
N	-0.409059	1.237461	0.746309
O	-1.127237	1.103892	1.74367
O	0.021959	2.311551	0.345158
F	2.61622	0.0	0.0
