15

C	-0.486706	0.029533	-1.444386
C	0.0	0.0	0.0
Cl	0.109002	-1.510385	-2.262894
H	1.093411	0.0	0.0
H	0.028756	0.825594	-1.973465
N	-1.89766	0.192047	-1.564571
H	-2.174055	0.234041	-2.537916
H	-2.386625	-0.582636	-1.133138
N	-0.416335	-1.088313	0.820286
H	0.338191	-1.760633	0.833082
H	-1.278748	-1.535525	0.543627
N	-0.473721	1.310898	0.56723
O	-0.0955	2.32042	-0.030695
O	-1.197436	1.330559	1.560236
F	2.565052	0.0	0.0
