15

C	-0.2885	-0.054754	-1.520705
C	0.0	0.0	0.0
Cl	-0.660832	1.572542	-2.241842
H	1.091996	0.0	0.0
H	-1.190325	-0.642014	-1.706071
N	0.844839	-0.642173	-2.17763
H	0.73665	-1.648107	-2.127961
H	1.68516	-0.401511	-1.625061
N	-0.465863	-1.234311	0.567552
H	-1.42292	-1.13068	0.884675
H	0.12428	-1.465512	1.35691
N	-0.587177	1.196487	0.679406
O	-1.709927	1.072974	1.190144
O	0.057277	2.239808	0.680639
F	2.639142	0.0	0.0
