15

C	-0.597054	0.050592	-1.401094
C	0.0	0.0	0.0
Cl	0.024152	-1.395395	-2.280996
H	1.099797	0.0	0.0
H	-0.209322	0.910378	-1.940545
N	-2.039321	0.039749	-1.45066
H	-2.359912	0.971939	-1.212308
H	-2.341354	-0.605509	-0.724771
N	-0.516761	-1.159961	0.72408
H	-0.606916	-0.879384	1.693986
H	0.240024	-1.835205	0.696523
N	-0.407783	1.23346	0.703778
O	-0.482328	2.278143	0.046723
O	-0.60216	1.191789	1.924041
F	2.539504	0.0	0.0
