15

C	-0.631304	-0.028635	-1.377892
C	0.0	0.0	0.0
Cl	0.263375	-1.279932	-2.385816
H	1.090417	0.0	0.0
H	-0.454739	0.904492	-1.902311
N	-2.022787	-0.312616	-1.276231
H	-2.110292	-1.187506	-0.767704
H	-2.437823	-0.420283	-2.193479
N	-0.432379	-1.126135	0.791645
H	-1.075961	-0.815092	1.507202
H	0.394922	-1.487312	1.2498
N	-0.406225	1.300175	0.626256
O	-0.273465	2.321324	-0.047272
O	-0.808503	1.302068	1.793656
F	2.545604	0.0	0.0
