15

C	-0.447062	0.001322	-1.437539
C	0.0	0.0	0.0
Cl	-2.46455	-0.006561	-1.397861
H	1.094695	0.0	0.0
H	-0.322334	-0.998518	-1.844754
N	0.046638	0.97107	-2.271039
H	-0.318733	0.951786	-3.209611
H	0.079387	1.882981	-1.841502
N	-0.408592	-1.136879	0.7441
H	-1.294431	-1.523979	0.450317
H	0.335394	-1.81776	0.743046
N	-0.442109	1.264333	0.680388
O	-0.964149	1.216946	1.786541
O	-0.204925	2.325232	0.08613
F	2.527179	0.0	0.0
