16
Coordinates from ORCA-job run
  C   0.58709333635282     -0.13205809732979     -0.54030143358516
  C   -0.57796837456144     -0.62045795647292      0.36298931186777
  Br  0.77490256436789     -1.23649507601119     -2.08161634604717
  H   -0.40270737450849     -1.67830670738293      0.54905139781556
  N   0.44972563572779      1.34547988157321     -0.91145953315417
  O   0.50768690894265      2.08614386472049      0.06507629422101
  O   0.29397103528419      1.65971692079733     -2.07527320021043
  N   1.90052425019119     -0.21431365234181      0.23998755525155
  O   2.82252578489941      0.46156879763094     -0.18741023873158
  O   1.92022530630777     -0.98633452118538      1.19061120509619
  N   -1.83252037028222     -0.54409967306980     -0.47286100520226
  O   -2.17617694112802      0.59018319706254     -0.79704009352530
  O   -2.41701830641457     -1.59101162512085     -0.72015809318011
  N   -0.83597963489949      0.05418104282875      1.58174178251728
  H   -0.20686638090290     -0.25419575467886      2.30847220458328
  H   -0.80841743937658      1.05999935898027      1.48719019228356
