16
Coordinates from ORCA-job run
  C   0.88117200030312      0.11445224933982      0.05048153386483
  C   -0.42772308151616     -0.45272669389639      0.61963707598124
  Br  2.21461907576397      0.17567397324149      1.41690432456761
  H   -0.19302661706634     -1.46553326498313      0.95658814497470
  N   1.43636761963722     -0.77131616039032     -1.07865235962188
  O   1.66244611061530     -0.23536739539293     -2.14954457936468
  O   1.60446327896399     -1.93647542549216     -0.76408840260570
  N   0.67338114473625      1.50763534908456     -0.53034711889693
  O   1.65616123103222      2.20481594443765     -0.70826508175105
  O   -0.49353152173092      1.78435157880099     -0.80065134268872
  N   -1.47006552848621     -0.67484071433056     -0.50763473638065
  O   -1.05718774424069     -1.10873047899562     -1.57506039028150
  O   -2.63410185084910     -0.45110215133435     -0.21221124457717
  N   -0.91535726729035      0.33868409659241      1.67801324158118
  H   -1.39966447786177      1.15566872122365      1.32956273619178
  H   -1.53895237201052     -0.18618962790510      2.27326819900694
