16
Coordinates from ORCA-job run
  C   0.80496524791420      0.13606093971090     -0.00341398549794
  C   -0.46014248825165     -0.55177504570381      0.57722586773240
  Br  2.08550908523415      0.34899645766901      1.40354923304699
  H   -0.16941671703547     -1.56741923742885      0.84697377067979
  N   1.44027007184949     -0.69237970308113     -1.11851580666584
  O   2.57975475720657     -0.40847254804292     -1.44468123172961
  O   0.71856790301485     -1.55945770992849     -1.60081920825875
  N   0.50363103357644      1.51314652490609     -0.61023218314568
  O   0.06527238095482      2.33691874373029      0.17799713735307
  O   0.71202666748634      1.65584786039588     -1.80233934555763
  N   -1.51324556909253     -0.71475724479158     -0.49922752084362
  O   -2.08670652273378     -1.79028713922465     -0.54645746081017
  O   -1.75011020874581      0.28360034413414     -1.17366303629620
  N   -1.10392427282729      0.08906178861235      1.66925085104235
  H   -0.69970784966054     -0.17412119792968      2.55482434745105
  H   -1.12474351888977      1.09503716697245      1.56952857149979
