16
Coordinates from ORCA-job run
  C   0.60350959963354     -0.22725008017659     -0.61415700869543
  C   -0.49043279788502     -0.54020944373894      0.41536674953205
  Br  0.74848612884043     -1.55646732854487     -1.96982729813445
  H   -0.40735280463998     -1.60472169178945      0.64237098578280
  N   0.46788378986919      1.16797432926573     -1.21545958108222
  O   -0.14757405616798      1.97052303422822     -0.52291983527213
  O   1.02471100360875      1.38511567742197     -2.27592007373698
  N   1.91701688205568     -0.20640539057527      0.19396617682219
  O   2.49856734560842      0.86343917069736      0.27200613852066
  O   2.22041324973918     -1.26942851973319      0.70453575549978
  N   -1.87992539949594     -0.40354093931367     -0.23138298131111
  O   -2.80648663815450     -0.64857314075518      0.53260827391829
  O   -1.96976101697861     -0.07470132185006     -1.40870116261101
  N   -0.33986585251934      0.19777572523632      1.61051998353437
  H   -0.58697932929823      1.17049085069145      1.49711466065731
  H   -0.85321010421558     -0.22402093106383      2.37087921657587
