16
Coordinates from ORCA-job run
  C   0.58388786873368     -0.26297137208157     -0.50655446013127
  C   -0.80901484243487     -0.41099286264805      0.16366478426758
  Br  1.25977712051902     -2.00892449721708     -0.90486944563902
  H   -1.48189809120107     -0.80626367147754     -0.59780026590511
  N   0.50662610126324      0.53731986051650     -1.80553622890251
  O   1.46335492405495      0.47317060797482     -2.55781007369727
  O   -0.51685518365636      1.19773348752624     -1.95244634662917
  N   1.59546239317107      0.46696959306910      0.38759645620176
  O   2.03995815172999      1.52567281398254     -0.02035365120712
  O   1.84512643017304     -0.09352352090745      1.44379824246424
  N   -1.36965628434808      0.94961896468416      0.52134840879879
  O   -0.60620140044009      1.70329800810368      1.11869092618950
  O   -2.54537169443175      1.14416520099672      0.26120951328650
  N   -0.87969730065654     -1.19334322301510      1.34704006535190
  H   -0.08426147881315     -1.04904052923105      1.95436707887392
  H   -1.00323671366307     -2.17388886027590      1.14665499667727
