16
Coordinates from ORCA-job run
  C   0.80304301852522      0.09381039278334      0.08002525651280
  C   -0.54988531747361     -0.51212460261919      0.54653590618448
  Br  2.01016316046729      0.12364868668268      1.56921521427607
  H   -0.31112585903681     -1.54222443588336      0.82392474436428
  N   1.45332096767454     -0.74905216872243     -1.03005839180557
  O   1.61837487436986     -0.20680553142753     -2.11019120132029
  O   1.71909793103819     -1.89322748394486     -0.70725129966406
  N   0.65455424448727      1.50518575680416     -0.46773255542873
  O   1.66402049767200      2.17899922981613     -0.57838688053639
  O   -0.49073702323693      1.82073086413689     -0.78078263841349
  N   -1.49215881782867     -0.64565706809653     -0.65648321639033
  O   -1.01541811204976     -1.24240288395102     -1.61717161549770
  O   -2.61656108517025     -0.18847579602876     -0.56477576104566
  N   -1.22717128252852      0.13751471553104      1.59736734637157
  H   -1.43889826252323      1.10527393723231      1.40387709867485
  H   -0.77961893438659      0.01380638768714      2.49188799371815
