16
Coordinates from ORCA-job run
  C   0.52682836285236      0.46159799368124     -0.31821946216071
  C   -0.52188448288773     -0.42028828616776      0.35299161942921
  Br  0.18544093185685      2.30794028305533     -0.07419169499781
  H   -0.35559341519049     -1.44500670022473      0.01663564820830
  N   1.88224191184471      0.04829521275099      0.31986246087498
  O   2.14319851818850     -1.13650828419071      0.16556217179838
  O   2.54087850220384      0.89213389865775      0.89516731729853
  N   0.72826653660141      0.11344709903019     -1.80555421907718
  O   0.45598579639364     -1.03574936851981     -2.11962074634007
  O   1.21490983749041      0.98330348507262     -2.50968055985449
  N   -1.91268846030573     -0.05241034220797     -0.20200987919312
  O   -2.84541123016872     -0.14849590763916      0.58621456834279
  O   -1.98332037731916      0.25648382443363     -1.38529258536693
  N   -0.41088018467036     -0.32423812306286      1.75482480945020
  H   -0.91300681253268     -1.06737223705753      2.21888860291490
  H   -0.73496543435685      0.56886745238876      2.10342194867301
