16
Coordinates from ORCA-job run
  C   0.61548395892686     -0.23205593375109     -0.48367245400014
  C   -0.78054655749333     -0.46496888112544      0.15382552237116
  Br  1.42903865036957     -1.93235196102977     -0.81636227128381
  H   -1.40254957924289     -0.92578705085345     -0.61404486051326
  N   0.51518575033501      0.52776054931617     -1.80551928024792
  O   -0.54867166859260      1.10860245133429     -1.99521106284576
  O   1.49313280540668      0.51272397034375     -2.53278243293629
  N   1.54687247248884      0.59297191782467      0.41593899010015
  O   1.80326663041676      0.08086667840212      1.49487801059050
  O   1.92952016736868      1.66784468750836     -0.01158432121072
  N   -1.44841872294354      0.85942895220232      0.46097332978832
  O   -0.75721660744318      1.68516011343551      1.05090887990154
  O   -2.62916185879805      0.95751519568431      0.17100989877421
  N   -0.82798819732742     -1.22175051246400      1.35501684776069
  H   -0.06246583215617     -1.00471004922691      1.97895949807459
  H   -0.87348141131523     -2.21325012760086      1.17666570567674
