16
Coordinates from ORCA-job run
  C   0.52900878386532      0.44528932438883     -0.17608495148655
  C   -0.59148662654770     -0.48649334851038      0.35247025702480
  Br  0.39221686453711      2.22547346528468      0.46465247908673
  H   -0.39430981079050     -1.47343833657641     -0.06726592770137
  N   1.90287826885222     -0.11805413207444      0.21375724123232
  O   1.92003077225377     -1.15187537335165      0.87069745253495
  O   2.86330795651153      0.51022969577602     -0.20020519942798
  N   0.56032840584446      0.37870374989937     -1.71357644160843
  O   0.93565111010039     -0.71062319251834     -2.12855804387313
  O   0.18990962032264      1.34436511395829     -2.35368420640539
  N   -1.87565836417239     -0.00950503633438     -0.29747913258327
  O   -2.60007737570148      0.71764625372675      0.36966970529428
  O   -2.06763931733221     -0.38463517138285     -1.45138584012601
  N   -0.78909388210238     -0.56439391674036      1.74921996159412
  H   -0.03273941826646     -1.06261228363781      2.19443173696376
  H   -0.94232698737434      0.33992318809267      2.17334090948119
