16
Coordinates from ORCA-job run
  C   0.76251911276339     -0.09243268441434     -0.44172815300922
  C   -0.58670141058013     -0.65144700632144      0.03501288389830
  Br  1.99787807180928     -1.51647843932282     -0.75090676344985
  H   -1.04716581388876     -1.14868862550101     -0.81982243613412
  N   0.58422058499416      0.68197802965261     -1.75212600620784
  O   -0.57423783775176      0.93434737572521     -2.06876942164699
  O   1.59768600398185      0.98486923575766     -2.35787013146086
  N   1.39394885074312      0.87275930292760      0.57746232165994
  O   1.48482773396081      0.41503381606051      1.70673368261150
  O   1.75357249495933      1.96642544199099      0.18584547050407
  N   -1.55875428324828      0.49411586259350      0.34338023575480
  O   -1.10197014906395      1.56678692180013      0.72465527845411
  O   -2.74230546996829      0.19027650472138      0.26162974960632
  N   -0.48021772974068     -1.55816225149307      1.11594698811677
  H   -0.11710818121709     -1.12506085986285      1.95367542273189
  H   -1.36519197775301     -2.01532262431407      1.28788087857120
