16
Coordinates from ORCA-job run
  C   0.54239534947050      0.42779947031047     -0.18107884394625
  C   -0.59736865624648     -0.47433432101132      0.35835938884819
  Br  0.52375653955522      2.17997594474420      0.54510428163637
  H   -0.46851419904376     -1.44860904304801     -0.11416133346563
  N   1.90303290487545     -0.21800882615629      0.11602259745506
  O   2.87341051443990      0.38204897096147     -0.31623194018029
  O   1.89891278207038     -1.28233831254949      0.72261118265976
  N   0.49885367002208      0.43267116775709     -1.71964648362405
  O   0.14491199137609      1.44345261612678     -2.29638309222610
  O   0.80225512425395     -0.65149015742250     -2.20152486784141
  N   -1.88468977860842      0.09214644453018     -0.20679512132723
  O   -2.15006066197951     -0.22279215933762     -1.36416349973888
  O   -2.54189962443381      0.81948018424991      0.52660620973074
  N   -0.73455683360547     -0.60823578185295      1.75834512336875
  H   0.02057970277574     -1.15437358439480      2.14564978153903
  H   -0.83201882492187      0.28160738709288      2.22728661711196
