17

C	-0.470764	-0.192335	-1.42655
C	0.0	0.0	0.0
F	-1.764193	-0.676189	-1.442075
H	1.092008	0.0	0.0
H	-0.308298	-0.915968	0.517404
N	-0.550136	1.169432	-2.105985
O	0.520299	1.671297	-2.431302
O	-1.655673	1.687115	-2.238298
C	0.419071	-1.094009	-2.241163
H	0.052463	-1.165304	-3.268227
H	0.40291	-2.085909	-1.785114
H	1.443075	-0.721496	-2.216484
C	-0.574759	1.222125	0.702093
H	-1.666242	1.248926	0.64643
H	-0.179504	2.141433	0.264536
H	-0.277562	1.210972	1.752519
Br	3.661704	0.0	0.0
