17

C	-0.40129	0.01516	-1.457112
C	0.0	0.0	0.0
F	-0.17414	-1.227414	-1.999877
H	1.094386	0.0	0.0
H	-0.35409	-0.94631	0.419014
N	-1.919886	0.189786	-1.524546
O	-2.357814	1.316634	-1.755423
O	-2.605157	-0.795731	-1.26838
C	0.295377	1.045432	-2.30324
H	-0.018216	0.948248	-3.344548
H	0.076341	2.05398	-1.95979
H	1.367985	0.859073	-2.210738
C	-0.516979	1.183691	0.808571
H	-0.199685	2.134443	0.375567
H	-1.607714	1.191327	0.891731
H	-0.098494	1.132714	1.815517
Br	3.644298	0.0	0.0
