17

C	-0.510189	0.00734	-1.421867
C	0.0	0.0	0.0
F	-0.037288	1.099394	-2.095168
H	1.095172	0.0	0.0
H	-0.326874	-0.930798	0.46933
N	0.029129	-1.221168	-2.149486
O	0.674634	-1.058733	-3.1743
O	-0.290524	-2.300665	-1.655604
C	-2.015271	-0.031293	-1.593194
H	-2.258962	-0.090973	-2.656802
H	-2.445142	0.886148	-1.190473
H	-2.434994	-0.892746	-1.07539
C	-0.483709	1.212159	0.790889
H	0.032778	1.234487	1.752423
H	-0.231097	2.135178	0.265907
H	-1.56103	1.198466	0.983445
Br	3.663721	0.0	0.0
