17

C	-0.424899	-0.12975	-1.442708
C	0.0	0.0	0.0
F	-1.798995	-0.326986	-1.540811
H	1.091829	0.0	0.0
H	-0.369995	0.950256	0.38954
N	-0.224168	1.227659	-2.126348
O	-0.889807	2.156339	-1.676808
O	0.552471	1.30283	-3.073844
C	0.290948	-1.203998	-2.212668
H	-0.008683	-1.189728	-3.260753
H	0.027149	-2.169402	-1.778254
H	1.368604	-1.05671	-2.127057
C	-0.495463	-1.158636	0.860767
H	-1.584125	-1.245699	0.841669
H	-0.059068	-2.107458	0.542516
H	-0.177487	-0.993856	1.892422
Br	3.629895	0.0	0.0
