14

C	-0.277382	0.007909	-1.498347
C	0.0	0.0	0.0
Cl	-2.038351	0.150699	-1.888939
H	1.098423	0.0	0.0
H	0.183789	0.916444	-1.892443
C	0.322532	-1.215807	-2.154663
H	1.37649	-1.253381	-1.856411
H	-0.183987	-2.122876	-1.818286
H	0.243028	-1.149005	-3.241577
C	-0.484679	-1.200497	0.654673
N	-0.843184	-2.202112	1.156635
C	-0.465102	1.20022	0.670603
N	-0.805198	2.200059	1.187923
H	2.547057	0.0	0.0
