14

C	-0.381923	-0.015346	-1.486995
C	0.0	0.0	0.0
Cl	0.106191	1.541547	-2.226409
H	1.09614	0.0	0.0
H	0.258404	-0.771366	-1.950848
C	-1.850223	-0.26388	-1.771942
H	-2.150461	-1.229797	-1.357883
H	-2.035572	-0.268764	-2.848813
H	-2.460996	0.520117	-1.318653
C	-0.418168	-1.245806	0.621306
N	-0.749788	-2.27547	1.08479
C	-0.542539	1.134439	0.721647
N	-0.94483	2.065236	1.319121
H	2.520887	0.0	0.0
