15

C	0.0	0.0	0.0
C	-0.422634	0.140451	-1.482573
F	1.352519	0.0	0.0
H	0.484044	0.448898	-2.018851
N	-0.329203	1.271371	0.769359
O	-0.170984	2.310474	0.135295
O	-0.546989	1.177795	1.966125
C	-0.494971	-1.16417	0.726959
N	-0.57804	-2.152133	1.361191
C	-1.501124	1.058262	-1.824286
N	-2.167085	1.83976	-2.398007
N	-0.704206	-1.237133	-2.04306
O	0.174404	-2.065192	-1.81374
O	-1.703088	-1.414609	-2.722796
F	-2.239424	0.0	0.0
