15

C	0.0	0.0	0.0
C	-0.27181	0.192129	-1.523807
F	1.365504	0.0	0.0
H	-0.10757	-0.80071	-1.948778
N	-0.362075	1.170998	0.869016
O	-0.330104	2.268444	0.326566
O	-0.490256	0.94571	2.064332
C	-0.498774	-1.26164	0.526687
N	-0.553352	-2.374336	0.909782
C	0.70569	1.106528	-2.125606
N	1.496457	1.769944	-2.685985
N	-1.627639	0.596932	-2.074016
O	-1.927846	1.777913	-2.023191
O	-2.222894	-0.283914	-2.679402
F	-2.194648	0.0	0.0
