16

C	0.0	0.0	0.0
C	-0.679782	0.147913	-1.343423
Br	1.933931	0.0	0.0
H	-0.480261	-0.752801	-1.924816
H	-1.774609	0.225871	-1.08551
N	-0.361085	1.211073	0.863435
O	-0.555766	1.026546	2.057239
O	-0.361613	2.295555	0.290996
C	-0.544512	-1.252664	0.638423
H	-1.646354	-1.125503	0.64751
H	-0.261216	-2.114613	0.029307
H	-0.153585	-1.374105	1.647608
N	-0.270557	1.278945	-2.220481
O	0.883418	1.268029	-2.657019
O	-1.122626	2.110872	-2.518073
H	-3.183891	0.0	0.0
