12

C	0.0	0.0	0.0
C	-0.401732	-0.331273	-1.474408
F	1.372715	0.0	0.0
H	0.571273	-0.469711	-1.968098
H	-0.375661	0.978089	0.291846
C	-0.408888	-1.025794	0.969577
N	-0.453804	-1.871376	1.784869
C	-1.023285	0.801925	-2.164461
N	-1.304643	1.7336	-2.821715
C	-1.117097	-1.591703	-1.688294
N	-1.474661	-2.667955	-1.99459
Br	-3.133172	0.0	0.0
