12

C	0.0	0.0	0.0
C	-0.516731	-0.068652	-1.443537
F	1.369899	0.0	0.0
H	-1.631439	-0.088104	-1.332212
H	-0.378687	0.911559	0.465541
C	-0.420398	-1.180072	0.775482
N	-0.550807	-2.160971	1.40762
C	-0.040837	-1.270871	-2.125334
N	0.334368	-2.239208	-2.674359
C	-0.108878	1.129191	-2.17556
N	0.208716	2.099766	-2.755251
Br	-3.442783	0.0	0.0
