17

C	-0.356636	0.007852	-1.467867
C	0.0	0.0	0.0
F	0.138743	1.103928	-2.101596
H	1.097535	0.0	0.0
H	-0.020466	-0.89098	-1.987232
N	-1.858985	0.044427	-1.66091
O	-2.432298	-1.044971	-1.635176
O	-2.405532	1.1365	-1.781041
C	-0.47051	-1.270238	0.697664
H	-0.043154	-1.294244	1.702647
H	-0.123811	-2.164431	0.173398
H	-1.560219	-1.321733	0.780735
C	-0.48145	1.2619	0.706344
H	-1.570908	1.284791	0.817993
H	-0.030313	1.303026	1.700298
H	-0.169617	2.155197	0.163643
Cl	3.426272	0.0	0.0
