17

C	-0.537737	-0.025428	-1.410925
C	0.0	0.0	0.0
F	-0.068669	-1.09255	-2.117062
H	1.096178	0.0	0.0
H	-1.632106	-0.049247	-1.436873
N	-0.181827	1.220478	-2.189642
O	0.816853	1.205575	-2.89302
O	-0.956436	2.168225	-2.039368
C	-0.458189	-1.28422	0.691266
H	-1.551792	-1.331042	0.773521
H	-0.104718	-2.164867	0.153567
H	-0.034791	-1.319835	1.697177
C	-0.478478	1.231628	0.763399
H	-0.136699	1.153151	1.797988
H	-1.571257	1.317906	0.76281
H	-0.06339	2.151641	0.351726
Cl	3.475812	0.0	0.0
