17

C	-0.436826	0.061801	-1.444465
C	0.0	0.0	0.0
F	-1.790709	0.263644	-1.566431
H	1.094957	0.0	0.0
H	0.087172	0.839189	-2.002258
N	-0.120893	-1.226421	-2.16586
O	1.03253	-1.337969	-2.565637
O	-1.016233	-2.061699	-2.273677
C	-0.518722	-1.244474	0.708948
H	-0.241889	-1.194515	1.764709
H	-0.070706	-2.152163	0.29997
H	-1.607248	-1.328541	0.635093
C	-0.457592	1.283496	0.691823
H	-1.547805	1.341545	0.759572
H	-0.092361	2.166382	0.1594
H	-0.038781	1.31707	1.700072
Cl	3.501558	0.0	0.0
