13

C	-0.452879	-0.045169	-1.449353
C	0.0	0.0	0.0
Cl	0.493256	1.019701	-2.538001
H	1.09166	0.0	0.0
H	-0.249682	-1.059017	-1.801317
C	-1.878877	0.221101	-1.619499
N	-3.034952	0.362209	-1.772294
C	-0.425609	-1.183924	0.708112
N	-0.692126	-2.202799	1.23504
N	-0.399453	1.199702	0.708533
O	-0.675188	2.203868	0.035206
O	-0.285008	1.176843	1.941186
H	2.361702	0.0	0.0
