13

C	-0.301165	-0.002716	-1.478019
C	0.0	0.0	0.0
Cl	-2.053642	0.185513	-1.852185
H	1.095487	0.0	0.0
H	0.204652	0.863391	-1.907024
C	0.181228	-1.228458	-2.108859
N	0.509884	-2.226182	-2.63356
C	-0.533584	-1.123282	0.724303
N	-0.914984	-2.095511	1.265745
N	-0.331422	1.26554	0.614964
O	-0.196728	2.275815	-0.094004
O	-0.549733	1.281274	1.834884
H	2.355999	0.0	0.0
