13

C	-0.410611	-0.103059	-1.45891
C	0.0	0.0	0.0
Cl	0.391543	1.104059	-2.509449
H	1.091574	0.0	0.0
H	-0.030894	-1.071509	-1.801346
C	-1.857568	-0.07285	-1.665699
N	-3.019919	-0.145312	-1.82077
C	-0.396872	-1.188101	0.720893
N	-0.654372	-2.20925	1.246112
N	-0.475077	1.187205	0.686543
O	-0.282738	1.219084	1.90878
O	-0.925502	2.122969	0.009798
H	2.380866	0.0	0.0
