13

C	-0.42475	-0.009852	-1.468469
C	0.0	0.0	0.0
Cl	-0.265414	-1.661184	-2.146847
H	1.091477	0.0	0.0
H	-1.476368	0.265775	-1.558324
C	0.356006	0.903332	-2.307927
N	0.895631	1.585071	-3.097654
C	-0.473532	-1.128899	0.760159
N	-0.819616	-2.072448	1.372565
N	-0.389518	1.231736	0.634164
O	-0.629093	2.204813	-0.109571
O	-0.304151	1.291089	1.869117
H	2.337373	0.0	0.0
