13

C	-0.435017	0.095425	-1.45157
C	0.0	0.0	0.0
Cl	0.481388	1.311237	-2.398486
H	1.091504	0.0	0.0
H	-0.180214	-0.864794	-1.906923
C	-1.869481	0.316702	-1.619825
N	-3.032027	0.403091	-1.769031
C	-0.404628	-1.258842	0.579644
N	-0.637738	-2.331184	1.004842
N	-0.422713	1.111863	0.825751
O	-0.28055	0.972744	2.047926
O	-0.744489	2.168512	0.260821
H	2.360825	0.0	0.0
