13

C	-0.337866	0.007925	-1.469292
C	0.0	0.0	0.0
Cl	-2.105836	0.147043	-1.787525
H	1.096427	0.0	0.0
H	0.125408	0.896622	-1.899377
C	0.161511	-1.191815	-2.134063
N	0.52653	-2.17089	-2.670435
C	-0.513534	-1.132554	0.726432
N	-0.861617	-2.105326	1.289301
N	-0.335872	1.258891	0.628303
O	-0.550934	1.263556	1.848448
O	-0.212234	2.27613	-0.07232
H	2.357362	0.0	0.0
