13

C	-0.414861	-0.12649	-1.455683
C	0.0	0.0	0.0
Cl	0.416945	1.028414	-2.541988
H	1.091679	0.0	0.0
H	-0.066271	-1.112585	-1.775689
C	-1.858952	-0.060446	-1.664458
N	-3.020955	-0.103465	-1.831865
C	-0.398953	-1.171465	0.745475
N	-0.642518	-2.163989	1.329173
N	-0.462732	1.204682	0.661726
O	-0.296828	1.255065	1.887365
O	-0.864837	2.14252	-0.04158
H	2.375054	0.0	0.0
