15

C	-0.564276	0.018161	-1.427354
C	0.0	0.0	0.0
Cl	-2.320773	-0.168035	-1.42617
H	1.0951	0.0	0.0
C	-0.209725	1.275756	-2.076139
N	0.02148	2.292092	-2.62016
N	0.087165	-1.106449	-2.311627
O	-0.625941	-1.994688	-2.737189
O	1.277662	-0.930585	-2.491753
N	-0.391438	-1.272671	0.696351
O	-0.773507	-1.201226	1.858011
O	-0.238897	-2.298645	0.043121
C	-0.502077	1.148949	0.735107
N	-0.891322	2.104768	1.29772
Cl	3.09327	0.0	0.0
