16
Coordinates from ORCA-job run
  C   -0.76211631688817     -0.41045744981891     -0.00782577929844
  C   0.73275867314723     -0.31945431733618     -0.31709448917339
  Cl  -1.17140058941563     -1.94900272853832      0.69728142139525
  H   0.97109484517882     -1.22384363932483     -0.88509890223298
  N   -1.62347374519964     -0.25398991010996     -1.26170509550477
  O   -1.09539835836366     -0.58558423195037     -2.31384105823294
  O   -2.77236466412761      0.11690921063516     -1.07865760766530
  N   -1.15198619753943      0.74697018515746      0.91208445468546
  O   -1.42723070381420      0.50465927916483      2.07483269340129
  O   -1.07622899954291      1.84037055336796      0.36566212234733
  C   1.56613833213287     -0.26773865705432      0.96990089748930
  H   1.39652672745630      0.66766951115464      1.50543486349257
  H   2.62358861802487     -0.31998780627343      0.70888578894372
  H   1.32623411579499     -1.10429897356451      1.62591741073773
  C   1.05517374983038      0.82718358873317     -1.16878231560734
  N   1.40968451332578      1.73059538575761     -1.82999440477749
