16
Coordinates from ORCA-job run
  C   -0.78245220809826      0.15163130598963     -0.47901394867684
  C   0.73382347067041     -0.06665748094799     -0.52077816974458
  Cl  -1.37973562544624      0.78983795787076     -1.98426040581326
  H   0.89549198849294     -0.76517996607886     -1.34813782022127
  N   -1.13725064304849      1.06867811947324      0.69458495346096
  O   -1.37542606592432      2.24062121416521      0.45820916642543
  O   -1.07980028581480      0.51503557770643      1.78602344576822
  N   -1.53560400428066     -1.15567361924408     -0.22505518656826
  O   -0.93764115361629     -2.18992921106265     -0.49155878005283
  O   -2.68940946409993     -1.03714615415163      0.15552834968945
  C   1.36904537432463     -0.63605893501987      0.75438871989700
  H   2.41549535203919     -0.85659441371534      0.53633650244456
  H   1.33314718949269      0.07924993173207      1.57413543604238
  H   0.87745726056331     -1.55784106748723      1.05825342507404
  C   1.36988664149832      1.20705914485083     -0.86584483998797
  N   1.92397217324748      2.21496759591950     -1.10281084773702
