16
Coordinates from ORCA-job run
  C   -0.68866834733835      0.27787352411423     -0.21881546138075
  C   0.69577377605715     -0.31880870177203      0.02631722237722
  Cl  -0.65171635113981      1.88047012473921     -0.86406944100812
  H   0.52533187437157     -1.27191901092491      0.53506724456688
  N   -1.54516926877352      0.25616231890949      1.05872091543275
  O   -2.66008208817478      0.74171545888162      0.94453136719035
  O   -1.06188075572814     -0.27622645751280      2.04908190844456
  N   -1.46611526642109     -0.68340596361230     -1.14863624866954
  O   -1.80235159787131     -0.29592144100228     -2.25094145339532
  O   -1.63818115129611     -1.78725484296959     -0.64548540380833
  C   1.61668813332896      0.56738455217911      0.87009052958822
  H   2.54150455780320      0.02286828450851      1.06669462633217
  H   1.86519302507669      1.48759880204555      0.34292902090721
  H   1.14757141761763      0.80518912102947      1.82336116631488
  C   1.30368403626538     -0.59736047819934     -1.27633443507410
  N   1.81841800622253     -0.80936529041394     -2.31051155781809
