16
Coordinates from ORCA-job run
  C   -0.78344136373883      0.15024895654173     -0.47674535777385
  C   0.73227773364800     -0.07041916428291     -0.52273342898173
  Cl  -1.38537330733045      0.78116896508484     -1.98328334989248
  H   0.88932775219841     -0.77554720583680     -1.34537618754265
  N   -1.13403516585489      1.07296723333394      0.69327129924502
  O   -1.37117430084382      2.24427389416623      0.45238634215949
  O   -1.07589116476133      0.52432139675000      1.78731594759364
  N   -1.53726661373501     -1.15541483571944     -0.21395968041312
  O   -0.94113898260145     -2.19163043133829     -0.47689178490139
  O   -2.68970459695330     -1.03402015870550      0.16963477840696
  C   1.37100800062358     -0.63176682167923      0.75426089347697
  H   2.41580649807280     -0.85768394734418      0.53376309384813
  H   0.87743176124610     -1.54935520293608      1.06747699527831
  H   1.34080666555237      0.09001277111801      1.56854071569203
  C   1.36926217072684      1.19939764591395     -0.87983289860349
  N   1.92410491375098      2.20444690493375     -1.12682737759183
