16
Coordinates from ORCA-job run
  C   -0.68808244495756      0.18561726980968     -0.35157886090862
  C   0.72341912583726     -0.30867864374795     -0.04650775856039
  Cl  -0.73295056941736      1.67252550284958     -1.23445702603306
  H   0.61233439204329     -1.31858384517009      0.35913461189229
  N   -1.41932178752110      0.30252907274832      0.99549079727890
  O   -1.73121782292838      1.40510926505545      1.40665766867320
  O   -1.56374792575871     -0.77973420512307      1.55222449818659
  N   -1.51221914738957     -0.86752449319591     -1.10490527021257
  O   -0.92931732511108     -1.88306362341172     -1.45780095837617
  O   -2.68957146834695     -0.58396816085872     -1.26378210066109
  C   1.42765975650811      0.58939703579225      0.97759091895532
  H   0.91767600882017      0.54897528688980      1.94136318931749
  H   2.44804446440604      0.23173355736034      1.11959155513801
  H   1.46766236367474      1.62348006895593      0.63440168130199
  C   1.49788322344195     -0.39125334522813     -1.28350073406355
  N   2.17374915669915     -0.42456074272575     -2.24292221192834
