16
Coordinates from ORCA-job run
  C   -0.70043196347642      0.15682534433284     -0.33858179849792
  C   0.72996048648904     -0.29212799765017     -0.05325164741204
  Cl  -0.80451008454592      1.61077568421746     -1.27001781962402
  H   0.65392024431670     -1.28891792032316      0.39107983366904
  N   -1.40354523736198      0.30118541283394      1.02050482343802
  O   -1.49870330476006     -0.76324842042535      1.62069780927207
  O   -1.74651969613698      1.40714151268098      1.39592500132613
  N   -1.51590464534591     -0.94214674953670     -1.03559831741015
  O   -0.91691501480706     -1.95624791944604     -1.36482424466108
  O   -2.70307164070542     -0.69210366575459     -1.17663223847427
  C   1.43769656886778      0.65951180893283      0.91855505440238
  H   2.46787684713104      0.32793814018788      1.05216629825354
  H   0.94929525094053      0.64805596867305      1.89410111066948
  H   1.44946879744825      1.67948765259003      0.53371779921971
  C   1.47457944760259     -0.40215547730001     -1.30635542739207
  N   2.12780394434382     -0.45397337401300     -2.28048623677880
