17

C	-0.448775	0.00298	-1.474484
C	0.0	0.0	0.0
Cl	0.272404	-1.373419	-2.378413
H	1.096481	0.0	0.0
C	-1.911528	-0.120099	-1.569119
N	-3.082825	-0.217754	-1.591971
C	-0.054277	1.238197	-2.163206
N	0.244825	2.218479	-2.738804
C	-0.486726	-1.247473	0.725556
H	-1.57901	-1.275719	0.808173
H	-0.063788	-1.241565	1.732666
H	-0.141522	-2.158415	0.235254
C	-0.483309	1.269436	0.695718
H	-0.082733	2.166973	0.219917
H	-0.114028	1.258199	1.723762
H	-1.577209	1.334935	0.724164
Br	3.523867	0.0	0.0
