17

C	-0.448294	-0.004001	-1.474685
C	0.0	0.0	0.0
Cl	0.269347	1.374141	-2.378428
H	1.096471	0.0	0.0
C	-0.050319	-1.237951	-2.163261
N	0.249909	-2.217045	-2.739856
C	-1.911215	0.114926	-1.569906
N	-3.082815	0.207476	-1.593003
C	-0.482946	-1.269691	0.695329
H	-0.114065	-1.258393	1.723499
H	-0.081653	-2.166934	0.219501
H	-1.576819	-1.335695	0.723402
C	-0.487007	1.246768	0.726629
H	-0.14252	2.158168	0.236798
H	-0.06368	1.240522	1.733613
H	-1.579261	1.274517	0.809732
Br	3.525141	0.0	0.0
