17

C	-0.448084	-0.004751	-1.474713
C	0.0	0.0	0.0
Cl	0.268572	1.373536	-2.379122
H	1.096479	0.0	0.0
C	-0.048999	-1.238661	-2.162663
N	0.251627	-2.217705	-2.738863
C	-1.911079	0.112898	-1.570226
N	-3.082663	0.205412	-1.593559
C	-0.482933	-1.269473	0.695767
H	-0.113241	-1.258265	1.723618
H	-0.082405	-2.166931	0.219724
H	-1.576797	-1.335061	0.724631
C	-0.487118	1.247016	0.726098
H	-0.065326	1.240293	1.733722
H	-0.141204	2.158206	0.236872
H	-1.579505	1.275589	0.807664
Br	3.525748	0.0	0.0
