17

C	-0.448259	0.003786	-1.474487
C	0.0	0.0	0.0
Cl	0.271595	-1.374346	-2.376984
H	1.09648	0.0	0.0
C	-1.911056	-0.116425	-1.570758
N	-3.082478	-0.210818	-1.595478
C	-0.050646	1.238084	-2.1626
N	0.249134	2.217692	-2.738062
C	-0.486734	-1.247648	0.725317
H	-0.141938	-2.158534	0.23445
H	-0.063381	-1.242327	1.732285
H	-1.57901	-1.275519	0.808378
C	-0.483059	1.269851	0.695208
H	-0.113468	1.25891	1.723135
H	-1.576933	1.335601	0.723867
H	-0.082497	2.16716	0.21897
Br	3.524068	0.0	0.0
