17

C	-0.448513	0.008121	-1.474562
C	0.0	0.0	0.0
Cl	0.270073	-1.366196	-2.384144
H	1.096474	0.0	0.0
C	-1.911446	-0.111818	-1.569492
N	-3.083041	-0.20564	-1.592405
C	-0.052242	1.244897	-2.159266
N	0.244585	2.226459	-2.733528
C	-0.487404	-1.24926	0.721901
H	-0.142101	-2.159002	0.229436
H	-1.579722	-1.277388	0.803738
H	-0.065165	-1.246109	1.729288
C	-0.482779	1.267283	0.700129
H	-0.082103	2.166261	0.22719
H	-0.113229	1.252616	1.728058
H	-1.576655	1.333082	0.729006
Br	3.523591	0.0	0.0
