14

C	-0.495481	-0.01171	-1.450155
C	0.0	0.0	0.0
Br	0.239835	1.533281	-2.421939
H	1.093391	0.0	0.0
H	-0.338013	0.943084	0.441094
C	-0.097711	-1.225133	-2.166176
N	0.214582	-2.203125	-2.737668
C	-1.956561	0.104462	-1.509008
N	-3.128832	0.193866	-1.508891
C	-0.525684	-1.196716	0.784816
H	-1.618997	-1.227543	0.829392
H	-0.16123	-2.133048	0.355693
H	-0.139889	-1.138206	1.804607
Cl	3.407616	0.0	0.0
