14

C	-0.490436	-0.017885	-1.45396
C	0.0	0.0	0.0
Br	0.246482	-1.563546	-2.430896
H	1.093506	0.0	0.0
H	-0.334231	0.957498	0.418351
C	-1.951259	-0.129693	-1.528449
N	-3.124757	-0.19042	-1.567411
C	-0.086462	1.190669	-2.174108
N	0.179597	2.185692	-2.74019
C	-0.52566	-1.160098	0.831822
H	-0.120273	-1.070784	1.841731
H	-0.181825	-2.113777	0.428284
H	-1.617955	-1.174539	0.896479
Cl	3.402076	0.0	0.0
