14

C	-0.440703	-0.000822	-1.461895
C	0.0	0.0	0.0
Br	-2.433101	0.179414	-1.591111
H	1.095879	0.0	0.0
H	-0.336066	0.945938	0.435222
C	0.095427	1.138724	-2.203905
N	0.519276	2.051552	-2.810957
C	-0.114362	-1.249724	-2.149195
N	0.147272	-2.253642	-2.703049
C	-0.500707	-1.195243	0.794911
H	-0.132163	-2.128609	0.363033
H	-0.098093	-1.129558	1.807842
H	-1.5913	-1.236561	0.85448
Cl	3.363196	0.0	0.0
