14

C	-0.488327	-0.003575	-1.456716
C	0.0	0.0	0.0
Br	0.24603	1.528225	-2.453831
H	1.093507	0.0	0.0
H	-0.334913	-0.952121	0.429606
C	-0.071176	-1.219304	-2.158173
N	0.258202	-2.193651	-2.725869
C	-1.949999	0.098327	-1.532169
N	-3.123026	0.175473	-1.535524
C	-0.526181	1.170353	0.8168
H	-0.175261	2.118499	0.406669
H	-1.618803	1.18975	0.874643
H	-0.127661	1.088676	1.830326
Cl	3.407426	0.0	0.0
