14

C	-0.49548	0.010038	-1.450544
C	0.0	0.0	0.0
Br	0.240556	-1.535872	-2.419203
H	1.093403	0.0	0.0
H	-0.337978	-0.942608	0.441973
C	-1.956639	-0.106107	-1.508892
N	-3.128901	-0.196034	-1.507897
C	-0.096473	1.222171	-2.168349
N	0.21487	2.199315	-2.742381
C	-0.525875	1.197378	0.783683
H	-0.139564	1.140094	1.803332
H	-0.162011	2.133317	0.353434
H	-1.619023	1.227601	0.828765
Cl	3.407698	0.0	0.0
