14

C	-0.493207	-0.020227	-1.451096
C	0.0	0.0	0.0
Br	0.236725	1.524583	-2.426106
H	1.093417	0.0	0.0
H	-0.339373	0.944642	0.436356
C	-0.087089	-1.234088	-2.16338
N	0.231871	-2.210423	-2.73509
C	-1.955237	0.088683	-1.511932
N	-3.128041	0.172171	-1.50924
C	-0.524837	-1.194358	0.789167
H	-0.13982	-1.131345	1.808846
H	-1.617961	-1.226685	0.833442
H	-0.157386	-2.131604	0.364898
Cl	3.40925	0.0	0.0
