16

C	-0.61833	-0.051167	-1.410166
C	0.0	0.0	0.0
Br	0.2323	1.493684	-2.410961
H	1.087859	0.0	0.0
C	-0.30051	-1.218672	-2.229699
N	-0.175721	-2.128828	-2.962617
N	-2.023313	0.085964	-1.287671
H	-2.471778	0.153209	-2.191442
H	-2.198694	0.925818	-0.743638
N	-0.42466	-1.270395	0.716063
O	-0.045205	-2.322719	0.220746
O	-1.099677	-1.174348	1.740374
N	-0.499663	1.160495	0.690069
H	0.297502	1.688262	1.021025
H	-1.037732	0.851887	1.490081
Br	3.391552	0.0	0.0
