16

C	-0.594489	-0.159518	-1.408532
C	0.0	0.0	0.0
Br	0.540514	1.09817	-2.570362
H	1.103966	0.0	0.0
C	-0.351627	-1.486283	-1.969149
N	-0.248989	-2.571896	-2.408883
N	-1.958718	0.168912	-1.454577
H	-2.288497	0.327656	-2.394984
H	-2.129585	0.954905	-0.838961
N	-0.454082	-1.118533	0.900485
O	0.375589	-1.532012	1.707004
O	-1.622836	-1.498072	0.82176
N	-0.515739	1.240901	0.588261
H	-0.323562	1.199587	1.585172
H	0.091682	1.974212	0.230746
Br	3.509853	0.0	0.0
