16

C	-0.527018	-0.107247	-1.443321
C	0.0	0.0	0.0
Br	-0.318357	1.641487	-2.306521
H	1.107843	0.0	0.0
C	0.269885	-1.023306	-2.273981
N	0.812025	-1.758971	-3.013762
N	-1.950427	-0.415183	-1.434101
H	-2.04409	-1.410014	-1.246887
H	-2.336755	-0.233314	-2.353643
N	-0.360686	-1.318358	0.707459
O	-0.509443	-1.267899	1.923833
O	-0.431966	-2.34916	0.034891
N	-0.498704	1.122552	0.690329
H	0.044712	1.279873	1.526591
H	-1.479534	1.021966	0.913619
Br	3.427416	0.0	0.0
