16

C	-0.60608	0.008181	-1.41714
C	0.0	0.0	0.0
Br	0.214541	1.622112	-2.328553
H	1.09215	0.0	0.0
C	-0.239943	-1.106928	-2.286626
N	-0.035186	-1.959151	-3.06981
N	-2.013035	0.100452	-1.302885
H	-2.22054	0.900542	-0.713386
H	-2.456481	0.202144	-2.206784
N	-0.4253	-1.305891	0.644969
O	-1.15125	-1.266578	1.638471
O	-0.002312	-2.32943	0.122187
N	-0.514869	1.121846	0.740931
H	0.276785	1.645981	1.092633
H	-1.050108	0.769711	1.527082
Br	3.394958	0.0	0.0
