16

C	-0.622668	0.066716	-1.407632
C	0.0	0.0	0.0
Br	0.192878	1.71236	-2.26934
H	1.100405	0.0	0.0
C	-0.278617	-1.0104	-2.333189
N	-0.110345	-1.83334	-3.153573
N	-2.02866	0.163422	-1.267527
H	-2.48636	0.314328	-2.156692
H	-2.213022	0.937604	-0.635866
N	-0.423933	-1.322265	0.61025
O	-1.050551	-1.310463	1.670301
O	-0.094391	-2.331611	0.001348
N	-0.503834	1.098694	0.786351
H	-0.981961	0.7195	1.596024
H	0.29415	1.635057	1.106719
Br	3.382547	0.0	0.0
