16

C	-0.406506	-0.004984	-1.492514
C	0.0	0.0	0.0
Br	-0.177235	-1.79498	-2.259236
H	1.091416	0.0	0.0
C	-1.816786	0.362964	-1.662771
N	-2.935325	0.703898	-1.785455
N	0.425481	0.911061	-2.238415
H	0.304869	1.821245	-1.799214
H	1.397057	0.639709	-2.06982
N	-0.553923	-1.18956	0.738216
O	0.20165	-2.105526	1.041594
O	-1.765308	-1.149598	0.983684
N	-0.443286	1.237662	0.564806
H	0.156568	1.49397	1.339182
H	-1.40868	1.175469	0.866036
Br	3.443216	0.0	0.0
