12

C	-0.488262	0.020876	-1.457125
C	0.020739	0.048103	-0.003492
Br	0.299212	-1.527091	-2.367945
H	1.113053	0.089282	-0.000953
H	-0.266967	-0.889656	0.479599
C	-1.944394	-0.135123	-1.512566
N	-3.112681	-0.266236	-1.528595
C	-0.110756	1.23134	-2.188244
N	0.135386	2.212963	-2.786171
C	-0.567961	1.175681	0.709191
N	-1.057809	2.081461	1.274512
Cl	3.238957	-0.262879	0.01615
