12

C	-0.276245	-0.02013	-1.398631
C	-0.064398	-0.013128	0.124445
Br	-2.250148	0.06385	-1.736169
H	1.022089	-0.050269	0.255679
H	-0.451467	0.928365	0.522738
C	0.265101	1.187661	-2.021658
N	0.477122	2.22074	-2.542556
C	0.178782	-1.252463	-2.037491
N	0.359648	-2.285833	-2.568798
C	-0.714881	-1.135144	0.787029
N	-1.22195	-2.029102	1.355006
Cl	2.841755	-0.036561	-1.057964
