12

C	-0.276508	-0.011663	-1.398132
C	-0.063659	-0.016351	0.124941
Br	-2.250283	0.07212	-1.73445
H	1.023004	-0.057921	0.254799
H	-0.447463	0.923309	0.530596
C	0.262954	1.20105	-2.013299
N	0.476303	2.233989	-2.53387
C	0.181003	-1.238223	-2.0463
N	0.364508	-2.266906	-2.585742
C	-0.717083	-1.141098	0.779991
N	-1.225473	-2.036438	1.344627
Cl	2.843871	-0.020747	-1.052706
