12

C	-0.458925	0.216536	-1.414488
C	-0.007421	0.045223	0.045597
Br	0.182866	1.933449	-2.116397
H	1.095689	0.092215	0.0667
H	-0.29466	-0.958648	0.376614
C	0.066423	-0.860158	-2.256326
N	0.389612	-1.750875	-2.951818
C	-1.920564	0.218873	-1.528976
N	-3.094324	0.198289	-1.594558
C	-0.620302	1.040959	0.912432
N	-1.11783	1.829696	1.626568
Cl	3.161005	-0.231547	-0.301146
