12

C	-0.49004	0.010753	-1.458309
C	0.018732	-0.047847	-0.005407
Br	0.302825	1.574456	-2.336809
H	1.11088	-0.092547	-0.003804
H	-0.265681	0.880945	0.496594
C	-0.116469	-1.185888	-2.213675
N	0.127447	-2.155983	-2.830931
C	-1.945629	0.172699	-1.510444
N	-3.113403	0.308744	-1.521482
C	-0.573815	-1.187556	0.684267
N	-1.065796	-2.103417	1.231179
Cl	3.237394	0.256569	0.02223
