12

C	-0.475692	0.348669	-1.429522
C	0.017714	0.05304	-0.00104
Br	0.321013	-0.962435	-2.651617
H	1.124609	0.088292	0.021314
H	-0.275081	-0.967376	0.260794
C	-1.931214	0.212235	-1.533359
N	-3.099199	0.087803	-1.585421
C	-0.089804	1.689432	-1.871744
N	0.168098	2.777682	-2.233419
C	-0.574986	0.997928	0.937141
N	-1.066927	1.758289	1.685481
Cl	3.23386	-0.255044	-0.014529
