19

C	-0.22074	0.082811	-1.500854
C	0.0	0.0	0.0
Cl	-1.901411	0.637309	-1.993725
H	1.098082	0.0	0.0
N	0.744001	0.925201	-2.047457
H	1.653275	0.735718	-1.588094
H	0.815829	0.833859	-3.051471
N	-0.156768	-1.364329	-2.125015
O	-1.084301	-2.139102	-1.919892
O	0.861354	-1.632842	-2.75685
C	-0.542602	-1.220007	0.717704
H	-0.327949	-1.106844	1.784793
H	-1.623158	-1.332007	0.588425
H	-0.056428	-2.138801	0.386149
C	-0.439777	1.293489	0.674366
H	-1.523112	1.321117	0.831875
H	0.061297	1.363425	1.644739
H	-0.146912	2.159584	0.079912
H	2.841753	0.0	0.0
