19

C	-0.586661	0.013941	-1.392884
C	0.0	0.0	0.0
Cl	0.262577	-1.252982	-2.44096
H	1.090973	0.0	0.0
N	-1.992965	-0.133702	-1.422428
H	-2.336382	-0.056781	-2.37188
H	-2.24241	-1.028986	-1.026173
N	-0.273326	1.305834	-2.155192
O	-1.0813	1.646596	-3.020612
O	0.773085	1.875822	-1.896486
C	-0.417334	-1.271418	0.737955
H	-0.222642	-2.167609	0.14392
H	0.201056	-1.34743	1.636692
H	-1.470644	-1.257457	1.047043
C	-0.452451	1.230043	0.788031
H	-0.036898	2.144713	0.363264
H	-1.54303	1.313539	0.838271
H	-0.053938	1.145573	1.803157
H	2.912252	0.0	0.0
