19

C	-0.577952	-0.024255	-1.411122
C	0.0	0.0	0.0
Cl	0.223168	-1.276235	-2.38512
H	1.094488	0.0	0.0
N	-2.003216	-0.220495	-1.560908
H	-2.226822	-1.132408	-1.181126
H	-2.480575	0.488422	-1.016344
N	-0.289244	1.336465	-2.065444
O	0.786468	1.522387	-2.609057
O	-1.171922	2.182131	-1.911427
C	-0.420498	-1.252388	0.763583
H	0.190499	-1.309424	1.668057
H	-1.476477	-1.237346	1.060803
H	-0.222308	-2.160885	0.190578
C	-0.402549	1.249368	0.779054
H	0.007877	1.151031	1.787822
H	0.037155	2.150765	0.348734
H	-1.487394	1.391169	0.862245
H	2.890433	0.0	0.0
