19

C	-0.543918	-0.003438	-1.426653
C	0.0	0.0	0.0
Cl	0.252009	-1.272204	-2.385552
H	1.094485	0.0	0.0
N	-1.968312	-0.159264	-1.620753
H	-2.230718	-1.062697	-1.246793
H	-2.442599	0.566944	-1.096568
N	-0.197148	1.350812	-2.064262
O	-1.059715	2.221179	-1.929581
O	0.898494	1.507606	-2.577451
C	-0.439124	-1.258044	0.741064
H	-1.507556	-1.252406	0.994093
H	-0.20969	-2.162146	0.172825
H	0.13253	-1.313986	1.671759
C	-0.41519	1.244499	0.779932
H	-0.038989	1.1343	1.800867
H	0.042946	2.146843	0.371701
H	-1.501391	1.39275	0.830136
H	2.894461	0.0	0.0
