19

C	-0.191128	-0.021289	-1.510697
C	0.0	0.0	0.0
Cl	-0.30072	1.721788	-2.215319
H	1.099337	0.0	0.0
N	0.814993	-0.779709	-2.074429
H	0.844459	-0.752023	-3.082088
H	1.72215	-0.581129	-1.613732
N	-1.561596	-0.55504	-1.975261
O	-1.596805	-1.197152	-3.02223
O	-2.53403	-0.290532	-1.274802
C	-0.434765	-1.333812	0.605146
H	-1.512042	-1.369709	0.79199
H	-0.154995	-2.167083	-0.042587
H	0.094474	-1.46536	1.552882
C	-0.544055	1.181779	0.77608
H	-0.061296	2.111302	0.474127
H	-1.626586	1.284663	0.65922
H	-0.320324	1.024243	1.836574
H	2.876809	0.0	0.0
