19

C	-0.441808	-0.026854	-1.419843
C	0.0	0.0	0.0
Cl	-2.358641	-0.576219	-1.509204
H	1.094585	0.0	0.0
N	-0.259853	1.142107	-2.132582
H	-0.712885	1.930171	-1.696944
H	-0.513671	1.035961	-3.105007
N	0.176557	-1.145242	-2.258148
O	0.082497	-1.022684	-3.479064
O	0.723926	-2.0721	-1.680192
C	-0.475094	-1.163033	0.862398
H	0.171585	-1.200298	1.74368
H	-1.512254	-1.027609	1.184146
H	-0.390849	-2.118266	0.350202
C	-0.383971	1.324656	0.655053
H	-0.121692	1.271004	1.714478
H	-1.45788	1.537445	0.580775
H	0.197975	2.148436	0.234042
H	2.756315	0.0	0.0
