15

C	-0.537744	0.001582	-1.421306
C	0.0	0.0	0.0
Br	0.162739	1.561688	-2.390457
H	1.092911	0.0	0.0
H	-0.340926	0.933985	0.456748
C	-0.090927	-1.184954	-2.172426
N	0.164284	-2.193435	-2.721165
N	-1.988608	0.12427	-1.431764
H	-2.323735	0.103965	-2.389007
H	-2.375554	-0.681127	-0.950096
C	-0.480291	-1.205465	0.808493
H	0.024849	-1.195454	1.776241
H	-0.20946	-2.14361	0.316828
H	-1.558892	-1.198174	0.997689
Br	3.641159	0.0	0.0
