15

C	-0.306184	-0.057885	-1.490436
C	0.0	0.0	0.0
Br	-2.228559	-0.617008	-1.780557
H	1.098133	0.0	0.0
H	-0.315808	-0.958597	0.420806
C	-0.256843	1.27143	-2.12041
N	-0.176588	2.327311	-2.632959
N	0.545822	-1.025639	-2.101931
H	0.578327	-0.921716	-3.108095
H	1.48693	-0.936425	-1.710696
C	-0.588155	1.175708	0.754141
H	-0.194302	2.121242	0.376251
H	-0.312181	1.103626	1.808138
H	-1.679207	1.197061	0.683865
Br	3.559802	0.0	0.0
