15

C	-0.333824	0.072384	-1.496696
C	0.0	0.0	0.0
Br	-0.150824	-1.759553	-2.250036
H	1.095152	0.0	0.0
H	-0.386317	-0.91723	0.447488
C	-1.730882	0.456035	-1.737987
N	-2.849941	0.793724	-1.867356
N	0.542817	0.933441	-2.257326
H	0.327909	1.899214	-2.034886
H	1.499414	0.747435	-1.948937
C	-0.48174	1.232089	0.760448
H	-1.572615	1.298033	0.806039
H	-0.091543	1.19468	1.780022
H	-0.095919	2.149803	0.30901
Br	3.591591	0.0	0.0
