15

C	-0.425273	-0.042856	-1.456322
C	0.0	0.0	0.0
Br	-2.466582	-0.788839	-1.439742
H	1.095306	0.0	0.0
H	-0.309133	-0.951143	0.443656
C	-0.663373	1.255001	-2.08316
N	-0.826392	2.30523	-2.584557
N	0.403804	-0.824233	-2.217035
H	0.153189	-1.014313	-3.172595
H	0.933071	-1.533541	-1.733048
C	-0.553636	1.166803	0.797648
H	-0.200004	1.092612	1.828124
H	-0.194654	2.116616	0.396795
H	-1.646624	1.174867	0.802712
Br	3.58711	0.0	0.0
