15

C	-0.337015	0.309765	-1.456853
C	0.0	0.0	0.0
Br	-0.128311	-1.421761	-2.580304
H	1.093027	0.0	0.0
H	-0.310913	0.896834	0.549788
C	-1.750866	0.633187	-1.672201
N	-2.88408	0.912873	-1.81582
N	0.502896	1.338371	-1.908541
H	1.470524	1.154428	-1.639424
H	0.425843	1.514386	-2.900598
C	-0.613833	-1.242925	0.612017
H	-1.700885	-1.26761	0.483448
H	-0.397587	-1.25535	1.682918
H	-0.190081	-2.145896	0.174971
Br	3.584216	0.0	0.0
