12

C	-0.459495	0.005713	-1.44227
C	0.0	0.0	0.0
F	-0.210118	-1.217039	-2.062972
H	1.094011	0.0	0.0
H	0.096067	0.779179	-1.977901
H	-0.411673	-0.887169	0.499206
C	-1.909521	0.270034	-1.569787
N	-3.068357	0.446181	-1.642575
N	-0.420217	1.278662	0.589335
H	0.364975	1.624563	1.12569
H	-1.211873	1.168679	1.206403
F	2.677648	0.0	0.0
