15

C	-0.473115	-0.077584	-1.43775
C	0.0	0.0	0.0
F	-0.304722	1.177334	-2.054516
H	1.09551	0.0	0.0
H	-1.554317	-0.273681	-1.484223
H	-0.312755	-0.929813	0.492532
C	0.305638	-1.092945	-2.243905
H	0.140365	-2.097495	-1.844966
H	1.370847	-0.86648	-2.169341
H	-0.004849	-1.074796	-3.291599
C	-0.553297	1.203668	0.74936
H	-0.202788	2.126954	0.288165
H	-1.649749	1.215071	0.748344
H	-0.211427	1.197401	1.786698
Cl	3.668765	0.0	0.0
