15

C	-0.501475	0.064852	-1.426762
C	0.0	0.0	0.0
F	-0.166858	-1.132052	-2.077214
H	1.094284	0.0	0.0
H	0.02309	0.861936	-1.966329
H	-0.343468	-0.945619	0.434833
C	-2.002433	0.231723	-1.570269
H	-2.286534	0.131728	-2.620552
H	-2.329224	1.21108	-1.21502
H	-2.521073	-0.541336	-0.996178
C	-0.473635	1.182849	0.843414
H	0.036045	1.173824	1.80877
H	-1.552351	1.171418	1.026698
H	-0.219652	2.130515	0.358054
Cl	3.672468	0.0	0.0
