17

C	0.0	0.0	0.0
C	-0.65775	0.028021	-1.369475
F	1.413826	0.0	0.0
H	-1.751892	-0.101328	-1.075724
N	-0.414649	1.187913	0.664493
H	0.015183	1.227572	1.579877
H	-0.130612	1.979772	0.099529
C	-0.44854	-1.225378	0.7631
H	-1.545528	-1.199715	0.799321
H	-0.036157	-1.195305	1.776621
H	-0.091182	-2.13502	0.272712
C	-0.213838	-1.076023	-2.212084
N	0.126468	-1.948399	-2.925234
N	-0.516854	1.330058	-2.031782
H	-1.445792	1.647341	-2.283657
H	0.044363	1.258118	-2.869537
H	-3.293588	0.0	0.0
