17

C	0.0	0.0	0.0
C	-0.667459	0.038336	-1.358682
F	1.427478	0.0	0.0
H	-1.773195	-0.00368	-1.033352
N	-0.401089	1.180222	0.690023
H	0.213823	1.322929	1.480505
H	-0.345694	1.964029	0.051285
C	-0.42762	-1.234888	0.757237
H	-1.524281	-1.224781	0.783118
H	-0.051439	-2.140344	0.274509
H	-0.02931	-1.188007	1.774649
C	-0.338515	-1.127531	-2.173828
N	-0.112032	-2.039227	-2.882217
N	-0.436521	1.300551	-2.061083
H	0.405154	1.241315	-2.62472
H	-1.225244	1.481965	-2.675107
H	-3.221202	0.0	0.0
