17

C	0.0	0.0	0.0
C	-0.379517	-0.009305	-1.50092
F	1.418932	0.0	0.0
H	0.241547	-0.794059	-1.953322
N	-0.478438	1.179487	0.614021
H	-0.454026	1.127594	1.623095
H	0.014025	1.99811	0.282108
C	-0.516272	-1.224854	0.709993
H	-0.109498	-1.256503	1.725745
H	-1.609204	-1.1623	0.742789
H	-0.202041	-2.130953	0.185596
C	0.090758	1.261664	-2.094504
N	0.466855	2.282563	-2.536703
N	-1.768265	-0.237952	-1.830533
H	-1.936348	-1.237837	-1.851545
H	-2.445326	0.102825	-1.100057
H	-3.748822	0.0	0.0
