17

C	0.0	0.0	0.0
C	-0.310498	-0.103791	-1.518838
F	1.386371	0.0	0.0
H	0.411612	-0.855816	-1.869916
N	-0.502214	1.229272	0.538203
H	-1.522373	1.182496	0.416822
H	-0.336396	1.227975	1.541187
C	-0.449695	-1.248708	0.735241
H	-0.058903	-1.205865	1.758568
H	-0.069239	-2.150876	0.249543
H	-1.541597	-1.266847	0.759095
C	0.100065	1.156001	-2.172609
N	0.406122	2.115018	-2.779527
N	-1.658741	-0.531286	-1.851228
H	-1.969814	-0.051922	-2.688369
H	-2.356392	-0.280953	-1.099837
H	-3.38032	0.0	0.0
