18

C	-0.609845	-0.033469	-1.407416
C	0.0	0.0	0.0
Br	0.407634	-1.081384	-2.681372
H	1.088264	0.0	0.0
N	-1.937774	-0.50223	-1.388835
H	-2.370016	-0.417663	-2.299176
H	-2.488166	-0.005679	-0.698982
N	-0.510505	1.441092	-1.93297
O	-1.585869	2.023125	-2.09122
O	0.600194	1.918241	-2.09887
N	-0.436267	-1.275738	0.661571
O	0.129377	-2.304879	0.3148
O	-1.352851	-1.214775	1.485994
C	-0.456224	1.19818	0.81881
H	-1.537709	1.345079	0.83462
H	-0.114837	1.059525	1.844491
H	0.035381	2.09004	0.428871
Cl	3.289267	0.0	0.0
