18

C	-0.494708	0.051191	-1.432147
C	0.0	0.0	0.0
Br	-2.533268	-0.257269	-1.493355
H	1.0929	0.0	0.0
N	-0.154574	1.252975	-2.052615
H	-0.425051	1.241771	-3.02781
H	-0.527331	2.059319	-1.575315
N	0.094935	-1.029169	-2.34735
O	0.894986	-1.813319	-1.868591
O	-0.248101	-0.955846	-3.524626
N	-0.426751	-1.237025	0.736073
O	-0.840866	-2.201887	0.099204
O	-0.28707	-1.217548	1.957379
C	-0.409766	1.23463	0.78905
H	0.147896	2.094904	0.416142
H	-0.109796	1.089452	1.824075
H	-1.486526	1.419088	0.744281
Cl	3.235257	0.0	0.0
