18

C	-0.396667	0.015445	-1.462377
C	0.0	0.0	0.0
Br	-2.350027	0.077865	-1.790054
H	1.094068	0.0	0.0
N	0.204633	1.138905	-2.071596
H	1.224217	1.066659	-1.930043
H	-0.027528	1.178677	-3.065287
N	0.087938	-1.333365	-2.121003
O	-0.651215	-2.312398	-2.116419
O	1.213508	-1.260463	-2.64151
N	-0.409423	-1.28533	0.652104
O	0.35331	-2.248601	0.526551
O	-1.458283	-1.297321	1.319874
C	-0.532568	1.1731	0.787697
H	-0.219656	2.097875	0.304576
H	-1.619307	1.139063	0.86157
H	-0.104588	1.140434	1.791936
Cl	3.129915	0.0	0.0
