18

C	-0.418025	-0.001296	-1.472458
C	0.0	0.0	0.0
Br	0.358508	1.604711	-2.305613
H	1.091802	0.0	0.0
N	-0.033515	-1.133343	-2.227218
H	0.903366	-1.431906	-1.988703
H	-0.707458	-1.881274	-2.136123
N	-1.941157	0.158769	-1.644972
O	-2.570142	-0.847052	-1.97038
O	-2.433695	1.209146	-1.252792
N	-0.395173	-1.354006	0.515932
O	0.500414	-2.173425	0.711874
O	-1.592642	-1.554473	0.746461
C	-0.554732	1.067093	0.914057
H	-1.635876	0.993336	1.036865
H	-0.07567	0.961855	1.892297
H	-0.309876	2.054075	0.52165
Cl	2.696456	0.0	0.0
