18

C	-0.494688	0.015112	-1.432817
C	0.0	0.0	0.0
Br	0.315015	-1.600302	-2.366862
H	1.086872	0.0	0.0
N	-1.868489	0.136444	-1.608124
H	-2.143683	0.167773	-2.579957
H	-2.359074	-0.568213	-1.073783
N	0.146394	1.180661	-2.207495
O	-0.432355	1.526776	-3.233783
O	1.18558	1.651267	-1.774444
N	-0.407591	-1.27985	0.664781
O	-1.595467	-1.625563	0.603219
O	0.462204	-1.900427	1.26456
C	-0.570827	1.142238	0.816751
H	-0.253382	2.093155	0.385295
H	-0.166858	1.087422	1.831392
H	-1.662021	1.114375	0.854551
Cl	2.705183	0.0	0.0
