18

C	-0.539044	-0.004978	-1.429152
C	0.0	0.0	0.0
Br	0.25152	1.408687	-2.516974
H	1.093705	0.0	0.0
N	-0.063035	-1.311055	-2.141464
O	0.935486	-1.875595	-1.719964
O	-0.748297	-1.679416	-3.095355
N	-1.947645	0.08455	-1.463165
H	-2.282387	-0.62541	-0.815056
H	-2.280893	-0.121773	-2.397543
N	-0.543005	-1.226821	0.620383
H	0.178557	-1.937651	0.562495
H	-0.69927	-1.048264	1.605591
C	-0.484551	1.224234	0.758961
H	-1.572521	1.220677	0.865958
H	-0.1848	2.141431	0.252815
H	-0.016547	1.223556	1.747629
Br	3.630894	0.0	0.0
