18

C	-0.41797	-0.006135	-1.465401
C	0.0	0.0	0.0
Br	-2.547161	0.364826	-1.528314
H	1.094675	0.0	0.0
N	0.052778	1.160548	-2.318179
O	0.420061	2.180723	-1.753261
O	0.019177	0.98365	-3.532844
N	-0.083006	-1.160904	-2.08978
H	-0.339982	-1.238253	-3.060627
H	-0.231272	-1.958641	-1.48529
N	-0.374732	-1.323587	0.523226
H	0.357173	-1.62579	1.155666
H	-1.245697	-1.256794	1.037592
C	-0.489207	1.139359	0.878346
H	0.033432	1.058358	1.83501
H	-1.56595	1.067663	1.051812
H	-0.262598	2.112483	0.450181
Br	3.505463	0.0	0.0
