18

C	-0.349347	-0.054086	-1.494852
C	0.0	0.0	0.0
Br	-2.276419	-0.389048	-1.738923
H	1.096937	0.0	0.0
N	-0.026099	1.302132	-2.120693
O	-0.870574	2.191292	-2.089847
O	1.122169	1.419089	-2.531984
N	0.372137	-1.049069	-2.218025
H	1.360688	-0.805622	-2.128173
H	0.236115	-1.904414	-1.684461
N	-0.37236	-1.296964	0.564078
H	-1.281952	-1.241922	1.006713
H	0.318047	-1.547752	1.261254
C	-0.526036	1.203979	0.760771
H	-0.194939	1.124297	1.799563
H	-0.137066	2.142298	0.362859
H	-1.619734	1.243001	0.73568
Br	3.540571	0.0	0.0
