18

C	-0.415282	-0.008887	-1.465392
C	0.0	0.0	0.0
Br	-2.560457	0.363049	-1.526118
H	1.094654	0.0	0.0
N	0.041311	1.15965	-2.320832
O	0.372727	2.194519	-1.761078
O	0.034139	0.97167	-3.533345
N	-0.085414	-1.161287	-2.088374
H	-0.223758	-1.961393	-1.484256
H	-0.321146	-1.236739	-3.064
N	-0.372587	-1.32327	0.525117
H	0.364464	-1.627012	1.150303
H	-1.239135	-1.257006	1.046388
C	-0.489159	1.139232	0.877768
H	0.024541	1.050728	1.838802
H	-1.568042	1.074742	1.04084
H	-0.25194	2.111899	0.454485
Br	3.495116	0.0	0.0
