18

C	-0.627444	0.029332	-1.399815
C	0.0	0.0	0.0
Br	0.245829	1.362086	-2.512567
H	1.094561	0.0	0.0
N	-0.347214	-1.34063	-2.047714
O	0.811305	-1.729438	-1.991838
O	-1.292414	-1.953698	-2.530608
N	-2.038869	0.235429	-1.45755
H	-2.453574	-0.418219	-0.798422
H	-2.238164	1.18206	-1.162573
N	-0.54001	-1.223248	0.625741
H	-0.588014	-1.077901	1.627614
H	0.141782	-1.962394	0.481848
C	-0.431225	1.2153	0.808345
H	0.147396	1.233861	1.73493
H	-1.496224	1.175695	1.0592
H	-0.216354	2.142897	0.275402
Br	3.634432	0.0	0.0
