18

C	-0.246997	0.109395	-1.509703
C	0.0	0.0	0.0
Br	-0.308929	-1.77703	-2.360229
H	1.105269	0.0	0.0
N	-1.627207	0.622037	-1.918057
O	-1.69132	1.276853	-2.956354
O	-2.575601	0.340019	-1.196742
N	0.712632	0.927791	-2.064965
H	1.655566	0.710103	-1.736424
H	0.642167	1.04489	-3.063429
N	-0.585116	-1.168774	0.642294
H	-0.457697	-1.041442	1.641106
H	-0.030809	-1.979292	0.387818
C	-0.462963	1.268649	0.707602
H	0.041098	1.328582	1.676372
H	-1.543218	1.247737	0.863943
H	-0.183853	2.155169	0.136508
Br	3.572878	0.0	0.0
