18

C	-0.587692	0.065974	-1.407151
C	0.0	0.0	0.0
Br	0.474189	1.372356	-2.518164
H	1.098723	0.0	0.0
N	-0.363187	-1.256157	-2.137276
O	-1.212813	-1.579294	-2.965863
O	0.654207	-1.872957	-1.878548
N	-1.969899	0.329519	-1.427982
H	-2.339822	0.162627	-2.356954
H	-2.144963	1.284376	-1.148095
N	-0.487122	-1.251358	0.589948
H	-0.98921	-1.070072	1.447221
H	0.315548	-1.830034	0.80306
C	-0.432974	1.215439	0.810297
H	0.115873	1.209045	1.754812
H	-0.189143	2.148155	0.29656
H	-1.507145	1.185964	1.028312
Br	3.611273	0.0	0.0
