13

C	0.0	0.0	0.0
C	-0.587733	0.028169	-1.421006
Cl	1.773091	0.0	0.0
H	-1.640556	-0.273547	-1.279388
H	-0.336786	-0.909101	0.50152
C	-0.434312	1.163378	0.774357
N	-0.65044	2.117239	1.423975
C	0.075654	-0.959546	-2.268787
N	0.569625	-1.746337	-2.987793
N	-0.468015	1.372725	-1.987761
H	-0.510754	1.316958	-2.998253
H	-1.296175	1.878411	-1.682987
Br	-3.605633	0.0	0.0
