15

C	-0.503798	-0.015779	-1.442228
C	0.0	0.0	0.0
F	-0.365213	1.263194	-1.985661
H	1.104229	0.0	0.0
H	-1.57855	-0.241369	-1.445201
C	0.276583	-0.997941	-2.281743
H	-0.070953	-0.96609	-3.317625
H	1.338599	-0.745915	-2.237806
H	0.138827	-2.003933	-1.884053
N	-0.411119	-1.249094	0.654803
H	0.329818	-1.530232	1.286166
H	-1.254632	-1.109755	1.197837
C	-0.493976	1.188661	0.70758
N	-0.965166	2.078725	1.313182
Br	3.52512	0.0	0.0
