15

C	-0.386561	-0.02475	-1.4703
C	0.0	0.0	0.0
F	-1.774152	0.036487	-1.620982
H	1.103028	0.0	0.0
H	-0.071012	-0.994932	-1.872866
C	0.254241	1.103023	-2.244092
H	1.33749	1.071054	-2.105116
H	0.015756	1.012183	-3.306081
H	-0.12269	2.062879	-1.883789
N	-0.543682	-1.172962	0.711286
H	-0.049964	-1.978278	0.333813
H	-0.23113	-1.10519	1.675772
C	-0.49616	1.221949	0.6344
N	-0.896372	2.201002	1.143878
Br	3.524885	0.0	0.0
