15

C	-0.498269	-0.07527	-1.443614
C	0.0	0.0	0.0
F	0.032961	-1.221952	-2.019421
H	1.097464	0.0	0.0
H	-0.093489	0.778576	-1.998091
C	-2.004069	-0.153743	-1.557642
H	-2.474603	0.753135	-1.170131
H	-2.353065	-1.017385	-0.989734
H	-2.291912	-0.278723	-2.603774
N	-0.458876	-1.157292	0.77958
H	-1.107286	-0.878494	1.503687
H	0.354758	-1.565648	1.223501
C	-0.448672	1.267319	0.586781
N	-0.84755	2.253355	1.08668
Br	3.502946	0.0	0.0
