15

C	-0.437295	-0.077673	-1.46734
C	0.0	0.0	0.0
F	-0.223628	1.160199	-2.071162
H	1.097697	0.0	0.0
H	-1.521643	-0.259855	-1.518092
C	0.344999	-1.124426	-2.228367
H	1.41361	-0.934446	-2.106373
H	0.080139	-1.086979	-3.287427
H	0.119699	-2.123904	-1.851306
N	-0.406399	-1.170465	0.776906
H	0.32424	-1.866308	0.718297
H	-1.274916	-1.56215	0.432863
C	-0.544171	1.215082	0.616614
N	-1.051841	2.153411	1.105318
Br	3.522883	0.0	0.0
