15

C	-0.422193	0.036809	-1.478084
C	0.0	0.0	0.0
F	-0.050885	-1.185977	-2.040313
H	1.097266	0.0	0.0
H	0.162195	0.811656	-1.983989
C	-1.903512	0.22654	-1.727376
H	-2.106455	0.159482	-2.798454
H	-2.236219	1.20037	-1.364655
H	-2.485191	-0.552355	-1.227588
N	-0.436827	-1.17334	0.747154
H	-1.359058	-1.470981	0.450791
H	0.218961	-1.916724	0.541057
C	-0.478088	1.226617	0.649054
N	-0.896632	2.218353	1.11916
Br	3.508247	0.0	0.0
