18

C	-0.485615	-0.206309	-1.453381
C	0.0	0.0	0.0
F	-0.120395	-1.507087	-1.804454
H	1.107016	0.0	0.0
C	-1.99041	-0.115475	-1.611429
H	-2.490963	-0.848231	-0.977781
H	-2.352619	0.878933	-1.345559
H	-2.244907	-0.319803	-2.653994
C	0.278372	0.74741	-2.349224
H	1.350733	0.615596	-2.187929
H	0.011902	1.784587	-2.133457
H	0.031794	0.529127	-3.391481
N	-0.503096	-1.117638	0.864002
O	0.198508	-2.117271	0.938416
O	-1.606809	-0.970899	1.395946
C	-0.485823	1.270261	0.519947
N	-0.862473	2.320284	0.888328
Br	3.424072	0.0	0.0
