18

C	-0.393767	-0.00761	-1.485322
C	0.0	0.0	0.0
F	-1.796744	-0.029602	-1.572772
H	1.107467	0.0	0.0
C	0.106398	1.280243	-2.111755
H	-0.381468	2.144546	-1.658433
H	1.187462	1.358749	-1.968611
H	-0.120651	1.271309	-3.180424
C	0.147172	-1.222904	-2.209629
H	-0.338423	-2.134014	-1.862612
H	1.222171	-1.306649	-2.035143
H	-0.046659	-1.106375	-3.27889
N	-0.488175	-1.233398	0.698447
O	-1.48049	-1.136302	1.420631
O	0.133903	-2.268708	0.478304
C	-0.519963	1.172358	0.690369
N	-0.906093	2.153573	1.20722
Br	3.381994	0.0	0.0
