18

C	-0.492869	-0.015112	-1.468788
C	0.0	0.0	0.0
F	-0.304868	1.3138	-1.887484
H	1.107672	0.0	0.0
C	0.378262	-0.869992	-2.363011
H	0.103016	-0.672367	-3.402798
H	0.242319	-1.927316	-2.144902
H	1.426468	-0.60969	-2.203981
C	-1.977866	-0.294877	-1.593002
H	-2.205059	-1.32678	-1.325806
H	-2.546648	0.383265	-0.952315
H	-2.281108	-0.124125	-2.62839
N	-0.376197	-1.237495	0.765329
O	-0.417097	-2.296284	0.142292
O	-0.55512	-1.125509	1.974202
C	-0.521582	1.159108	0.710559
N	-0.974361	2.102435	1.243071
Br	3.3712	0.0	0.0
