18

C	-0.388674	0.014658	-1.487111
C	0.0	0.0	0.0
F	-1.79125	0.014475	-1.581267
H	1.108447	0.0	0.0
C	0.134604	1.299991	-2.098026
H	-0.334323	2.168607	-1.631777
H	-0.095796	1.309587	-3.165957
H	1.217499	1.355626	-1.957093
C	0.13652	-1.203789	-2.21773
H	-0.365031	-2.109633	-1.878807
H	1.209368	-1.305313	-2.039773
H	-0.051369	-1.077783	-3.286914
N	-0.492108	-1.245026	0.672769
O	-1.518689	-1.170936	1.348512
O	0.157653	-2.267476	0.473566
C	-0.525023	1.159842	0.706621
N	-0.920244	2.127531	1.24251
Br	3.385204	0.0	0.0
