18

C	-0.48448	0.201279	-1.45409
C	0.0	0.0	0.0
F	-0.092488	-0.936707	-2.159314
H	1.106987	0.0	0.0
C	-1.991975	0.299337	-1.582316
H	-2.247006	0.414595	-2.638578
H	-2.470813	-0.605149	-1.203834
H	-2.378478	1.156022	-1.027455
C	0.255119	1.387238	-2.040275
H	-0.046411	2.316979	-1.552259
H	0.022163	1.456491	-3.106014
H	1.330468	1.24657	-1.907428
N	-0.503224	-1.311093	0.525737
O	-1.592247	-1.310844	1.106335
O	0.184022	-2.297403	0.29662
C	-0.487167	1.080126	0.845985
N	-0.868238	1.991176	1.482123
Br	3.418831	0.0	0.0
