17

C	-0.294035	0.051198	-1.455263
C	0.0	0.0	0.0
Br	-2.224221	0.248379	-1.960936
H	1.097438	0.0	0.0
H	0.20123	0.896143	-1.927149
N	0.200185	-1.14714	-2.220628
O	-0.291708	-2.244797	-1.975056
O	1.078589	-0.930418	-3.05251
C	-0.55274	-1.184383	0.768354
H	-0.128546	-2.124015	0.416546
H	-0.274478	-1.069746	1.820104
H	-1.646349	-1.25203	0.704882
C	-0.382069	1.326477	0.643906
H	0.02956	2.16526	0.074575
H	0.068242	1.367007	1.639506
H	-1.466574	1.462717	0.738707
F	2.585437	0.0	0.0
