18

C	0.0	0.0	0.0
C	-0.287087	0.063553	-1.524021
F	1.410589	0.0	0.0
H	0.474879	0.760951	-1.907985
N	-0.499097	1.098287	0.766185
H	-0.304423	1.95228	0.251016
H	-1.523856	0.988466	0.757348
N	-0.461567	-1.211718	0.589826
H	-0.640606	-1.061998	1.572309
H	0.234997	-1.933018	0.467708
N	-1.600679	0.619833	-1.794385
H	-1.919166	0.296391	-2.701781
H	-2.320586	0.305764	-1.102843
C	-0.027986	-1.297546	-2.170503
H	-0.77268	-2.011983	-1.817982
H	-0.112127	-1.216279	-3.260021
H	0.978168	-1.667136	-1.943576
H	-3.528151	0.0	0.0
