18

C	0.0	0.0	0.0
C	-0.291795	0.020493	-1.519739
F	1.417872	0.0	0.0
H	0.254693	-0.853752	-1.901668
N	-0.506268	1.159376	0.657308
H	-0.245711	1.132918	1.638636
H	-1.52821	1.085601	0.609945
N	-0.435931	-1.226696	0.581893
H	0.096632	-2.005327	0.216588
H	-0.380483	-1.204699	1.590774
N	0.295364	1.195381	-2.169968
H	1.245688	1.293895	-1.827969
H	-0.209728	2.001289	-1.813744
C	-1.749302	-0.10426	-1.90208
H	-2.326821	0.781251	-1.636684
H	-1.810088	-0.25169	-2.984995
H	-2.259056	-0.905286	-1.37131
H	-4.125202	0.0	0.0
