18

C	0.0	0.0	0.0
C	-0.300802	0.084017	-1.520433
F	1.395092	0.0	0.0
H	0.398076	0.867311	-1.846514
N	-0.423635	1.219445	0.645056
H	-1.418153	1.319031	0.436317
H	-0.366224	1.076633	1.650484
N	-0.456855	-1.239754	0.572256
H	-0.211355	-1.243212	1.556719
H	-1.477847	-1.189429	0.52127
N	-1.656256	0.501966	-1.858072
H	-2.355582	0.256031	-1.122399
H	-1.95071	-0.003525	-2.6858
C	0.113484	-1.220721	-2.201089
H	1.142885	-1.488685	-1.958099
H	0.033987	-1.098101	-3.286747
H	-0.541319	-2.034844	-1.890001
H	-3.417518	0.0	0.0
