18

C	0.0	0.0	0.0
C	-0.420523	0.02094	-1.47931
F	1.412769	0.0	0.0
H	-1.517464	-0.001545	-1.461156
N	-0.453573	1.199451	0.65102
H	-1.482129	1.132369	0.550217
H	-0.258181	1.106206	1.645502
N	-0.432017	-1.249975	0.584899
H	-1.461874	-1.160157	0.561372
H	-0.16802	-1.241305	1.568193
N	0.062965	-1.156256	-2.208573
H	-0.308665	-1.968993	-1.723883
H	1.067575	-1.200608	-2.053496
C	0.065981	1.277544	-2.182145
H	-0.287564	1.266243	-3.216734
H	1.160128	1.307689	-2.189961
H	-0.292367	2.172411	-1.676978
H	-3.065206	0.0	0.0
