18

C	0.0	0.0	0.0
C	-0.356331	0.178247	-1.501743
F	1.43595	0.0	0.0
H	0.4381	0.843544	-1.870094
N	-0.363236	1.192811	0.724294
H	-0.258392	1.035286	1.719886
H	0.263194	1.941662	0.449392
N	-0.53572	-1.187701	0.561155
H	-1.557225	-1.089173	0.445861
H	-0.352471	-1.200424	1.561462
N	-1.631818	0.802403	-1.800577
H	-2.385304	0.356127	-1.238472
H	-1.610478	1.736758	-1.405352
C	-0.237935	-1.148101	-2.240177
H	0.700723	-1.655194	-2.004075
H	-0.297416	-0.958277	-3.314948
H	-1.064572	-1.802836	-1.960026
H	-3.527474	0.0	0.0
