18

C	0.0	0.0	0.0
C	-0.379076	0.002276	-1.501575
F	1.410326	0.0	0.0
H	0.430528	0.567616	-1.986799
N	-0.468752	1.12788	0.745544
H	-0.417963	1.939062	0.138828
H	-1.47233	0.962452	0.867921
N	-0.448592	-1.170344	0.678678
H	-0.30092	-1.030423	1.670964
H	0.084712	-1.971073	0.370164
N	-1.621116	0.734474	-1.691835
H	-1.947961	0.587163	-2.641747
H	-2.382086	0.38215	-1.061547
C	-0.376505	-1.413308	-2.08513
H	0.577796	-1.927854	-1.913899
H	-1.193679	-1.986638	-1.64445
H	-0.533604	-1.364326	-3.167727
H	-3.679882	0.0	0.0
