16

C	-0.206854	0.002249	-1.496505
C	0.0	0.0	0.0
Br	-2.155476	0.081438	-2.003798
H	1.098991	0.0	0.0
H	0.102349	-0.969655	-1.887618
C	0.568519	1.118031	-2.156506
H	1.586754	0.999034	-1.763083
H	0.177364	2.084759	-1.840822
H	0.555285	1.042861	-3.246011
N	-0.471058	-1.205078	0.681613
H	0.239517	-1.918492	0.573953
H	-1.328889	-1.540386	0.25027
N	-0.487459	1.233329	0.592442
H	0.028012	1.35363	1.45678
H	-1.463885	1.106554	0.846503
F	2.706433	0.0	0.0
