16

C	-0.350172	-0.139146	-1.483787
C	0.0	0.0	0.0
Br	-0.198609	1.603409	-2.422534
H	1.102753	0.0	0.0
H	-1.405287	-0.405523	-1.629285
C	0.636835	-1.104387	-2.13021
H	0.598891	-1.075451	-3.221468
H	0.402046	-2.124799	-1.807674
H	1.633686	-0.839387	-1.751841
N	-0.384904	-1.219609	0.710644
H	0.383835	-1.872103	0.637595
H	-1.224661	-1.639211	0.324599
N	-0.702223	1.117597	0.634581
H	-0.222545	1.969617	0.364054
H	-0.528535	0.992177	1.626343
F	2.75563	0.0	0.0
