16

C	-0.430075	-0.101686	-1.462031
C	0.0	0.0	0.0
Br	-0.327517	1.65067	-2.401462
H	1.101268	0.0	0.0
H	-1.485106	-0.378604	-1.554149
C	0.516596	-1.064082	-2.160049
H	1.538001	-0.784798	-1.878767
H	0.381197	-1.071625	-3.243787
H	0.318858	-2.063391	-1.76371
N	-0.41512	-1.272092	0.608988
H	0.36567	-1.603899	1.163258
H	-1.198513	-1.076039	1.222239
N	-0.623324	1.112665	0.729983
H	-0.526421	1.951168	0.168419
H	-0.028231	1.265863	1.540193
F	2.747426	0.0	0.0
