16

C	-0.57492	-0.026391	-1.405586
C	0.0	0.0	0.0
Br	0.127789	-1.572204	-2.400192
H	1.093838	0.0	0.0
H	-0.187038	0.830021	-1.962966
C	-2.090225	-0.098562	-1.454389
H	-2.530761	0.758772	-0.934
H	-2.408795	-1.005795	-0.945557
H	-2.462106	-0.105943	-2.479942
N	-0.509825	-1.135319	0.783146
H	-0.973386	-0.735743	1.588765
H	0.309755	-1.63253	1.11868
N	-0.389706	1.279969	0.644259
H	-0.881761	1.886118	0.001581
H	0.49087	1.738827	0.855372
F	2.688491	0.0	0.0
