16

C	-0.531134	0.009212	-1.429245
C	0.0	0.0	0.0
Br	-0.030548	-1.655125	-2.372514
H	1.094136	0.0	0.0
H	0.008547	0.790381	-1.966502
C	-2.030806	0.202302	-1.570972
H	-2.327881	0.256902	-2.621007
H	-2.291419	1.136923	-1.070819
H	-2.587649	-0.618119	-1.109203
N	-0.476371	-1.119858	0.815697
H	-1.174928	-1.670383	0.32756
H	0.327576	-1.721855	0.958184
N	-0.406757	1.305723	0.573611
H	0.442189	1.676595	0.990166
H	-1.046458	1.101852	1.332914
F	2.689789	0.0	0.0
