16

C	-0.547709	0.082887	-1.403895
C	0.0	0.0	0.0
Cl	0.211539	1.526514	-2.227894
H	1.093894	0.0	0.0
H	-0.29593	0.941606	0.479733
N	-0.127285	-1.094268	-2.28701
O	-0.723937	-1.195064	-3.358737
O	0.759483	-1.829132	-1.884143
N	-1.962174	0.097325	-1.4534
H	-2.312238	0.846009	-0.870165
H	-2.281793	0.215448	-2.406577
C	-0.532584	-1.181913	0.804766
H	-0.188328	-2.123316	0.379333
H	-1.623306	-1.194829	0.85768
H	-0.130687	-1.117859	1.817654
Br	3.684606	0.0	0.0
