16

C	0.0	0.0	0.0
C	-0.354276	0.035969	-1.52262
Br	2.004747	0.0	0.0
H	0.129215	0.938361	-1.973834
N	-0.316211	1.305412	0.72549
H	0.213988	2.067156	0.245288
H	0.099473	1.217673	1.65944
N	-0.203501	-1.297487	0.694819
H	0.560255	-1.491755	1.362542
H	-1.109281	-1.288958	1.144379
C	-1.859578	0.13666	-1.607561
N	-3.022593	-0.027032	-1.902574
N	0.150678	-1.160283	-2.199997
H	-0.162509	-1.945296	-1.630106
H	-0.327588	-1.219961	-3.095871
H	-1.654406	0.0	0.0
