17

C	0.0	0.0	0.0
C	-0.499896	-0.004779	-1.439782
Cl	1.800856	0.0	0.0
H	-1.595632	-0.055187	-1.406809
H	-0.145328	0.878444	-1.96905
C	-0.467995	1.297222	0.642252
H	-0.095702	2.162758	0.087884
H	-1.561834	1.301961	0.656261
H	-0.089198	1.354354	1.665408
C	-0.464742	-1.2022	0.803745
H	-0.134232	-1.086381	1.839005
H	-0.055076	-2.130171	0.406949
H	-1.556806	-1.238357	0.76934
N	-0.008796	-1.164808	-2.230532
O	-0.47603	-2.2736	-1.973234
O	0.837951	-0.944339	-3.099311
Br	-3.956795	0.0	0.0
