17

C	0.0	0.0	0.0
C	-0.513527	0.015615	-1.436153
Cl	1.800906	0.0	0.0
H	-1.605142	-0.090198	-1.389421
H	-0.217961	0.933861	-1.940911
C	-0.48054	1.285555	0.656821
H	-0.107371	2.162609	0.121826
H	-0.122789	1.329422	1.687841
H	-1.574034	1.279287	0.650631
C	-0.472948	-1.209774	0.788198
H	-1.565561	-1.216402	0.769645
H	-0.093924	-2.138356	0.364606
H	-0.125559	-1.122668	1.820784
N	0.026208	-1.087491	-2.273117
O	0.8293	-0.784895	-3.159937
O	-0.354886	-2.233181	-2.033811
Br	-3.961528	0.0	0.0
