11
Coordinates from ORCA-job run
  C   -0.63899221381902      0.50320562707388      0.07954706675233
  C   0.46147074849314     -0.51400146393415     -0.28218511143698
  Cl  0.08433721406115      2.08119575174103      0.51558125489529
  H   1.02042516277397     -0.11668520523723     -1.13278709102152
  H   -1.18600260870841      0.16325133538644      0.96247945220730
  H   -0.03997528067530     -1.42782322925657     -0.61551181905999
  C   -1.57592140903675      0.67830158637140     -1.02493094700900
  N   -2.31033446214829      0.76820082244451     -1.93676896132777
  N   1.38743842570918     -0.84700030259151      0.77415264952633
  H   1.88497886640127     -0.02635112261678      1.09271520713254
  H   0.91257555694905     -1.26329379938102      1.56470829934149
