11
Coordinates from ORCA-job run
  C   -0.91854293928928     -0.02824114338258     -0.40913276493263
  C   0.31472128921884     -0.69834216496310      0.19746341107380
  Cl  -2.39167781989962     -0.96669510364545     -0.03484153124033
  H   0.15763971506599     -0.80771667117078      1.27838070043848
  H   -0.81080936566977     -0.00010562973244     -1.49394517584959
  H   0.38645127506086     -1.69963772875294     -0.23261537879502
  C   -1.05361325049798      1.33684803527984      0.09092735747283
  N   -1.10508034087083      2.42821331574114      0.52092962967610
  N   1.48201230541653      0.07824499016856     -0.18917427504144
  H   1.62460900296225      0.85235231055436      0.44690546380261
  H   2.31429012850301     -0.49492021009662     -0.17489743660480
