11
Coordinates from ORCA-job run
  C   -0.86202712278156     -0.00754057682214     -0.37417788859451
  C   0.30638888662846     -0.78353189542009      0.26292984978418
  Cl  -2.40906855184169     -0.85364884505259     -0.08299362850768
  H   0.10187886848085     -0.89203463232904      1.33054770721651
  H   -0.73136319927588      0.04187436473347     -1.45795163405576
  H   0.31374262934816     -1.78601411048690     -0.17192495306947
  C   -0.92183057086993      1.35193330521335      0.15415774682009
  N   -0.90426561646299      2.43650700481334      0.60400974845677
  N   1.60379449101267     -0.17244304178023      0.08752827829100
  H   1.65602962542796      0.73232919700324      0.53665426987404
  H   1.84572056033394     -0.06943076987242     -0.88877949621517
