11
Coordinates from ORCA-job run
  C   -0.93821331306234     -0.06764858631561     -0.23032193714486
  C   0.41221449052872     -0.79879637131220     -0.10645195275283
  Cl  -1.75279212925168      0.01443481565957      1.36180703330255
  H   0.20803832363131     -1.79177381123589      0.30220133576839
  H   -1.60940305124761     -0.61874965082568     -0.89351235724975
  H   0.79871379934684     -0.93338212200362     -1.12191887976630
  C   -0.74980414490914      1.28176959400132     -0.75328242532955
  N   -0.58142477646342      2.34887451216718     -1.21337560431854
  N   1.42374504697487     -0.15652177611295      0.69590108502345
  H   1.10515425711957     -0.02237334978692      1.64618963160972
  H   1.68477149733289      0.74216674576479      0.31076407085772
