11
Coordinates from ORCA-job run
  C   -0.84514512440956      0.00550453571244     -0.39570017130735
  C   0.31456904428611     -0.79874923941180      0.22067401078702
  Cl  -2.38694565289997     -0.88090806051623     -0.21699883078810
  H   0.35389440213982     -1.76589539900929     -0.28637421620869
  H   -0.68129553331607      0.13544347160848     -1.46828386681240
  H   0.07885779308093     -0.98999388132832      1.27007108502324
  C   -0.94683582566472      1.32394374596510      0.22241482125805
  N   -0.99996024819437      2.39521670706496      0.70049059370109
  N   1.60654520392036     -0.15701860126203      0.13297101581455
  H   1.87792870707972      0.01879511758812     -0.82513427798917
  H   1.62838723397777      0.71466160358858      0.64586983652175
