15

C	-0.540963	-0.028734	-1.396018
C	0.0	0.0	0.0
F	-1.91392	-0.171764	-1.419648
H	1.092093	0.0	0.0
H	-0.311047	-0.950332	0.450036
N	-0.257274	1.303472	-2.097853
O	-1.113488	2.172629	-1.977967
O	0.818399	1.40145	-2.671844
C	0.026082	-1.097159	-2.231365
N	0.460044	-1.988519	-2.859975
C	-0.498387	1.186073	0.815781
H	-0.03568	2.112772	0.471277
H	-0.183081	1.041326	1.851841
H	-1.584638	1.304763	0.788413
H	2.849674	0.0	0.0
