15

C	-0.490453	0.028966	-1.407378
C	0.0	0.0	0.0
F	-1.863466	0.218577	-1.488093
H	1.093882	0.0	0.0
H	-0.339624	0.933471	0.459146
N	0.104477	1.23855	-2.133268
O	0.851133	1.033388	-3.083031
O	-0.233579	2.327167	-1.687127
C	-0.182955	-1.179238	-2.184649
N	-0.065689	-2.192539	-2.765966
C	-0.496187	-1.221025	0.761921
H	-0.134719	-1.156444	1.790786
H	-1.586873	-1.302866	0.777516
H	-0.077974	-2.136103	0.335426
H	2.841552	0.0	0.0
