15

C	-0.494581	0.083716	-1.404496
C	0.0	0.0	0.0
F	-1.864306	0.293157	-1.474295
H	1.093994	0.0	0.0
H	-0.336782	0.917333	0.493195
N	0.121294	1.30831	-2.084024
O	-0.240901	2.388023	-1.633003
O	0.920581	1.121473	-2.992863
C	-0.202327	-1.099947	-2.225099
N	-0.071201	-2.089453	-2.843311
C	-0.497244	-1.246379	0.718536
H	-0.0812	-2.14644	0.258879
H	-0.134454	-1.219133	1.748705
H	-1.588136	-1.32641	0.733114
H	2.839069	0.0	0.0
