15

C	-0.445794	0.376137	-1.380437
C	0.0	0.0	0.0
F	-0.002711	-0.501456	-2.318304
H	1.101394	0.0	0.0
H	-0.330191	0.787907	0.683541
N	-1.981971	0.326818	-1.443952
O	-2.49862	-0.619503	-2.022859
O	-2.56797	1.214353	-0.831199
C	-0.075226	1.743458	-1.781975
N	0.184234	2.834139	-2.131446
C	-0.514352	-1.366833	0.423738
H	0.02772	-1.670111	1.323002
H	-1.587812	-1.379336	0.64174
H	-0.306691	-2.109785	-0.3481
H	2.823054	0.0	0.0
