15

C	-0.443966	-0.251993	-1.409263
C	0.0	0.0	0.0
F	-0.054901	-1.47301	-1.859306
H	1.095381	0.0	0.0
H	-0.324899	1.007892	0.275878
N	-1.984538	-0.253206	-1.456528
O	-2.55051	-1.336107	-1.538103
O	-2.522079	0.842549	-1.32462
C	-0.012483	0.775486	-2.371559
N	0.298812	1.576249	-3.171951
C	-0.520786	-1.049175	0.970846
H	-0.009502	-0.910278	1.926094
H	-0.279237	-2.052405	0.615731
H	-1.600858	-0.990002	1.141549
H	2.826635	0.0	0.0
