15

C	-0.455235	-0.08119	-1.415632
C	0.0	0.0	0.0
F	-1.817129	0.157629	-1.56435
H	1.100105	0.0	0.0
H	-0.332707	0.971763	0.374385
N	0.206558	1.032596	-2.23337
O	0.012559	2.168487	-1.821448
O	0.848455	0.714717	-3.226637
C	-0.16795	-1.368359	-2.063011
N	-0.012894	-2.434253	-2.532404
C	-0.508783	-1.150149	0.857176
H	-0.311528	-0.914095	1.905274
H	-1.581589	-1.33157	0.742806
H	0.03783	-2.06698	0.624079
H	2.816989	0.0	0.0
