15

C	-0.496244	0.011046	-1.421563
C	0.0	0.0	0.0
F	-0.163326	1.175882	-2.041924
H	1.102919	0.0	0.0
H	-0.327978	0.960121	0.415056
N	0.138571	-1.12411	-2.23711
O	-0.280511	-2.246644	-1.969257
O	0.989178	-0.830038	-3.057049
C	-1.95691	-0.167648	-1.551339
N	-3.128151	-0.245155	-1.612774
C	-0.495991	-1.158396	0.854028
H	-0.087515	-2.104369	0.498761
H	-1.587228	-1.239384	0.889662
H	-0.125038	-1.006512	1.870246
H	2.848798	0.0	0.0
