15

C	-0.509744	0.192387	-1.393244
C	0.0	0.0	0.0
F	-1.860505	0.48699	-1.446828
H	1.103158	0.0	0.0
H	-0.323711	-0.993131	0.327642
N	0.19231	1.383887	-2.045752
O	1.161721	1.13688	-2.750734
O	-0.251386	2.491432	-1.755802
C	-0.291581	-0.978088	-2.255663
N	-0.221395	-1.950623	-2.91013
C	-0.45969	1.07729	0.974997
H	-0.015489	2.041363	0.724229
H	-1.545372	1.189661	1.014505
H	-0.094552	0.803605	1.967434
H	2.811379	0.0	0.0
