15

C	-0.504722	0.027192	-1.418419
C	0.0	0.0	0.0
F	-0.157195	1.189202	-2.034829
H	1.101464	0.0	0.0
H	-0.324749	0.957258	0.42474
N	0.099594	-1.114725	-2.248311
O	0.935729	-0.830193	-3.086931
O	-0.330541	-2.232064	-1.976676
C	-1.969864	-0.125367	-1.533361
N	-3.142902	-0.18574	-1.57472
C	-0.496767	-1.162925	0.847467
H	-0.123031	-1.017983	1.86372
H	-1.588189	-1.241573	0.885262
H	-0.091448	-2.1077	0.485583
H	2.850982	0.0	0.0
