15

C	-0.441316	0.275925	-1.403181
C	0.0	0.0	0.0
F	-0.058295	-0.724323	-2.243845
H	1.100698	0.0	0.0
H	-0.346203	-1.012077	0.235473
N	-1.978294	0.301146	-1.460866
O	-2.541374	-0.778979	-1.597258
O	-2.525544	1.385291	-1.27051
C	0.017574	1.563609	-1.950457
N	0.378362	2.576946	-2.421603
C	-0.478074	1.026581	1.015466
H	-1.562086	1.036455	1.160262
H	-0.16019	2.03143	0.726612
H	0.001857	0.803262	1.970824
H	2.797263	0.0	0.0
