15

C	-0.494528	-0.022879	-1.422978
C	0.0	0.0	0.0
F	-0.235899	1.160445	-2.04494
H	1.09507	0.0	0.0
H	-0.333982	0.967019	0.393093
N	0.209666	-1.116809	-2.242223
O	-0.090235	-2.264714	-1.930272
O	0.97987	-0.767155	-3.118166
C	-1.94035	-0.296874	-1.554861
N	-3.100928	-0.46653	-1.629671
C	-0.487858	-1.142193	0.880584
H	-0.112724	-0.967949	1.891433
H	-0.076421	-2.092312	0.542018
H	-1.578509	-1.226323	0.924033
H	2.85072	0.0	0.0
