15

C	-0.462319	0.313473	-1.389808
C	0.0	0.0	0.0
F	0.104027	-0.518345	-2.301677
H	1.102054	0.0	0.0
H	-0.310772	-1.033312	0.195708
N	-1.980118	0.063032	-1.491631
O	-2.332669	-1.055246	-1.845786
O	-2.718145	0.972564	-1.115724
C	-0.2506	1.708885	-1.807082
N	-0.093452	2.817847	-2.159793
C	-0.49903	0.95816	1.06888
H	-0.187775	1.981241	0.84419
H	-1.584406	0.94846	1.199595
H	-0.026787	0.682591	2.01488
H	2.796912	0.0	0.0
