16

C	-0.635942	0.052195	-1.397025
C	0.0	0.0	0.0
Cl	-2.403036	-0.061993	-1.257351
H	1.078145	0.0	0.0
C	-0.296566	1.314604	-2.041864
N	-0.037776	2.334113	-2.566565
N	-0.113578	-1.067453	-2.340014
O	-0.88468	-1.939799	-2.698462
O	1.060408	-0.926847	-2.639899
N	-0.398817	-1.326786	0.632563
O	-0.957381	-1.300355	1.726868
O	-0.110173	-2.338083	0.001289
N	-0.422101	1.129621	0.74566
H	0.30958	1.385199	1.395802
H	-1.282141	0.951768	1.246325
Cl	3.17893	0.0	0.0
