16

C	-0.543366	0.054471	-1.446741
C	0.0	0.0	0.0
Cl	-2.324009	0.040154	-1.448157
H	1.094357	0.0	0.0
C	-0.09542	1.289318	-2.078073
N	0.225107	2.30538	-2.574429
N	-0.027317	-1.114645	-2.326611
O	-0.780223	-2.04763	-2.543909
O	1.122455	-0.967585	-2.708249
N	-0.470462	-1.311741	0.589168
O	-1.319347	-1.287861	1.474159
O	0.040292	-2.320448	0.10498
N	-0.400748	1.089102	0.801358
H	-1.333939	1.437443	0.650288
H	0.304569	1.810434	0.808102
Cl	3.193762	0.0	0.0
