16

C	-0.465844	-0.001023	-1.466623
C	0.0	0.0	0.0
Cl	-0.314242	1.625045	-2.150989
H	1.094341	0.0	0.0
C	0.270729	-0.922057	-2.325177
N	0.87459	-1.647355	-3.025933
N	-1.963397	-0.352352	-1.567833
O	-2.648322	-0.068836	-0.591873
O	-2.361024	-0.827498	-2.621344
N	-0.395477	-1.348419	0.59373
O	-0.620184	-2.277351	-0.181193
O	-0.428762	-1.419861	1.815091
N	-0.438534	1.097352	0.768394
H	0.221056	1.26568	1.514844
H	-1.371441	0.969926	1.129605
Cl	3.17425	0.0	0.0
