16

C	-0.557003	0.056663	-1.440289
C	0.0	0.0	0.0
Cl	-2.333871	-0.042468	-1.423077
H	1.091584	0.0	0.0
C	-0.174099	1.32466	-2.049302
N	0.110097	2.359892	-2.528147
N	0.00604	-1.063294	-2.357387
O	1.154965	-0.862837	-2.715109
O	-0.714685	-2.006778	-2.628865
N	-0.453705	-1.323506	0.584186
O	-1.242183	-1.317521	1.522628
O	0.016231	-2.322111	0.039987
N	-0.405102	1.081582	0.806988
H	-1.331201	1.444135	0.642712
H	0.307547	1.795186	0.845763
Cl	3.190334	0.0	0.0
