14

C	0.0	0.0	0.0
C	-0.393987	-0.075064	-1.468255
F	1.383265	0.0	0.0
H	0.477994	0.230952	-2.053184
H	-0.345268	0.95589	0.377848
C	-0.448573	-1.061804	0.902148
N	-0.496231	-1.875383	1.75017
N	-1.452083	0.917966	-1.869387
O	-2.323408	0.567868	-2.645293
O	-1.202165	2.067788	-1.526866
N	-0.733735	-1.415849	-2.046355
O	-1.195887	-2.301509	-1.342849
O	-0.483742	-1.510646	-3.251013
F	-2.276745	0.0	0.0
