14

C	0.0	0.0	0.0
C	-0.28939	0.144186	-1.495205
F	1.367611	0.0	0.0
H	0.446031	-0.44902	-2.038969
H	-0.389108	0.841417	0.556006
C	-0.473171	-1.274397	0.542796
N	-0.538784	-2.350947	1.010181
N	-0.021518	1.553717	-1.932234
O	-0.218291	2.4737	-1.146747
O	0.383478	1.674948	-3.088399
N	-1.608381	-0.265312	-2.086782
O	-2.299746	0.598428	-2.604423
O	-1.747703	-1.47597	-2.185108
F	-2.2879	0.0	0.0
