14

C	0.0	0.0	0.0
C	-0.258234	0.221897	-1.494964
F	1.376962	0.0	0.0
H	0.148057	-0.616195	-2.058447
H	-0.369029	0.820014	0.600511
C	-0.491601	-1.292343	0.470997
N	-0.563648	-2.394784	0.877107
N	0.548448	1.415778	-1.940891
O	0.639944	2.375292	-1.185557
O	1.01824	1.348936	-3.076818
N	-1.628074	0.472556	-2.063946
O	-2.025502	1.628228	-2.08174
O	-2.126326	-0.481314	-2.646915
F	-2.269264	0.0	0.0
