14

C	0.0	0.0	0.0
C	-0.538109	-0.073544	-1.457312
Cl	1.781875	0.0	0.0
H	0.334521	-0.08971	-2.116332
H	-0.322006	-0.888911	0.538146
C	-0.404742	1.190558	0.750388
N	-0.561698	2.144446	1.417556
N	-1.299127	1.13062	-1.763043
H	-2.160826	1.03201	-1.202543
H	-1.56833	1.078451	-2.741535
N	-1.220762	-1.362811	-1.579807
H	-2.086487	-1.223909	-1.035389
H	-1.502455	-1.465513	-2.551686
H	-3.105825	0.0	0.0
