14

C	0.0	0.0	0.0
C	-0.495841	-0.038372	-1.502752
Cl	1.779447	0.0	0.0
H	0.413799	-0.004834	-2.109813
H	-0.343119	-0.883815	0.530793
C	-0.414267	1.211361	0.704157
N	-0.567336	2.240313	1.251607
N	-1.354612	1.048788	-1.932805
H	-2.178465	0.980617	-1.315321
H	-0.904557	1.945824	-1.76959
N	-1.136112	-1.331204	-1.678103
H	-1.984636	-1.247332	-1.098687
H	-1.459978	-1.349519	-2.640959
H	-2.936689	0.0	0.0
