14

C	0.0	0.0	0.0
C	-0.598487	0.210858	-1.416052
Cl	1.783407	0.0	0.0
H	-1.451317	0.875015	-1.260147
H	-0.33723	-0.955149	0.391882
C	-0.390019	1.074867	0.919519
N	-0.51476	1.969375	1.671817
N	-1.05569	-1.104029	-1.852729
H	-1.899175	-1.218807	-1.269696
H	-1.401674	-0.99725	-2.803866
N	0.328284	0.860467	-2.314148
H	1.019766	0.194951	-2.639016
H	-0.191995	1.19607	-3.115499
H	-2.930666	0.0	0.0
