14

C	0.0	0.0	0.0
C	-0.595784	0.131259	-1.414733
Cl	1.783799	0.0	0.0
H	-1.550311	0.641851	-1.245073
H	-0.346412	-0.921261	0.461266
C	-0.388079	1.140403	0.841876
N	-0.525163	2.086945	1.523697
N	-0.839521	-1.235187	-1.888131
H	-1.151533	-1.155953	-2.853668
H	-1.677343	-1.505968	-1.358809
N	0.239673	0.928173	-2.282426
H	-0.318529	1.248761	-3.063195
H	1.004429	0.365113	-2.63862
H	-2.967999	0.0	0.0
