14

C	0.0	0.0	0.0
C	-0.502147	0.163493	-1.488073
Cl	1.780421	0.0	0.0
H	0.405789	0.194386	-2.098051
H	-0.333165	-0.956453	0.397962
C	-0.408054	1.054774	0.926646
N	-0.606723	1.882816	1.736214
N	-1.183952	1.435444	-1.619508
H	-1.485916	1.486326	-2.587869
H	-2.037525	1.310718	-1.05864
N	-1.321192	-0.941429	-1.958701
H	-2.142708	-0.918993	-1.333013
H	-0.830616	-1.821637	-1.821479
H	-2.958157	0.0	0.0
