14

C	0.0	0.0	0.0
C	-0.507124	-0.089801	-1.469405
Cl	1.78167	0.0	0.0
H	0.376434	-0.038283	-2.111692
H	-0.332091	-0.877144	0.549926
C	-0.403481	1.210246	0.718792
N	-0.562529	2.185695	1.353477
N	-1.346169	1.055187	-1.781657
H	-2.193796	0.910428	-1.20124
H	-1.623062	0.970938	-2.756186
N	-1.083321	-1.429229	-1.620451
H	-1.976669	-1.369106	-1.119019
H	-1.300227	-1.558534	-2.604698
H	-3.056859	0.0	0.0
