14

C	0.0	0.0	0.0
C	-0.545258	0.040765	-1.455439
Cl	1.790755	0.0	0.0
H	0.323604	0.07068	-2.116239
H	-0.315403	-0.930265	0.466504
C	-0.395079	1.131492	0.840198
N	-0.596809	2.082472	1.498349
N	-1.295858	1.26955	-1.667263
H	-2.172399	1.134688	-1.139748
H	-1.531659	1.313807	-2.654195
N	-1.238623	-1.230921	-1.66565
H	-1.525598	-1.261223	-2.63996
H	-2.101013	-1.125065	-1.10636
H	-3.147793	0.0	0.0
