12

C	-0.309637	0.111625	-0.028259
C	-0.573824	-0.479367	-1.42488
Br	1.360426	-0.604808	0.722314
H	0.277281	-0.257366	-2.077261
H	-1.122295	-0.207457	0.637201
H	-0.644694	-1.56084	-1.296183
C	-0.201978	1.561417	-0.078027
N	-0.123624	2.729974	-0.179216
N	-1.806655	-0.00665	-2.017432
H	-1.802689	1.004937	-2.081661
H	-2.567478	-0.288112	-1.399764
Cl	-3.257588	-1.239076	0.734978
