16

C	-0.405433	-0.048551	-1.471873
C	0.0	0.0	0.0
Br	0.155588	1.725442	-2.292104
H	1.088165	0.0	0.0
N	0.28369	-1.148806	-2.022611
H	1.277572	-1.103608	-1.792701
H	0.142422	-1.223141	-3.021493
C	-1.84059	-0.151377	-1.736866
N	-2.969656	-0.292414	-2.031216
N	-0.493081	-1.250423	0.679812
O	0.280344	-2.193759	0.73853
O	-1.64919	-1.221217	1.102959
N	-0.561559	1.124979	0.788072
O	-0.0292	1.304828	1.880152
O	-1.5206	1.743643	0.332811
Cl	3.170727	0.0	0.0
