16

C	-0.579218	-0.00574	-1.420845
C	0.0	0.0	0.0
Br	0.34308	-1.368341	-2.489128
H	1.088345	0.0	0.0
N	-1.982733	-0.340204	-1.412632
H	-2.327198	-0.388969	-2.364093
H	-2.478974	0.390069	-0.911207
C	-0.260746	1.270396	-2.085044
N	-0.10677	2.293531	-2.644674
N	-0.512539	-1.191908	0.756635
O	-1.457485	-1.016407	1.521853
O	0.046904	-2.252969	0.522975
N	-0.461713	1.197342	0.774774
O	0.14592	1.416815	1.813371
O	-1.415827	1.851934	0.344402
Cl	3.169606	0.0	0.0
