16

C	-0.585084	-0.001784	-1.417377
C	0.0	0.0	0.0
Br	0.321243	-1.369961	-2.492009
H	1.088323	0.0	0.0
N	-1.990699	-0.328464	-1.401529
H	-2.479962	0.408268	-0.902985
H	-2.338433	-0.381311	-2.351612
C	-0.262587	1.271745	-2.084768
N	-0.110573	2.294203	-2.646289
N	-0.513051	-1.189623	0.75761
O	0.02513	-2.257338	0.504763
O	-1.436954	-1.00667	1.54691
N	-0.455486	1.196035	0.780593
O	-1.402583	1.860505	0.351561
O	0.150811	1.407006	1.821936
Cl	3.152062	0.0	0.0
