16

C	-0.342174	0.055446	-1.487417
C	0.0	0.0	0.0
Br	-2.278982	0.267575	-1.846799
H	1.09321	0.0	0.0
N	0.342338	1.209547	-2.002601
H	0.334254	1.189807	-3.014813
H	1.310613	1.190077	-1.673174
C	0.041698	-1.197693	-2.160441
N	0.354921	-2.084358	-2.867514
N	-0.486656	-1.195184	0.732973
O	-1.055614	-2.083359	0.09999
O	-0.236933	-1.203746	1.93491
N	-0.502217	1.209339	0.716484
O	-1.625947	1.136473	1.212002
O	0.241572	2.182174	0.735697
Cl	3.125591	0.0	0.0
