16

C	-0.466139	0.000751	-1.43391
C	0.0	0.0	0.0
Br	-2.457588	-0.546634	-1.553466
H	1.09042	0.0	0.0
N	-0.212397	1.253775	-2.041203
H	-0.277995	1.211589	-3.048161
H	-0.812426	1.971721	-1.65602
C	0.216794	-1.047866	-2.19711
N	0.780336	-1.827809	-2.871935
N	-0.409462	-1.193095	0.775409
O	-1.279113	-1.078724	1.638669
O	0.029912	-2.264563	0.34279
N	-0.382992	1.234047	0.726128
O	-1.422145	1.830651	0.418696
O	0.17068	1.353344	1.832924
Cl	2.852115	0.0	0.0
