16

C	-0.558351	-0.125357	-1.420604
C	0.0	0.0	0.0
Br	-0.04581	-2.027851	-1.985552
H	1.117799	0.0	0.0
N	-1.937785	0.13477	-1.514413
H	-2.461599	-0.453338	-0.880218
H	-2.272182	0.05355	-2.464823
C	0.170141	0.710162	-2.375553
N	0.654132	1.35464	-3.229592
N	-0.516742	-1.070832	0.903996
O	-1.727311	-1.309024	0.860378
O	0.286565	-1.616055	1.646832
N	-0.422511	1.308072	0.602083
O	-0.312955	2.285414	-0.124985
O	-0.780762	1.30721	1.7759
Cl	3.12396	0.0	0.0
