16

C	-0.584906	-0.004708	-1.409035
C	0.0	0.0	0.0
Br	0.414451	-1.236607	-2.573679
H	1.08979	0.0	0.0
N	-1.960705	-0.423388	-1.432222
H	-2.51281	0.249607	-0.910581
H	-2.302859	-0.498658	-2.382453
C	-0.329953	1.326468	-1.994483
N	-0.16637	2.399567	-2.449783
N	-0.443788	-1.178409	0.806079
O	-0.258215	-2.274622	0.297341
O	-0.883383	-0.959765	1.933963
N	-0.457823	1.192144	0.78618
O	-1.638015	1.551477	0.656493
O	0.407476	1.816602	1.392791
Cl	2.679339	0.0	0.0
