16

C	-0.43421	-0.153892	-1.467417
C	0.0	0.0	0.0
Br	0.506874	1.187279	-2.549832
H	1.1158	0.0	0.0
N	-0.017385	-1.436738	-1.986024
H	-0.543884	-2.178379	-1.537445
H	0.975961	-1.554407	-1.796843
C	-1.866547	0.050212	-1.691103
N	-3.009381	0.219524	-1.901496
N	-0.491508	-1.18568	0.770481
O	-1.695295	-1.437553	0.663766
O	0.321336	-1.828177	1.421451
N	-0.535283	1.186715	0.732015
O	-0.809376	2.185044	0.073316
O	-0.619693	1.078842	1.951353
Cl	3.129795	0.0	0.0
