16

C	-0.560531	-0.016891	-1.440228
C	0.0	0.0	0.0
Br	-0.171222	-1.836854	-2.114329
H	1.116294	0.0	0.0
N	-1.958575	0.25157	-1.636816
H	-2.115589	1.245968	-1.524064
H	-2.49435	-0.26084	-0.946684
C	0.209746	0.89988	-2.284313
N	0.734607	1.642569	-3.028657
N	-0.537746	-1.131582	0.810356
O	0.257163	-1.854441	1.392716
O	-1.766914	-1.246961	0.834771
N	-0.423343	1.242209	0.715776
O	-0.597786	2.247587	0.02914
O	-0.50649	1.184176	1.937913
Cl	3.122715	0.0	0.0
