15

C	-0.552466	-0.002402	-1.412527
C	0.0	0.0	0.0
F	-0.101493	-1.153995	-2.061309
H	1.099207	0.0	0.0
H	-0.347617	0.914845	0.491209
C	-2.067141	-0.024963	-1.471875
H	-2.397975	-0.124659	-2.504912
H	-2.413978	-0.869528	-0.883085
H	-2.47453	0.89656	-1.053791
C	-0.058811	1.169508	-2.162215
N	0.249909	2.132823	-2.759165
N	-0.541704	-1.16673	0.720988
H	-0.281801	-1.054855	1.693891
H	-0.011275	-1.966825	0.39477
Cl	3.510807	0.0	0.0
