16

C	-0.428122	0.104302	-1.462242
C	0.0	0.0	0.0
F	-0.202665	1.422779	-1.848985
H	1.090371	0.0	0.0
H	0.218208	-0.52775	-2.071414
N	-1.803554	-0.205795	-1.77553
H	-2.405437	0.204347	-1.069652
H	-1.89989	-1.21109	-1.7111
N	-0.357385	-1.302056	0.51126
O	-0.333896	-2.262439	-0.287783
O	-0.534148	-1.447157	1.73323
C	-0.469848	1.116492	0.90064
H	-1.556117	1.120176	1.045855
H	0.004102	1.011917	1.876064
H	-0.159975	2.065263	0.463506
H	2.556747	0.0	0.0
