16

C	-0.425204	0.065667	-1.464187
C	0.0	0.0	0.0
F	-0.164008	1.364999	-1.896257
H	1.094775	0.0	0.0
H	0.204923	-0.603145	-2.050965
N	-1.807273	-0.217347	-1.768307
H	-2.396646	0.215343	-1.064553
H	-1.925133	-1.219526	-1.694784
N	-0.370679	-1.277393	0.553168
O	-0.52808	-1.381431	1.78322
O	-0.379127	-2.264803	-0.214325
C	-0.455752	1.151591	0.863116
H	-0.148566	2.08164	0.384757
H	0.033424	1.0826	1.833952
H	-1.539675	1.165347	1.025717
H	2.536265	0.0	0.0
