16

C	-0.521831	0.091571	-1.416782
C	0.0	0.0	0.0
F	-1.966139	0.09025	-1.351813
H	1.094311	0.0	0.0
H	-0.284118	1.091225	-1.792542
N	-0.047911	-0.872709	-2.328577
H	-0.559117	-0.807177	-3.197822
H	-0.122764	-1.796182	-1.926068
N	-0.399432	-1.239893	0.6619
O	-0.334876	-2.305337	0.022897
O	-0.674483	-1.206863	1.869854
C	-0.41871	1.201346	0.823742
H	-1.49894	1.240007	0.980485
H	0.087901	1.178746	1.787818
H	-0.093849	2.103621	0.297362
H	2.618147	0.0	0.0
