16

C	-0.311527	-0.069374	-1.490364
C	0.0	0.0	0.0
F	-1.68363	-0.282615	-1.681823
H	1.092603	0.0	0.0
H	-0.088811	0.926327	-1.889013
N	0.420311	-1.026113	-2.269158
H	0.303174	-1.921333	-1.806769
H	1.402879	-0.785171	-2.129175
N	-0.435881	-1.200717	0.71985
O	-0.903619	-1.074629	1.858896
O	-0.255878	-2.305988	0.189772
C	-0.513074	1.254358	0.668726
H	-0.146216	1.315456	1.692521
H	-0.123817	2.115942	0.119812
H	-1.605024	1.29694	0.679403
H	2.685867	0.0	0.0
