14
Coordinates from ORCA-job run
  C   -0.70404570679241     -0.30959370742438     -0.13163491403294
  C   0.69384089870964      0.18708638721310      0.30953803888170
  H   -0.58458466318924     -1.29029674314900     -0.60688250323452
  H   0.55667493815452      0.97624327725011      1.05807742523249
  N   -1.27952365729063      0.59308341680559     -1.11207877181715
  H   -2.25282619584616      0.36172793872455     -1.27045130699687
  H   -1.22080643004723      1.55272587817045     -0.79374815330975
  C   -1.52392472089680     -0.50759285786226      1.08258917072808
  N   -2.21614687452341     -0.62424044241962      2.02480830941412
  N   1.40907727300088      0.76025260831766     -0.81619073165075
  H   1.37892097294319      0.13779191964189     -1.61450775306253
  H   2.37715076822470      0.92467581500142     -0.56784192407682
  C   1.38726777656379     -0.93546036550185      0.97642407653016
  N   1.97892562098916     -1.82640312476766      1.46289903739479
