14
Coordinates from ORCA-job run
  C   0.62325166515071      0.17546190300436      0.24780608297289
  C   -0.79702339684582     -0.32482134020523     -0.13649585997305
  H   0.49811448647646      1.06712414512555      0.87088446895331
  H   -0.66707079934469     -1.21730779971990     -0.76201386946227
  N   1.30605225549394      0.56761149371488     -0.97921408591154
  H   1.65872089674878     -0.25436276515807     -1.45741947946182
  H   2.09951947344675      1.16032108143951     -0.76847975082288
  C   1.34438993147902     -0.84432137842194      1.02949571922152
  N   1.94916394478134     -1.67888748046090      1.59423286755732
  N   -1.57284740268904      0.64544503965391     -0.88544239722798
  H   -0.97038157488178      1.02393147948052     -1.60885289370944
  H   -1.85368103682081      1.40746037628251     -0.27866760785765
  C   -1.52387601479447     -0.72558955523820      1.07234749313887
  N   -2.09333242820040     -1.00206519949701      2.06081931258274
