14
Coordinates from ORCA-job run
  C   0.76584576772487      0.13272512518718     -0.35919576596897
  C   -0.77312470875389      0.15026325078251     -0.47028731375335
  H   1.17778366214146     -0.21323832704490     -1.31862566002701
  H   -1.05717624123462      0.79694611533327     -1.30694267065451
  N   1.13307834473328     -0.71525473856209      0.77524880225594
  H   2.05574593907490     -0.48010612328880      1.11758679497187
  H   1.14243979173735     -1.68554270947032      0.48214036636544
  C   1.24916745888050      1.49977859532403     -0.14053698825120
  N   1.68759101257634      2.57840229182512      0.00556569313365
  N   -1.31927246498031      0.68827311705942      0.75491745092011
  H   -1.00079604925814      0.11952273107896      1.53083532153626
  H   -2.33080062321712      0.69620769446323      0.73333938469472
  C   -1.20192147834324     -1.23058417623559     -0.79383762264988
  N   -1.52956041108138     -2.33839284645201     -1.00920779257308
