14

C	-0.511333	0.037429	-1.417966
C	0.0	0.0	0.0
Br	-2.443602	-0.155357	-1.571082
H	1.094923	0.0	0.0
H	-0.266777	1.012591	-1.834322
N	0.193336	-0.941372	-2.350843
O	-0.382135	-1.94677	-2.737823
O	1.324653	-0.578411	-2.652963
N	-0.387668	-1.230977	0.715945
O	-0.697404	-1.148667	1.903579
O	-0.297178	-2.276609	0.075093
C	-0.457842	1.174279	0.711274
N	-0.783484	2.174463	1.237132
F	2.412099	0.0	0.0
