14

C	-0.31879	0.040086	-1.46633
C	0.0	0.0	0.0
Br	0.058534	1.776205	-2.213895
H	1.095957	0.0	0.0
H	0.284673	-0.682064	-2.004484
N	-1.758152	-0.289241	-1.797489
O	-2.600809	-0.092334	-0.931136
O	-1.970642	-0.724982	-2.923105
N	-0.371403	-1.320396	0.547854
O	-0.463371	-2.249071	-0.258009
O	-0.488254	-1.431479	1.762267
C	-0.532649	1.068036	0.810463
N	-0.903809	1.974177	1.461124
F	2.424214	0.0	0.0
