14

C	-0.506997	-0.282993	-1.40393
C	0.0	0.0	0.0
Br	0.680391	-1.416383	-2.433205
H	1.108183	0.0	0.0
H	-1.483332	-0.758842	-1.424992
N	-0.657008	1.007617	-2.160741
O	-1.764303	1.209562	-2.661819
O	0.312719	1.750763	-2.225651
N	-0.384897	-1.104436	0.905904
O	-0.264783	-0.904596	2.112033
O	-0.738135	-2.172934	0.399968
C	-0.502201	1.243949	0.537447
N	-0.900893	2.27106	0.950347
F	2.408508	0.0	0.0
