14

C	-0.291684	0.005576	-1.47358
C	0.0	0.0	0.0
Br	0.053967	1.741274	-2.240985
H	1.096069	0.0	0.0
H	0.345698	-0.709037	-1.985442
N	-1.712898	-0.36864	-1.829236
O	-1.880913	-0.875963	-2.933597
O	-2.587181	-0.1339	-1.001991
N	-0.370249	-1.311267	0.568947
O	-0.519793	-1.395464	1.78419
O	-0.42727	-2.259611	-0.218646
C	-0.550481	1.081107	0.779222
N	-0.940018	1.988002	1.417605
F	2.423294	0.0	0.0
