14

C	-0.288273	-0.180847	-1.462004
C	0.0	0.0	0.0
Br	0.070273	1.441513	-2.444129
H	1.093067	0.0	0.0
H	0.348415	-0.958316	-1.873003
N	-1.708589	-0.592467	-1.76852
O	-2.583333	-0.26382	-0.9759
O	-1.875915	-1.22647	-2.805556
N	-0.37471	-1.225553	0.732753
O	-0.457004	-2.265112	0.072592
O	-0.510184	-1.152717	1.950158
C	-0.552286	1.174265	0.628353
N	-0.944354	2.162558	1.128019
F	2.423876	0.0	0.0
