14

C	-0.516249	-0.057714	-1.428872
C	0.0	0.0	0.0
Br	0.672446	-0.995409	-2.633616
H	1.089677	0.0	0.0
H	-1.489075	-0.532969	-1.517412
N	-0.687009	1.337977	-1.962539
O	-1.808742	1.614254	-2.394768
O	0.281861	2.085621	-1.929911
N	-0.378712	-1.238497	0.721508
O	-0.708052	-2.218792	0.049527
O	-0.270083	-1.228494	1.944915
C	-0.507148	1.140443	0.73137
N	-0.90915	2.087411	1.301852
F	2.413343	0.0	0.0
