15

C	0.0	0.0	0.0
C	-0.335054	-0.296587	-1.477209
Cl	1.846636	0.0	0.0
H	0.253591	0.400515	-2.077439
H	0.04445	-1.303922	-1.691267
N	-0.462804	1.306578	0.369567
H	-0.160573	1.527593	1.311973
H	-1.482	1.247474	0.373509
N	-0.507669	-1.030458	0.832688
H	-0.120761	-1.936894	0.60679
H	-0.387029	-0.833214	1.817177
N	-1.715798	-0.207045	-1.868569
H	-2.038625	0.751275	-1.851672
H	-2.340715	-0.700834	-1.237509
Br	-4.533723	0.0	0.0
