15

C	0.0	0.0	0.0
C	-0.420994	0.185973	-1.450767
Cl	1.884884	0.0	0.0
H	-1.513885	0.237863	-1.390957
H	-0.036677	1.145033	-1.828688
N	-0.452847	1.077148	0.780749
H	-0.093014	1.965347	0.465792
H	-0.245693	0.92443	1.757889
N	-0.453997	-1.213018	0.593921
H	-1.467997	-1.084659	0.680767
H	-0.300488	-1.948502	-0.08889
N	-0.030361	-0.970039	-2.248384
H	0.919465	-0.865907	-2.580369
H	-0.647934	-1.057426	-3.042181
Br	-3.928176	0.0	0.0
