15

C	0.0	0.0	0.0
C	-0.32614	0.219751	-1.497347
Cl	1.847991	0.0	0.0
H	0.0793	1.199408	-1.78251
H	0.241432	-0.525757	-2.06492
N	-0.531818	1.044278	0.778518
H	-0.199515	1.953158	0.493895
H	-0.381979	0.886925	1.765339
N	-0.452442	-1.23301	0.576301
H	-0.175192	-2.011301	-0.008567
H	-1.470919	-1.185857	0.609467
N	-1.71398	0.14182	-1.878192
H	-2.314118	0.692858	-1.269524
H	-2.067291	-0.801679	-1.775415
Br	-4.536384	0.0	0.0
