15

C	0.0	0.0	0.0
C	-0.354391	-0.408691	-1.443155
Cl	1.846333	0.0	0.0
H	0.258145	-1.280317	-1.683114
H	-0.020204	0.408288	-2.096527
N	-0.507987	1.294055	0.280626
H	-0.361669	1.572796	1.241057
H	-0.149298	1.997118	-0.350226
N	-0.448825	-0.998099	0.928937
H	-1.467519	-0.946075	0.928419
H	-0.124701	-0.774469	1.863316
N	-1.732817	-0.716464	-1.710637
H	-2.385028	-0.030428	-1.338876
H	-1.99715	-1.59343	-1.282151
Br	-4.573928	0.0	0.0
