16

C	0.0	0.0	0.0
C	-0.564797	0.210585	-1.412497
Cl	1.786698	0.0	0.0
H	-1.664892	0.170181	-1.252265
N	-0.407447	1.092834	1.004536
O	-0.530329	0.732367	2.164142
O	-0.479628	2.234579	0.578984
C	-0.419316	-1.290057	0.546005
N	-0.627583	-2.374737	0.949434
C	-0.170715	-0.951664	-2.20763
N	0.15235	-1.84292	-2.902242
C	-0.174121	1.491144	-2.155941
H	0.906325	1.652278	-2.143133
H	-0.675043	2.349576	-1.719322
H	-0.495463	1.386003	-3.194353
Br	-3.578034	0.0	0.0
