16

C	0.0	0.0	0.0
C	-0.377773	-0.037907	-1.518681
Cl	1.783855	0.0	0.0
H	0.532567	0.290659	-2.030528
N	-0.351969	1.318691	0.695828
O	-0.288517	2.318054	-0.004417
O	-0.526864	1.268689	1.902966
C	-0.452028	-1.129399	0.799384
N	-0.551152	-2.126734	1.416789
C	-1.37107	0.908752	-2.036905
N	-1.897077	1.665961	-2.769847
C	-0.683949	-1.466572	-1.963426
H	0.125074	-2.142573	-1.671896
H	-0.781574	-1.484064	-3.050463
H	-1.620109	-1.794588	-1.513395
Br	-3.219711	0.0	0.0
