16

C	0.0	0.0	0.0
C	-0.54496	0.063336	-1.45121
F	1.339665	0.0	0.0
H	-1.642996	0.213659	-1.315701
N	-0.602903	1.204494	0.605189
O	-1.757947	0.930499	1.136925
O	-0.291833	2.292932	0.062219
N	-0.433139	-1.145749	0.716983
H	-0.098115	-1.981001	0.254375
H	-1.45315	-1.128814	0.751598
N	-0.398377	-1.278299	-2.102534
O	0.747891	-1.702743	-2.263266
O	-1.427238	-1.88071	-2.402089
C	0.08699	1.049992	-2.306853
N	0.587457	1.73384	-3.12315
H	-2.86872	0.0	0.0
