16

C	0.0	0.0	0.0
C	-0.597619	0.03518	-1.40431
F	1.341747	0.0	0.0
H	-1.706043	0.163261	-1.19468
N	-0.276083	1.427577	0.630011
O	-0.866787	2.284553	-0.018267
O	0.123256	1.549567	1.786496
N	-0.612164	-1.001784	0.713531
H	-0.370282	-0.911452	1.694632
H	-1.666153	-0.785077	0.570649
N	-0.387243	-1.317977	-2.031821
O	0.777629	-1.675622	-2.196012
O	-1.384171	-1.955189	-2.353092
C	-0.019409	1.025167	-2.291751
N	0.418301	1.796297	-3.064815
H	-2.852281	0.0	0.0
