18

C	0.0	0.0	0.0
C	-0.655835	0.130633	-1.359403
Cl	1.796143	0.0	0.0
H	-1.737751	0.353947	-1.045006
N	-0.335608	1.267405	0.823581
O	-0.506096	2.309168	0.201913
O	-0.342148	1.160029	2.042928
C	-0.504679	-1.197767	0.760995
H	-0.185016	-2.112141	0.260605
H	-1.604464	-1.108669	0.756346
H	-0.112564	-1.184516	1.775485
C	-0.701682	-1.193105	-2.126986
H	-1.038439	-0.998645	-3.148195
H	0.278594	-1.677897	-2.169469
H	-1.431056	-1.851909	-1.654316
C	-0.066045	1.158031	-2.20159
N	0.423492	1.899518	-2.974415
H	-3.110679	0.0	0.0
