16

C	-0.387222	-0.041425	-1.485669
C	0.0	0.0	0.0
F	-0.219972	1.265875	-1.959969
H	1.088881	0.0	0.0
H	-0.410894	-0.883154	0.494909
C	0.627972	-0.920107	-2.187853
H	1.619276	-0.629212	-1.821186
H	0.466094	-1.969751	-1.923798
H	0.525346	-0.800201	-3.268643
N	-1.749213	-0.400685	-1.81227
H	-2.362804	0.037754	-1.132585
H	-1.848514	-1.403494	-1.713094
N	-0.641707	1.16511	0.634564
O	0.027206	2.159671	0.89142
O	-1.863514	1.084263	0.849889
F	2.659305	0.0	0.0
