16

C	-0.240544	0.01874	-1.525919
C	0.0	0.0	0.0
F	-0.315501	-1.326756	-1.936564
H	1.089786	0.0	0.0
H	-0.408339	0.909153	0.442514
C	-1.543379	0.656521	-1.96382
H	-1.575776	1.709685	-1.667581
H	-2.378775	0.137006	-1.49125
H	-1.632211	0.582033	-3.049742
N	0.902401	0.60286	-2.162827
H	0.77961	1.603265	-2.24679
H	1.735749	0.420097	-1.570952
N	-0.667353	-1.131643	0.654094
O	-1.842709	-0.965439	1.014196
O	-0.054084	-2.186988	0.786902
F	2.669606	0.0	0.0
