16

C	-0.112216	0.00931	-1.523722
C	0.0	0.0	0.0
F	-1.42344	-0.257481	-1.948568
H	1.090412	0.0	0.0
H	-0.447227	0.865333	0.482817
C	0.29214	1.397841	-1.97582
H	1.288821	1.585972	-1.570071
H	-0.410002	2.150795	-1.610206
H	0.323601	1.41516	-3.06567
N	0.77078	-0.949213	-2.152142
H	1.674404	-0.774724	-1.691575
H	0.4823	-1.862912	-1.817859
N	-0.551656	-1.183208	0.659887
O	-0.387397	-2.295548	0.149863
O	-1.146465	-1.013557	1.729308
F	2.623722	0.0	0.0
