11

C	0.0	0.0	0.0
C	-0.504995	0.432026	-1.352874
Br	2.037877	0.0	0.0
H	-0.113449	-0.210079	-2.142373
H	-0.206406	-1.050697	0.190461
H	-0.206591	1.46278	-1.563369
H	-1.597677	0.364764	-1.304287
N	-0.51858	0.779128	1.024673
H	-0.285036	0.49222	1.959937
H	-0.456485	1.773904	0.88612
Cl	-4.061294	0.0	0.0
