11

C	0.0	0.0	0.0
C	-0.444054	-0.199572	-1.43996
Br	1.970302	0.0	0.0
H	-1.536769	-0.235941	-1.4367
H	-0.274031	-0.866531	0.602392
H	-0.038957	-1.121954	-1.86394
H	-0.108012	0.642949	-2.052686
N	-0.503224	1.172097	0.653605
H	-0.432569	1.956159	0.012199
H	-1.504409	0.995091	0.785953
Cl	-3.669597	0.0	0.0
