16

C	-0.399588	-0.112523	-1.483323
C	0.0	0.0	0.0
F	-0.226457	1.170723	-2.007388
H	1.09159	0.0	0.0
C	0.484045	-1.04736	-2.287005
H	0.260784	-2.085009	-2.048941
H	1.522527	-0.829446	-2.027611
H	0.301562	-0.857599	-3.347304
C	-1.830169	-0.441537	-1.64638
N	-2.957513	-0.717696	-1.822491
N	-0.371383	-1.15769	0.792536
O	-0.503697	-2.240415	0.197588
O	-0.381736	-1.026844	2.022502
C	-0.488001	1.214979	0.611225
N	-0.802982	2.246963	1.079849
H	2.425751	0.0	0.0
