16

C	-0.407068	-0.05158	-1.478991
C	0.0	0.0	0.0
F	0.291351	-1.048339	-2.135741
H	1.091441	0.0	0.0
C	-1.892275	-0.277855	-1.711074
H	-2.472975	0.522965	-1.250342
H	-2.090862	-0.294755	-2.7852
H	-2.165873	-1.238396	-1.277354
C	-0.001322	1.227067	-2.10886
N	0.261622	2.218914	-2.680633
N	-0.401235	-1.148844	0.773485
O	-0.420855	-1.016162	2.009884
O	-0.52778	-2.23675	0.182461
C	-0.463429	1.215843	0.625994
N	-0.781328	2.251886	1.086141
H	2.353957	0.0	0.0
