16

C	-0.360581	0.056866	-1.470801
C	0.0	0.0	0.0
F	-1.744813	-0.046998	-1.6571
H	1.095445	0.0	0.0
C	0.117534	1.378643	-2.048739
H	-0.053916	1.389866	-3.127401
H	1.18669	1.485158	-1.834769
H	-0.432477	2.197642	-1.585346
C	0.256838	-1.035943	-2.247994
N	0.715718	-1.798419	-3.013406
N	-0.404741	-1.222282	0.676675
O	-0.505217	-1.180761	1.909281
O	-0.486866	-2.251969	-0.004494
C	-0.460477	1.159875	0.724789
N	-0.75745	2.15772	1.272718
H	2.395074	0.0	0.0
