16

C	-0.406276	-0.044212	-1.484685
C	0.0	0.0	0.0
F	-0.237154	1.261975	-1.951448
H	1.094082	0.0	0.0
C	0.481176	-0.936457	-2.330315
H	0.272784	-0.727251	-3.382371
H	1.518001	-0.697444	-2.085621
H	0.291497	-1.98359	-2.111317
C	-1.838513	-0.365562	-1.656856
N	-2.973766	-0.630429	-1.801306
N	-0.364284	-1.193243	0.741469
O	-0.320734	-1.127066	1.975966
O	-0.54515	-2.239653	0.09482
C	-0.485224	1.183196	0.67336
N	-0.83719	2.17363	1.200441
H	2.424075	0.0	0.0
