16

C	-0.384622	-0.032886	-1.464433
C	0.0	0.0	0.0
F	-1.774808	-0.041029	-1.622224
H	1.092488	0.0	0.0
C	0.186274	1.197306	-2.149022
H	1.26441	1.224481	-1.959669
H	-0.009547	1.144437	-3.221278
H	-0.281074	2.093486	-1.737967
C	0.134612	-1.227278	-2.158533
N	0.532287	-2.083458	-2.856218
N	-0.420744	-1.159269	0.777536
O	-0.668894	-2.209575	0.174207
O	-0.379221	-1.044326	2.007215
C	-0.431368	1.218161	0.647242
N	-0.703094	2.254493	1.132951
H	2.408656	0.0	0.0
