16

C	-0.404673	-0.021998	-1.48501
C	0.0	0.0	0.0
F	-0.236227	1.292222	-1.929729
H	1.094156	0.0	0.0
C	0.484595	-0.900255	-2.343963
H	1.520542	-0.671069	-2.085309
H	0.286089	-0.667462	-3.392834
H	0.287889	-1.951325	-2.149677
C	-1.836605	-0.342192	-1.662481
N	-2.971213	-0.606522	-1.813696
N	-0.361449	-1.205284	0.723149
O	-0.543418	-2.242008	0.061848
O	-0.311872	-1.15873	1.957526
C	-0.489949	1.172344	0.688676
N	-0.872243	2.14937	1.220082
H	2.426749	0.0	0.0
