16

C	-0.427821	-0.181226	-1.461445
C	0.0	0.0	0.0
F	0.271044	-1.222995	-2.041736
H	1.093263	0.0	0.0
C	-1.914144	-0.438391	-1.648834
H	-2.494442	0.39415	-1.246626
H	-2.171378	-1.360799	-1.130811
H	-2.131002	-0.547278	-2.714362
C	-0.044579	1.043251	-2.203508
N	0.19312	1.97512	-2.878765
N	-0.375675	-1.078769	0.879116
O	-0.344311	-0.840861	2.098476
O	-0.513609	-2.214917	0.389286
C	-0.461629	1.263142	0.525875
N	-0.808809	2.320883	0.907996
H	2.35183	0.0	0.0
