16

C	-0.415847	-0.028873	-1.482132
C	0.0	0.0	0.0
F	-0.268048	1.285078	-1.932549
H	1.095441	0.0	0.0
C	0.473511	-0.898265	-2.349997
H	0.254818	-0.673312	-3.396443
H	1.5099	-0.654102	-2.109739
H	0.295134	-1.95102	-2.147923
C	-1.846635	-0.363831	-1.642903
N	-2.98505	-0.604501	-1.804775
N	-0.357552	-1.200652	0.72951
O	-0.317317	-1.147317	1.963916
O	-0.523869	-2.243088	0.073083
C	-0.484733	1.176203	0.68579
N	-0.864246	2.162634	1.201508
H	2.421357	0.0	0.0
