16

C	-0.408654	0.017598	-1.458464
C	0.0	0.0	0.0
F	-1.781859	-0.229848	-1.591287
H	1.094478	0.0	0.0
C	-0.107168	1.375194	-2.067078
H	-0.335349	1.351806	-3.134005
H	-0.7232	2.132953	-1.581747
H	0.950649	1.606092	-1.916043
C	0.292011	-1.01172	-2.252407
N	0.813082	-1.720603	-3.030306
N	-0.359438	-1.229767	0.691666
O	-0.47829	-1.179704	1.921664
O	-0.376606	-2.268945	0.021869
C	-0.482363	1.150356	0.72537
N	-0.832029	2.14338	1.251397
H	2.393864	0.0	0.0
