16

C	-0.377091	-0.032277	-1.487607
C	0.0	0.0	0.0
F	0.265123	-1.06799	-2.132042
H	1.092971	0.0	0.0
C	-1.867212	-0.171119	-1.742767
H	-2.052756	-0.190232	-2.818799
H	-2.206677	-1.107815	-1.304173
H	-2.402948	0.666709	-1.29829
C	0.106948	1.217202	-2.112214
N	0.371185	2.20369	-2.691861
N	-0.438983	-1.159912	0.743077
O	-0.300401	-2.264094	0.18954
O	-0.772244	-1.010336	1.93231
C	-0.468826	1.217955	0.626361
N	-0.752042	2.251282	1.115153
H	2.367749	0.0	0.0
