12

C	0.0	0.0	0.0
C	-0.383533	-0.122396	-1.489382
F	1.372715	0.0	0.0
H	0.235177	0.628055	-2.000285
H	-0.36391	0.941318	0.399317
C	-0.452441	-1.121575	0.829132
N	-0.556615	-2.063097	1.524913
C	-1.791121	0.140398	-1.873443
N	-2.546471	0.402284	-2.746603
C	0.057154	-1.423341	-2.011977
N	0.433651	-2.447861	-2.444759
F	-2.360442	0.0	0.0
