12

C	0.0	0.0	0.0
C	-0.296633	-0.052566	-1.52411
F	1.372693	0.0	0.0
H	0.364003	0.709332	-1.965488
H	-0.389666	0.913137	0.428899
C	-0.476663	-1.157076	0.760837
N	-0.550193	-2.112359	1.443347
C	-1.667569	0.212538	-1.997226
N	-2.564483	0.32045	-2.748723
C	0.15564	-1.338705	-2.067232
N	0.510483	-2.358012	-2.529366
F	-2.288714	0.0	0.0
