12

C	0.0	0.0	0.0
C	-0.35385	-0.060163	-1.504591
F	1.372092	0.0	0.0
H	0.16977	-0.948681	-1.887591
H	-0.364528	0.905141	0.470631
C	-0.448412	-1.195175	0.716105
N	-0.529667	-2.196401	1.32423
C	0.263534	1.099596	-2.166799
N	0.772107	2.022684	-2.684894
C	-1.772584	-0.16792	-1.914063
N	-2.566313	-0.247738	-2.787672
F	-2.34102	0.0	0.0
