12

C	0.0	0.0	0.0
C	-0.371836	0.125723	-1.495292
F	1.372054	0.0	0.0
H	0.102533	-0.729283	-1.996114
H	-0.378405	0.8373	0.575721
C	-0.461301	-1.271071	0.565964
N	-0.557524	-2.344382	1.034011
C	0.27146	1.330722	-2.040781
N	0.801481	2.283949	-2.475186
C	-1.806085	0.123709	-1.87548
N	-2.591516	0.165279	-2.760683
F	-2.365747	0.0	0.0
