12

C	0.0	0.0	0.0
C	-0.376097	-0.015387	-1.496326
F	1.372246	0.0	0.0
H	0.152422	-0.875931	-1.925974
H	-0.375834	0.885136	0.500355
C	-0.445192	-1.217305	0.690422
N	-0.544132	-2.236581	1.265457
C	0.207684	1.17866	-2.126135
N	0.687983	2.127243	-2.623716
C	-1.808251	-0.121614	-1.871988
N	-2.588281	-0.210372	-2.759285
F	-2.361692	0.0	0.0
