12

C	0.0	0.0	0.0
C	-0.387741	0.03886	-1.49225
F	1.372212	0.0	0.0
H	0.149407	-0.795975	-1.962355
H	-0.371987	0.866987	0.534764
C	-0.443655	-1.241264	0.646939
N	-0.540521	-2.281761	1.184122
C	0.166841	1.269256	-2.076117
N	0.615854	2.252373	-2.53445
C	-1.824053	-0.079035	-1.855607
N	-2.601483	-0.153996	-2.746387
F	-2.370799	0.0	0.0
