16
Coordinates from ORCA-job run
  C   -0.45312715140221      0.35039081906344      0.40859264547230
  C   0.98607235707452     -0.17545714491801      0.25377738586034
  H   -0.44498819088062      1.07553816039027      1.23695910427174
  H   1.29541612739844     -0.63162962480938      1.20067442467705
  C   -1.40676629751002     -0.78239820139439      0.75186645530601
  H   -1.08174128684606     -1.30217081416042      1.65579807160012
  H   -1.44556665047880     -1.50303174116198     -0.06412792243498
  H   -2.41091135359835     -0.38814124898818      0.93315184908334
  N   -0.83536272977834      0.95485658872566     -0.86850877571712
  H   -1.84227388718786      1.04269387610299     -0.92550898146812
  H   -0.44062241371729      1.88493807673686     -0.95222606133485
  C   1.87701790592501      0.98190050010359      0.00614671986776
  N   2.56334257216798      1.90627358420207     -0.22981807032197
  N   1.02510248872075     -1.18121105519687     -0.79348717146387
  H   1.97727358623990     -1.46987630650085     -0.98022791901751
  H   0.63713492387295     -0.76267546819478     -1.63206175438024
