16
Coordinates from ORCA-job run
  C   -0.51376695648439      0.03694375744296      0.46232701394261
  C   0.77690042192094      0.04023765376847     -0.38923378647217
  H   -0.25227244629781     -0.42177115735868      1.42608596557093
  H   0.54176476708239      0.53467396646866     -1.33915726117512
  C   -1.61807854439846     -0.77921552277307     -0.18773620110783
  H   -1.33713448082310     -1.82683626152918     -0.30559990632797
  H   -1.85837567993468     -0.37693936854421     -1.17812333762364
  H   -2.51712377229949     -0.72307293328535      0.42755603249824
  N   -0.98733425509491      1.38400816187125      0.73449814453871
  H   -1.39245127971058      1.77469994141092     -0.11023318257213
  H   -0.19121379506776      1.96086491867448      0.98506388141266
  C   1.21832406432550     -1.33548269354951     -0.68874529955260
  N   1.59599578707650     -2.43209343658272     -0.87899757152520
  N   1.79945135929924      0.83679380824989      0.28615907774612
  H   2.58444589002593      1.00324766085463     -0.33235171049898
  H   2.15086892038068      0.32494150488146      1.08848814114638
