18

C	0.0	0.0	0.0
C	-0.490852	0.064945	-1.451572
F	1.39278	0.0	0.0
H	-1.579374	0.199645	-1.385612
N	-0.440571	1.202378	0.656008
H	-0.181708	1.148135	1.636766
H	-1.461674	1.20629	0.612959
C	-0.413064	-1.285866	0.698777
H	0.056877	-2.159152	0.241118
H	-1.500345	-1.375886	0.67492
H	-0.080272	-1.228421	1.739886
C	-0.185361	-1.198607	-2.262339
H	-0.793976	-2.027436	-1.900636
H	-0.427069	-1.037235	-3.314841
H	0.872436	-1.459715	-2.18407
C	0.099686	1.230927	-2.112838
N	0.589869	2.119026	-2.704673
Cl	-3.662841	0.0	0.0
