18

C	0.0	0.0	0.0
C	-0.323248	-0.050288	-1.537778
F	1.428072	0.0	0.0
H	0.65622	0.12506	-1.996424
N	-0.445441	1.249282	0.540569
H	-0.250471	1.250606	1.537505
H	-1.462925	1.260904	0.442263
C	-0.424109	-1.223135	0.783861
H	-1.513717	-1.297752	0.760571
H	-0.088904	-1.104892	1.819347
H	0.020958	-2.1317	0.374546
C	-1.285994	1.005628	-2.093362
H	-2.290894	0.848419	-1.705517
H	-1.304583	0.926733	-3.183844
H	-0.935777	1.999601	-1.817489
C	-0.729483	-1.387968	-1.981121
N	-1.025342	-2.459136	-2.360471
Cl	-3.801436	0.0	0.0
