18

C	0.0	0.0	0.0
C	-0.234563	0.292244	-1.520769
F	1.39906	0.0	0.0
H	0.32113	1.225996	-1.688612
N	-0.48828	1.024314	0.862862
H	-1.484993	0.875196	1.011578
H	-0.369899	1.937559	0.438646
C	-0.510667	-1.346041	0.449899
H	-0.218177	-1.494172	1.491615
H	-0.078141	-2.139738	-0.160713
H	-1.601462	-1.369462	0.376877
C	-1.668097	0.470678	-2.004074
H	-2.184298	1.235824	-1.429165
H	-2.257882	-0.434271	-1.884204
H	-1.657866	0.757318	-3.059731
C	0.445173	-0.726675	-2.328597
N	0.959801	-1.547357	-2.993124
Cl	-4.163326	0.0	0.0
