18

C	0.0	0.0	0.0
C	-0.250522	-0.247256	-1.517898
F	1.40048	0.0	0.0
H	0.33762	0.551128	-1.98486
N	-0.478612	1.31346	0.333206
H	-1.495351	1.291677	0.234772
H	-0.29684	1.474889	1.319624
C	-0.487238	-1.106569	0.907049
H	-0.080228	-2.0755	0.61115
H	-0.16868	-0.892062	1.931745
H	-1.580068	-1.129376	0.874169
C	-1.669897	-0.205817	-2.073936
H	-2.141783	0.753429	-1.874338
H	-2.315025	-0.959241	-1.631425
H	-1.623009	-0.355964	-3.156597
C	0.391274	-1.511879	-1.896358
N	0.875804	-2.53176	-2.219539
Cl	-4.127021	0.0	0.0
