18

C	0.0	0.0	0.0
C	-0.269095	-0.289219	-1.514057
F	1.379974	0.0	0.0
H	0.151893	0.586495	-2.028321
N	-0.487155	1.268865	0.440129
H	-0.37113	1.967929	-0.284038
H	-1.4809	1.189075	0.643176
C	-0.51481	-1.092714	0.907222
H	-0.181274	-0.884375	1.926007
H	-1.607214	-1.115149	0.88117
H	-0.11967	-2.060133	0.594024
C	-1.716807	-0.485547	-1.949538
H	-2.379102	0.255234	-1.509212
H	-1.769055	-0.408353	-3.039103
H	-2.105698	-1.454375	-1.638978
C	0.537503	-1.435045	-1.953127
N	1.148064	-2.366162	-2.327752
Cl	-4.295186	0.0	0.0
