14

C	0.0	0.0	0.0
C	-0.264546	0.317634	-1.489309
Cl	1.829858	0.0	0.0
H	0.456866	-0.271827	-2.055265
H	0.02105	1.368644	-1.59826
N	-0.568551	0.861885	0.920024
H	-0.454028	0.469991	1.848656
H	-1.584266	0.864234	0.70355
N	-0.290425	-1.503145	0.28132
O	-0.300667	-2.270048	-0.672435
O	-0.426161	-1.805389	1.46002
C	-1.525203	0.108826	-2.208707
N	-2.251127	0.019273	-3.129856
Cl	-3.432122	0.0	0.0
