14

C	0.0	0.0	0.0
C	-0.281704	0.177653	-1.528176
Cl	1.771542	0.0	0.0
H	0.477839	-0.392956	-2.061855
H	-0.07501	1.235858	-1.723995
N	-0.53471	0.894709	0.936022
H	-1.560829	0.764726	0.896373
H	-0.307527	1.842216	0.658821
N	-0.38607	-1.435649	0.408056
O	-0.613598	-1.647285	1.586932
O	-0.344755	-2.268929	-0.490862
C	-1.529209	-0.176428	-2.208795
N	-2.260354	-0.436325	-3.092972
Cl	-3.382968	0.0	0.0
