14

C	0.0	0.0	0.0
C	-0.55505	0.380551	-1.356518
Cl	1.829205	0.0	0.0
H	-0.379462	1.456976	-1.469546
H	-1.64754	0.236347	-1.26871
N	-0.509411	0.84224	0.987464
H	-1.535625	0.81992	0.892432
H	-0.264118	0.477822	1.902678
N	-0.297514	-1.50802	0.297728
O	-0.388003	-2.276253	-0.652482
O	-0.371136	-1.80831	1.484996
C	-0.061261	-0.322878	-2.539134
N	0.217078	-0.802345	-3.580922
Cl	-3.524575	0.0	0.0
