14

C	0.0	0.0	0.0
C	-0.279225	-0.192306	-1.50927
Cl	1.776544	0.0	0.0
H	0.378003	-0.996095	-1.84112
H	0.092556	0.732758	-1.9589
N	-0.550308	1.149169	0.55498
H	-0.366571	1.166085	1.551985
H	-1.572187	1.065315	0.412068
N	-0.349023	-1.303393	0.778133
O	-0.478445	-1.177983	1.988947
O	-0.401914	-2.348845	0.144226
C	-1.571832	-0.490804	-2.132601
N	-2.31105	-0.78589	-2.999591
Cl	-3.415804	0.0	0.0
