14

C	0.0	0.0	0.0
C	-0.54182	-0.242744	-1.40481
Cl	1.766691	0.0	0.0
H	-0.430038	0.705788	-1.936602
H	-1.61817	-0.443189	-1.299616
N	-0.536725	1.18045	0.526444
H	-0.296854	1.250292	1.508906
H	-1.561224	1.100549	0.441045
N	-0.332699	-1.24158	0.895024
O	-0.309267	-1.039597	2.103659
O	-0.550357	-2.310505	0.342248
C	0.123345	-1.288262	-2.169864
N	0.62745	-2.093707	-2.858823
Cl	-3.52519	0.0	0.0
