14

C	0.0	0.0	0.0
C	-0.261578	0.194966	-1.527457
Cl	1.771516	0.0	0.0
H	0.072269	1.219206	-1.731424
H	0.428159	-0.46618	-2.053001
N	-0.534687	0.891781	0.940088
H	-0.333433	1.840845	0.64821
H	-1.557956	0.747819	0.917392
N	-0.406074	-1.430745	0.394494
O	-0.422421	-2.251145	-0.515617
O	-0.603675	-1.652121	1.577563
C	-1.541743	0.003837	-2.213828
N	-2.288745	-0.119539	-3.114577
Cl	-3.386826	0.0	0.0
