16
Coordinates from ORCA-job run
  C   -0.57019242706339     -0.39419096048888      0.31456967302624
  C   0.95784397107285     -0.24409955966334      0.24016788530789
  Cl  -0.97203876978032     -2.03798212697177      0.84853909678314
  H   1.34518575543489     -0.51402430077385      1.22493564699150
  N   -1.00849563372455      0.55082782521729      1.43646547835010
  O   -0.36077935468651      0.49833585209002      2.47414604759398
  O   -1.97389085069703      1.27151167547965      1.22069942701175
  C   -1.28210256305040     -0.05956816096380     -0.96936221785262
  H   -2.35770266743021     -0.17014451497397     -0.84610904011456
  H   -1.07251362638068      0.97370488674239     -1.24765676508820
  H   -0.94222508987203     -0.73805582317582     -1.75378821431349
  N   1.26791006746519      1.15052889366104     -0.02872242613267
  H   1.39049154340380      1.32192286440365     -1.01828592874300
  H   2.11146515865990      1.42999079932483      0.45319715195431
  C   1.50471582321199     -1.17795730907061     -0.75479167565053
  N   1.96232866343648     -1.85980004083683     -1.59500413912383
