16
Coordinates from ORCA-job run
  C   -0.49232335273313     -0.02416242773362      0.39274658913332
  C   0.84864486129130      0.10687845201014     -0.35109532742699
  Cl  -0.20664327785240     -0.64952187660577      2.01608805199749
  H   0.61154783651789      0.50341701993873     -1.34121374110825
  N   -1.08972920143010      1.38565207800781      0.48198370056620
  O   -1.12591479775612      1.97217291618891     -0.59746866310963
  O   -1.51111995710044      1.80146715954426      1.54879396225376
  C   -1.48689378782508     -0.89092040508403     -0.34948020455648
  H   -1.07227235827366     -1.89098658060251     -0.45847925593259
  H   -2.42325759624725     -0.93838243448073      0.20911772109117
  H   -1.67427934745013     -0.46448056291572     -1.33655562783146
  N   1.44603934358537     -1.20469698317245     -0.51335939286056
  H   2.17584763584365     -1.16486047029335     -1.21371428728973
  H   1.86109525453589     -1.51323872876628      0.35773594690841
  C   1.71049334040109      1.09701366258429      0.32473018523216
  N   2.42776540449312      1.87764918138033      0.83117034293317
