16
Coordinates from ORCA-job run
  C   -0.55894979917370     -0.41123176745951      0.31225366826053
  C   0.96582722710334     -0.25251475286699      0.19680716011700
  Cl  -0.94059213952801     -2.08026602571238      0.77841192285991
  H   1.38515363976387     -0.57011380092328      1.15368636513500
  N   -0.96405285891696      0.47634960301016      1.49209368427112
  O   -0.27502895530621      0.38774741131831      2.50037473073260
  O   -1.94799542612185      1.18995287552390      1.34766966385014
  C   -1.31164316849408     -0.01663209547929     -0.93062849949253
  H   -1.11300848829299      1.02987902756769     -1.16356901543957
  H   -0.99431254563392     -0.65353912753248     -1.75802495757677
  H   -2.38245044748637     -0.13772552319324     -0.77985184948164
  N   1.26463269558307      1.15450391543188     -0.01383995835721
  H   1.37015884650032      1.37221557918944     -0.99612765423798
  H   2.11300213088024      1.41773613277885      0.46841678838988
  C   1.48083950133399     -1.13449144271159     -0.86056598146943
  N   1.90941978778929     -1.77387000894147     -1.74810606756105
