16
Coordinates from ORCA-job run
  C   -0.46888714470216     -0.45454757849107      0.28240916065842
  C   1.05993038674513     -0.26125619778856      0.10808867743407
  Cl  -0.79127866396210     -2.15023116097767      0.69443375273856
  H   1.53292802447563     -0.70577849373522      0.98712550041549
  N   -0.85111132913221      0.36762700690144      1.51455098412460
  O   -0.08980292140834      0.29520402822173      2.47433814322935
  O   -1.87827053980207      1.03375649375529      1.45958706882025
  C   -1.29733639914140     -0.03586162958315     -0.90480147985155
  H   -2.35572330014709     -0.18326976626724     -0.69987562542717
  H   -1.13990174918403      1.02116275412552     -1.12640998657201
  H   -1.01243437148991     -0.63804417102726     -1.76821151761715
  N   1.51377587874918      1.10490582181844      0.00267943130528
  H   1.38967962314853      1.60774928866110      0.87017684075518
  H   1.09557477212560      1.60541330782378     -0.76901911332099
  C   1.48568822557504     -1.01555093389697     -1.07713972866015
  N   1.80616950815019     -1.59227876954016     -2.04793210803216
