16
Coordinates from ORCA-job run
  C   -0.55696946379325     -0.31806589371464      0.29467624598334
  C   0.92129988808212     -0.31796876638905     -0.14647642210092
  Cl  -0.75945726640626     -1.62777894710201      1.47048776361743
  H   1.12533883494090     -1.35035795940068     -0.47135123006409
  N   -0.80977896304347      1.02692125631577      0.98050439006915
  O   -0.76715685293968      1.97695175294068      0.20650801028178
  O   -1.01278557089958      1.06937181946664      2.18154495278190
  C   -1.54115577270324     -0.48515351045286     -0.84173615080856
  H   -1.45096265621462      0.34655012508752     -1.53952064974259
  H   -2.55811815584740     -0.51876811295811     -0.44755359768646
  H   -1.34093441629019     -1.42298655919561     -1.36308545147675
  N   1.75289419022054      0.14579440684503      0.95227275337350
  H   2.69752330618190      0.31973236994199      0.63346592971473
  H   1.78198771568916     -0.55592722284331      1.68223906706874
  C   1.13756373176906      0.53828766214309     -1.31779624339118
  N   1.38171145125400      1.17239757931553     -2.27517936762002
