16
Coordinates from ORCA-job run
  C   -0.49687708993072      0.03664215654914      0.38471050967546
  C   0.84921559226059      0.06266431778309     -0.36106432214571
  Cl  -0.21681536983565     -0.28695573723430      2.09505870559379
  H   0.61449480804829      0.26950183333197     -1.40784003461512
  N   -1.12448485208556      1.42642982603908      0.22069864941550
  O   -1.14425379835230      1.82208751748502     -0.94276260114425
  O   -1.58470387551225      2.00352846928004      1.19208768580576
  C   -1.46613991362699     -0.96815621920703     -0.20046027702771
  H   -1.65373100107652     -0.72365117943563     -1.24761867707441
  H   -1.02853923317182     -1.96205350530584     -0.13196594268617
  H   -2.40615721838556     -0.93946024615473      0.35320525935877
  N   1.47608056624723     -1.24272607747419     -0.28106627610235
  H   2.21305055078552     -1.31201039550892     -0.97161929702498
  H   1.88769677744037     -1.38037654776022      0.63436889390807
  C   1.68458032391155      1.17447966181076      0.13430952835704
  N   2.39858373328379      2.02005612580177      0.52895819570632
