16
Coordinates from ORCA-job run
  C   -0.47588915694341     -0.26687529426320      0.31913470996663
  C   0.97524805710104     -0.34308271403118     -0.22828228595598
  Cl  -0.61570987624596     -1.41729317416856      1.66769410004621
  H   1.04727106075691     -1.36149444306844     -0.62948830411915
  N   -0.77874521076119      1.11505646232088      0.89488845641399
  O   -1.93197384229494      1.31514963937388      1.24996838881783
  O   0.14495881971478      1.92367271074572      0.95246490248617
  C   -1.52048920927892     -0.57150489695020     -0.73136026785949
  H   -1.49707660385419      0.19007181969217     -1.51394583144909
  H   -2.50996085331937     -0.58609851705771     -0.27789907877045
  H   -1.31521552679609     -1.54727673405339     -1.17515160824806
  N   2.08945976291241     -0.16013340885078      0.66825365482524
  H   2.10022203701879     -0.88569591956119      1.37228302491970
  H   2.03998718013350      0.74577073537893      1.11315262622470
  C   1.09178600934340      0.57031795128160     -1.37463010986309
  N   1.15612735251322      1.28041578321150     -2.30708237743512
