16
Coordinates from ORCA-job run
  C   -0.62485250605250     -0.35692772003419      0.24828732274835
  C   0.91169356859351     -0.40590406257911      0.18564088609734
  Cl  -1.25177094452360     -1.98679008095814      0.56876915234559
  H   1.25074887557479     -0.89324687378297      1.10242801015806
  N   -0.95046992758387      0.48294668767980      1.48544400362958
  O   -0.25159647855221      0.29242323834540      2.47418075154458
  O   -1.89481549966768      1.25719130671996      1.40766725286840
  C   -1.26750502063670      0.23737030217640     -0.97605972849092
  H   -0.89270590112673      1.25076312526234     -1.12359663983721
  H   -2.34811461560970      0.27610784725633     -0.85622527998365
  H   -1.02631039189564     -0.38076197285072     -1.84238092355424
  N   1.40893960991784      0.96107669923475      0.11956537699802
  H   2.09390752852408      1.13082917733734      0.84204708980755
  H   1.81280621491171      1.17929648273842     -0.78059789758946
  C   1.33414435227684     -1.22312478674671     -0.95681746634003
  N   1.69790113584991     -1.82224936979895     -1.89935191040201
