16
Coordinates from ORCA-job run
  C   -0.51581895354160     -0.01535311409989      0.36146852653100
  C   0.86672576170220      0.10286148892287     -0.30453672189045
  Cl  -0.32657458739373     -0.60844012808242      2.01083455650180
  H   0.68770958366373      0.47592027733850     -1.31570306656192
  N   -1.11900696057072      1.39462195677621      0.38798988663246
  O   -1.07979431262431      1.96574057623768     -0.69960298904229
  O   -1.61712647556350      1.82325432828398      1.41591634406150
  C   -1.46427512294343     -0.89792451803771     -0.42137533455361
  H   -1.04097639915080     -1.89806756511936     -0.48899326444430
  H   -1.59580296433227     -0.48883569549869     -1.42475968110756
  H   -2.43098717861349     -0.93951666386725      0.08335226112106
  N   1.47514546806735     -1.21004072586990     -0.40114806432346
  H   1.84010193361297     -1.49668370945530      0.49939033038692
  H   2.24395762142067     -1.18420233914557     -1.05916634155558
  C   1.68734123132476      1.10763648743474      0.40000375707836
  N   2.38938135494220      1.86802934418209      0.95632980116605
