16
Coordinates from ORCA-job run
  C   -0.42123731381252      0.00162068133936      0.40216436515407
  C   0.92523693676009      0.13765644662785     -0.36287379687628
  Cl  -0.14003119063485     -0.73150902356847      1.97837369833204
  H   0.68299713431867      0.63688588913942     -1.30606154399452
  N   -0.96370602285653      1.42345628994460      0.57606203568421
  O   -1.12724159601364      2.01120852993563     -0.49165326461052
  O   -1.19244774522808      1.86262067631896      1.69105427247494
  C   -1.45662996718574     -0.78781691778928     -0.37243590921669
  H   -1.61014911694864     -0.33716729547443     -1.35400533673059
  H   -2.40250424422900     -0.79303875865968      0.17187927376044
  H   -1.12469572319823     -1.81997135422572     -0.48389005303041
  N   1.61220727855363     -1.09422542497795     -0.66319372908013
  H   1.10762842672816     -1.64225812362781     -1.34622703107883
  H   1.77268932502738     -1.64370109754954      0.17140054524523
  C   1.81702897918567      1.03171669373759      0.38932215939313
  N   2.52185483953362      1.74452278882948      1.00008431457391
