16
Coordinates from ORCA-job run
  C   -0.55543779072791     -0.31452225711701      0.30044151657955
  C   0.91862268517935     -0.32182407254436     -0.15418244782130
  Cl  -0.75366276910520     -1.62391208215143      1.47708467787544
  H   1.11487935507323     -1.35490738847603     -0.48138390700129
  N   -0.79471512896779      1.03129418399781      0.98951965125248
  O   -0.99192609289966      1.07366113807237      2.19151278050220
  O   -0.74818456719681      1.98217196405829      0.21680360212877
  C   -1.55132245143229     -0.47506160258795     -0.82672737122688
  H   -1.36055259121216     -1.41299629644102     -1.35140384539609
  H   -2.56454629101602     -0.50436739740397     -0.42270024360280
  H   -1.46386146390370      0.35726633938049     -1.52411332672222
  N   1.76250118213532      0.13646505131764      0.93787604482082
  H   2.70349656239035      0.31162704107706      0.60914810546329
  H   1.79979937215100     -0.56906285737051      1.66374690233793
  C   1.12835452678640      0.53291974014201     -1.32776561822189
  N   1.35555546274585      1.15224849604660     -2.29885652096800
