16
Coordinates from ORCA-job run
  C   -0.59542026007825     -0.28010015145120      0.29646793192553
  C   0.89487902313946     -0.45160733830509     -0.05171857032287
  Cl  -1.03782199708717     -1.51425962754959      1.48290131296753
  H   0.96841935639986     -1.49177890045590     -0.38784679945883
  N   -0.83694524667046      1.08801804542090      0.93149429341498
  O   0.08540039913967      1.89907948072918      0.87945268234933
  O   -1.95314073560993      1.29449760699076      1.38348174710098
  C   -1.50842310190443     -0.36725809433093     -0.90978697113010
  H   -1.30512853816825      0.45462367933028     -1.59991676997181
  H   -2.54613193006831     -0.31641218547629     -0.58232107084322
  H   -1.34434238799281     -1.31541023553093     -1.42506576940750
  N   1.75667813819811     -0.30204890397278      1.09990079369524
  H   2.62424630509410     -0.80065156303563      0.95659978720719
  H   1.95685749553788      0.67440379975873      1.26758544662061
  C   1.25559059180495      0.39238058040508     -1.20882218528973
  N   1.58628288826563      1.03752380747341     -2.13340585885730
