16
Coordinates from ORCA-job run
  C   -0.43451404199954      0.02571709525710      0.38722969180612
  C   0.93200062471191      0.13003700803984     -0.34726515581587
  Cl  -0.18483532316840     -0.55247650694698      2.03159996543191
  H   0.70681495645378      0.53189066858396     -1.33984906795368
  N   -1.01872753392959      1.44128208561286      0.41376807285948
  O   -1.29505719412883      1.97299915821432      1.47647219386729
  O   -1.15839854287946      1.92660799803075     -0.70744385489322
  C   -1.42368251784334     -0.86017317703080     -0.34200005562488
  H   -1.56175465086394     -0.50121158127163     -1.36284599765699
  H   -2.38435582226958     -0.84861550884115      0.17560575827219
  H   -1.05840085238846     -1.88701685114024     -0.35392918715513
  N   1.66150075795333     -1.10305523436790     -0.51024286833541
  H   1.81184585693873     -1.56663762827845      0.37655307120723
  H   1.19489576718061     -1.72792120673587     -1.15290682865626
  C   1.77446500710689      1.11606136969947      0.34429555721706
  N   2.43820350912592      1.90251231117469      0.90895870543013
