16
Coordinates from ORCA-job run
  C   -0.61254959581027     -0.37568671731993      0.24976930984596
  C   0.92145025780854     -0.40351472218039      0.15416912356983
  Cl  -1.21649588092883     -2.03078942338853      0.46026235066114
  H   1.27956037031676     -0.91214579398181      1.05176892201293
  N   -0.91568738999784      0.37112241552801      1.55136351713093
  O   -0.27366963927793      0.02787795876533      2.53572685036250
  O   -1.77971212577922      1.23722229125707      1.51563083976351
  C   -1.28767571376431      0.29551013214458     -0.91687040342452
  H   -0.95135728442247      1.33002992302586     -0.99207290310195
  H   -2.36740760292640      0.29516727755065     -0.78081084938642
  H   -1.04419572097441     -0.24779466882822     -1.83157263178413
  N   1.40485249246731      0.96749082977604      0.15823876375219
  H   2.28537964648776      1.03561443231775      0.65010162701619
  H   1.53303890883461      1.32084515569056     -0.78113034632104
  C   1.33529040521625     -1.17850267449472     -1.02459637392771
  N   1.69017887275041     -1.73244641586222     -1.99797779616940
