16
Coordinates from ORCA-job run
  C   -0.55846164441057     -0.31291522687058      0.29617931432293
  C   0.91341983441889     -0.33159899767333     -0.16521997469973
  Cl  -0.77053723336102     -1.64388294107331      1.44587144678198
  H   1.09314753160137     -1.36025005935274     -0.51522298449321
  N   -0.77553328135103      1.02137187698777      1.01451492174250
  O   -0.71977343706790      1.98755231889615      0.26165517290742
  O   -0.96578649385345      1.04119356482470      2.21822124307636
  C   -1.56119923462046     -0.43552457047257     -0.82968203408698
  H   -2.57304912457064     -0.45920233145683     -0.42186430086367
  H   -1.46485898744534      0.41007300988372     -1.50969836821717
  H   -1.38590857643707     -1.36475180976297     -1.37486407332039
  N   1.76847964309963      0.09142966861448      0.93209200632404
  H   2.71111145563239      0.25769251698107      0.60349408568565
  H   1.79649235952116     -0.62823020890677      1.64436391670389
  C   1.13027222970450      0.54481744848172     -1.32144255729433
  N   1.36318495913945      1.18222574089948     -2.27939781456920
