16
Coordinates from ORCA-job run
  C   -0.44824323197177      0.01011540535386      0.37157053407176
  C   0.94909893826500      0.12536733210867     -0.29986567659409
  Cl  -0.28331221913008     -0.70610092392094      1.97198083025484
  H   0.77756594241019      0.61480579997937     -1.26346917433122
  N   -0.98830085459977      1.43827629633515      0.49098637483474
  O   -1.28947272499220      1.89306469850035      1.58227377138688
  O   -1.07228836869663      2.01420111284961     -0.59227750757739
  C   -1.43482973737999     -0.78031040430756     -0.46341289764972
  H   -1.10493904755226     -1.81631447993653     -0.53962600145506
  H   -1.51654896200029     -0.34039758384720     -1.45834155776517
  H   -2.41583001061613     -0.77151742280614      0.01461713030703
  N   1.64423283490585     -1.11571108470533     -0.53704627970827
  H   1.18175731606668     -1.66946454833442     -1.24472447522580
  H   1.74352758146422     -1.65463149217281      0.31368644099887
  C   1.79489874060561      1.02149086040647      0.50129880810317
  N   2.46268380322157      1.73612643449746      1.15034968034943
