16
Coordinates from ORCA-job run
  C   -0.44253657680741      0.03256877209343      0.37793301318291
  C   0.93646496974715      0.13333885873865     -0.33272812262721
  Cl  -0.21638432163024     -0.47935054442387      2.04769015098837
  H   0.72520129308883      0.49424685805093     -1.34394862278900
  N   -1.05051194261476      1.43778381286951      0.33993458770253
  O   -1.18042713606475      1.87634897541703     -0.80166946286445
  O   -1.35423262814838      2.00512194254208      1.37633294504930
  C   -1.40187040246033     -0.89737478328168     -0.33618787139234
  H   -1.52158802490198     -0.58313678009514     -1.37398632890429
  H   -1.02186941813729     -1.91818750216165     -0.29744014987359
  H   -2.37427788023857     -0.87878079846820      0.15879822767409
  N   1.68927773084612     -1.09234185966743     -0.43495327869803
  H   1.82768001020599     -1.52068589153805      0.47132772175741
  H   1.24566512334617     -1.74799990210654     -1.06309023245190
  C   1.74856322115061      1.15932370304591      0.33685849933640
  N   2.39184598261886      1.97912513898504      0.87712892390981
