16
Coordinates from ORCA-job run
  C   -0.52777577354969      0.02457629303691      0.34211136281009
  C   0.87906800778554      0.06233466094953     -0.28080414432304
  Cl  -0.40764588338002     -0.42685338178296      2.04219546071327
  H   0.74249620007287      0.34983056415016     -1.32597497186246
  N   -1.10466450524388      1.44096805170101      0.22561796297091
  O   -1.01587653728094      1.91560745552859     -0.90457726227809
  O   -1.63122471668191      1.96410848898807      1.19386649282061
  C   -1.46521188167031     -0.90699517407944     -0.39597824973052
  H   -1.55230718347750     -0.58539430697880     -1.43542607064460
  H   -1.06035065295756     -1.91638311299915     -0.36048961344377
  H   -2.45001769930378     -0.88736607645125      0.07388803374172
  N   1.46443986551158     -1.26410519189197     -0.24281738175346
  H   1.79006412202824     -1.47864419179716      0.69223969179639
  H   2.25772933975480     -1.30679520214732     -0.87022830783297
  C   1.69384948639133      1.11036317802222      0.36490044463082
  N   2.38742781200123      1.90574794575155      0.88147655238514
