16
Coordinates from ORCA-job run
  C   -0.49678167651745     -0.41886626746958      0.28934597253995
  C   1.03399302333758     -0.36299350035831      0.04728083885037
  Cl  -0.96049140103173     -2.09156506211114      0.65950433167457
  H   1.50177776491693     -0.88214743830303      0.88731347513261
  N   -0.74198410451935      0.38793912864399      1.56563102739531
  O   -1.69982747131416      1.15222315495612      1.58243132797014
  O   0.05015557112572      0.20533366583513      2.48502103510532
  C   -1.33475626482973      0.12016160185390     -0.84120439219420
  H   -2.39202815147486      0.06346271008892     -0.59023591519788
  H   -1.08884201064449      1.16595805768545     -1.03374660046538
  H   -1.14715022925925     -0.47214770533905     -1.73746008234593
  N   1.60986363836568      0.95801858998354     -0.03441081664956
  H   1.57398117697314      1.43737684628252      0.85425744401929
  H   1.20762166593316      1.52410076437204     -0.76822504671314
  C   1.33242522239378     -1.10882814078280     -1.18115717108079
  N   1.55304324654503     -1.67702640533767     -2.18434542804067
