16
Coordinates from ORCA-job run
  C   -0.46772305450516      0.03878374075710      0.34312856926474
  C   0.96594508848708      0.10130457513398     -0.25497766270862
  Cl  -0.39817701448600     -0.55508683882346      1.99931102084382
  H   0.85138163537880      0.51613437418578     -1.26107480834969
  N   -1.00596515960901      1.47278504054079      0.32405207890362
  O   -1.36867461882168      2.00749763031911      1.35888633897607
  O   -1.02324241094989      1.96659953838001     -0.80203834768782
  C   -1.41011923227986     -0.81029399572486     -0.48533862786314
  H   -1.43208247075988     -0.44653058708634     -1.51358162287400
  H   -1.08365629501194     -1.84996041675056     -0.46456663792166
  H   -2.41672448871190     -0.76298353434003     -0.06642054928202
  N   1.66670410897934     -1.15508664826016     -0.35778720487007
  H   1.71659619168296     -1.62672126931951      0.53619329272733
  H   1.23977635807172     -1.76135793965251     -1.04451700930643
  C   1.76966167671721      1.05411819106713      0.52363533149881
  N   2.39729968581819      1.81079813957355      1.16509583864909
