16
Coordinates from ORCA-job run
  C   -0.55817293250218     -0.30935853885486      0.30154516908635
  C   0.91004324281746     -0.33714085450318     -0.17140616342043
  Cl  -0.76807257810243     -1.63636526246236      1.45623494099322
  H   1.08144701542318     -1.36771693796503     -0.51986303663390
  N   -0.76238167140909      1.02753833293177      1.01845729797813
  O   -0.70631590549194      1.99183431886048      0.26311314933250
  O   -0.94403330650263      1.05120085108005      2.22343214686907
  C   -1.57055861073153     -0.42937524945320     -0.81589064230767
  H   -2.57921710033918     -0.44656655073208     -0.39991489390279
  H   -1.40464477364912     -1.36093437514038     -1.36003817149770
  H   -1.47517633046227      0.41391706829040     -1.49889250870340
  N   1.77604557624184      0.08385570920225      0.91803714378711
  H   1.81030021617716     -0.63630852635971      1.62945050897000
  H   2.71554824786377      0.25037299321250      0.58082998810828
  C   1.12257150664550      0.53493272751746     -1.33165352074371
  N   1.35261740402140      1.16911429437588     -2.29244140791506
