16
Coordinates from ORCA-job run
  C   -0.53104685449734     -0.25216100770251      0.28262939901590
  C   0.95185122461992     -0.38402641106897     -0.19498596981768
  Cl  -0.79958783130538     -1.38582224244142      1.61824256680489
  H   0.99319623629714     -1.35920423154337     -0.69459439102124
  N   -0.71635567422298      1.15835992540878      0.83222952508011
  O   -1.50052536119181      1.89411941670952      0.24287136787016
  O   -0.02185233966299      1.46898879908260      1.79551494359080
  C   -1.51975512499872     -0.51878587293451     -0.82698635905505
  H   -1.38465621635697     -1.54400200649872     -1.17615987832618
  H   -2.53975269555954     -0.40366960695899     -0.46219941411871
  H   -1.36695790803195      0.17351295027097     -1.65469941651398
  N   2.02016007394540     -0.34146791721416      0.76982719517431
  H   1.96012747576457     -1.14059459237379      1.38756381162656
  H   1.95973502224905      0.49919062251097      1.33074026679898
  C   1.17329781033675      0.64688472640576     -1.22056505109248
  N   1.32412216261481      1.48667744834788     -2.02742859601643
