14

C	-0.576806	-0.010596	-1.40311
C	0.0	0.0	0.0
Br	0.22431	-1.424561	-2.469417
H	1.089678	0.0	0.0
H	-0.310301	0.925805	0.497706
N	-1.98506	-0.163934	-1.418697
H	-2.344034	-0.056737	-2.358802
H	-2.41908	0.506215	-0.793555
N	-0.182733	1.313785	-2.121319
O	-0.699644	1.487481	-3.221064
O	0.543206	2.104873	-1.531912
C	-0.498918	-1.138428	0.762879
N	-0.880918	-2.035381	1.416321
Cl	3.304287	0.0	0.0
