14

C	-0.582412	0.001559	-1.417215
C	0.0	0.0	0.0
Br	0.100008	-1.493947	-2.419935
H	1.093646	0.0	0.0
H	-0.327609	0.925853	0.484807
N	-2.020211	0.007879	-1.530251
H	-2.374913	-0.893054	-1.232309
H	-2.382321	0.725359	-0.909908
N	-0.148866	1.328335	-2.06382
O	0.561865	1.345247	-3.051238
O	-0.626399	2.308486	-1.493129
C	-0.542245	-1.129429	0.740112
N	-1.043452	-2.026943	1.308123
Cl	3.285144	0.0	0.0
