14

C	-0.275168	0.225473	-1.474842
C	0.0	0.0	0.0
Br	-2.188268	0.512387	-1.893367
H	1.105702	0.0	0.0
H	-0.380378	-0.963514	0.331842
N	0.49302	1.280862	-1.961153
H	0.496128	1.309133	-2.972622
H	1.447607	1.203265	-1.60099
N	0.007813	-1.129466	-2.219059
O	0.523977	-1.03211	-3.326916
O	-0.334795	-2.17023	-1.671234
C	-0.510453	1.080264	0.825527
N	-0.929537	1.922303	1.528828
Cl	3.260235	0.0	0.0
