14

C	-0.448261	0.152436	-1.438732
C	0.0	0.0	0.0
Br	-2.495754	0.533774	-1.4187
H	1.092042	0.0	0.0
H	-0.297178	0.928618	0.499503
N	0.296404	1.094092	-2.086609
H	0.801589	1.765772	-1.532068
H	0.04266	1.342663	-3.026604
N	-0.411414	-1.12656	-2.279365
O	-0.23093	-2.189862	-1.704445
O	-0.548903	-0.963734	-3.486302
C	-0.582832	-1.096902	0.752922
N	-1.057169	-1.919443	1.44207
Cl	3.280858	0.0	0.0
