14

C	-0.522924	0.034307	-1.424138
C	0.0	0.0	0.0
Br	-0.077811	1.761855	-2.256144
H	1.105427	0.0	0.0
H	-0.347771	0.877277	0.543205
N	-0.070719	-1.02071	-2.202826
H	-0.639392	-1.189453	-3.020202
H	0.109655	-1.860127	-1.670132
N	-2.095463	0.09555	-1.369891
O	-2.609256	0.792064	-0.503878
O	-2.698579	-0.552363	-2.220457
C	-0.489853	-1.210582	0.653977
N	-0.869954	-2.21577	1.126364
Cl	3.282242	0.0	0.0
