12

C	0.0	0.0	0.0
C	-0.450894	-0.337117	-1.411092
Cl	1.852135	0.0	0.0
H	0.001712	0.348713	-2.127962
H	-1.543394	-0.272787	-1.433189
H	-0.125982	-1.353829	-1.65115
C	-0.326642	1.391971	0.353706
N	-0.536203	2.50411	0.664297
N	-0.557588	-0.869336	0.9282
H	-0.550053	-1.842928	0.676078
H	-0.378027	-0.683672	1.899904
Br	-4.019691	0.0	0.0
