12

C	0.0	0.0	0.0
C	-0.468376	0.194518	-1.432475
Cl	1.797415	0.0	0.0
H	-0.089682	1.138835	-1.824653
H	-0.088337	-0.635819	-2.029551
H	-1.561475	0.20337	-1.443022
C	-0.339069	1.182871	0.827261
N	-0.567714	2.124609	1.492341
N	-0.499586	-1.239049	0.517833
H	-0.27691	-1.314819	1.506011
H	-1.522675	-1.193233	0.426241
Br	-3.755649	0.0	0.0
