17

C	-0.607089	0.035765	-1.413874
C	0.0	0.0	0.0
Br	0.168485	-1.423702	-2.481261
H	1.098868	0.0	0.0
C	-2.119596	-0.143763	-1.392452
H	-2.336929	-1.102035	-0.921125
H	-2.531844	-0.127552	-2.403316
H	-2.558937	0.660619	-0.798555
C	-0.269585	1.279529	-2.104578
N	-0.068477	2.312434	-2.629823
N	-0.436339	-1.20049	0.684956
H	-1.127382	-0.950548	1.382368
H	0.375224	-1.604186	1.141027
N	-0.482385	1.195455	0.729636
H	0.126191	1.240338	1.543732
H	-0.221738	2.017477	0.190489
H	2.856442	0.0	0.0
