17

C	-0.613129	0.016128	-1.407786
C	0.0	0.0	0.0
Br	0.076464	-1.505711	-2.456377
H	1.093254	0.0	0.0
C	-2.132973	-0.095902	-1.367556
H	-2.531825	0.763647	-0.820434
H	-2.396614	-1.023368	-0.857886
H	-2.555182	-0.102165	-2.374572
C	-0.228838	1.225404	-2.136077
N	0.03232	2.172451	-2.781474
N	-0.398493	-1.219159	0.694908
H	-1.084409	-1.021853	1.413885
H	0.436817	-1.583896	1.14542
N	-0.375793	1.265058	0.632618
H	0.45259	1.612715	1.108782
H	-1.112301	1.138981	1.317205
H	2.794734	0.0	0.0
