16

C	0.0	0.0	0.0
C	-0.457548	-0.185366	-1.444056
F	1.413903	0.0	0.0
H	-1.530039	-0.401956	-1.431818
H	-0.243961	0.713188	-2.018905
N	-0.462403	1.288791	0.386344
H	0.178783	2.006401	0.0785
H	-0.644917	1.35863	1.375931
C	-0.497155	-1.066135	0.940981
H	-0.169338	-2.049606	0.608956
H	-1.589551	-1.022426	0.957293
H	-0.091136	-0.870878	1.937691
N	0.277669	-1.283716	-2.122877
O	1.109721	-0.970814	-2.976341
O	0.027269	-2.440759	-1.786427
Cl	-3.860985	0.0	0.0
