16

C	0.0	0.0	0.0
C	-0.427021	-0.147833	-1.46649
F	1.399312	0.0	0.0
H	-0.160617	-1.125798	-1.863412
H	-1.504141	0.033408	-1.525818
N	-0.45119	1.184521	0.661867
H	-1.458606	1.075909	0.795483
H	-0.317225	1.980182	0.045
C	-0.451858	-1.224963	0.767113
H	-1.537188	-1.327595	0.71232
H	-0.148798	-1.097834	1.808018
H	0.033255	-2.114734	0.358809
N	0.280966	0.829419	-2.333359
O	0.101102	2.029045	-2.118357
O	1.019101	0.387596	-3.214312
Cl	-3.671543	0.0	0.0
