16

C	0.0	0.0	0.0
C	-0.422425	-0.071205	-1.476524
F	1.39942	0.0	0.0
H	-1.498668	0.115691	-1.528822
H	-0.158097	-1.029856	-1.917824
N	-0.456164	1.146495	0.718515
H	-0.321337	1.973294	0.147066
H	-1.463599	1.030105	0.838547
C	-0.451552	-1.264385	0.699878
H	0.031896	-2.132295	0.245791
H	-0.149447	-1.192969	1.746164
H	-1.536957	-1.356193	0.637697
N	0.290187	0.946946	-2.286733
O	0.091586	2.134354	-2.020943
O	1.049898	0.553017	-3.172771
Cl	-3.659951	0.0	0.0
