16

C	0.0	0.0	0.0
C	-0.166184	0.090096	-1.548415
F	1.424225	0.0	0.0
H	0.596489	0.791506	-1.887303
H	-0.002359	-0.884395	-2.003711
N	-0.495377	1.092591	0.75076
H	-1.491135	0.916461	0.912666
H	-0.448791	1.940911	0.201515
C	-0.460569	-1.316852	0.574336
H	-0.209334	-1.335461	1.635985
H	-1.542872	-1.41364	0.454802
H	0.053414	-2.137171	0.070097
N	-1.428373	0.626512	-2.124083
O	-2.075164	-0.104837	-2.865791
O	-1.662973	1.814105	-1.904866
Cl	-3.725987	0.0	0.0
