16

C	0.0	0.0	0.0
C	-0.462296	-0.049784	-1.457058
F	1.386918	0.0	0.0
H	-0.228895	0.901352	-1.928543
H	-1.530289	-0.27546	-1.488614
N	-0.479259	1.251896	0.519114
H	-1.493155	1.245642	0.378177
H	-0.340315	1.248498	1.524877
C	-0.409389	-1.218454	0.809717
H	-1.496798	-1.287257	0.829896
H	0.015653	-2.131202	0.391423
H	-0.029533	-1.089675	1.82817
N	0.277613	-1.086016	-2.216698
O	1.18981	-0.712177	-2.955496
O	-0.054628	-2.261284	-2.059611
Cl	-3.658016	0.0	0.0
