16

C	0.0	0.0	0.0
C	-0.426968	0.018338	-1.475167
F	1.397356	0.0	0.0
H	-0.16879	-0.912599	-1.974597
H	-1.50274	0.210593	-1.510285
N	-0.455439	1.099763	0.790963
H	-1.461051	0.970452	0.906685
H	-0.324361	1.959763	0.269883
C	-0.448722	-1.304375	0.626655
H	-0.12801	-1.298222	1.669716
H	-1.535005	-1.392693	0.57945
H	0.023484	-2.144901	0.112986
N	0.285414	1.080906	-2.227785
O	1.019326	0.73668	-3.154676
O	0.113986	2.249834	-1.878339
Cl	-3.666632	0.0	0.0
