16

C	0.0	0.0	0.0
C	-0.309501	0.433185	-1.459275
F	1.38563	0.0	0.0
H	-0.493355	1.504908	-1.482088
H	0.586924	0.200084	-2.038126
N	-0.472565	1.038292	0.87673
H	-1.485343	1.08094	0.718784
H	-0.355788	0.720542	1.835131
C	-0.416808	-1.404755	0.390948
H	0.007193	-2.147358	-0.285068
H	-1.503516	-1.478388	0.389064
H	-0.035828	-1.584004	1.402456
N	-1.401182	-0.202294	-2.257383
O	-1.447556	-1.427258	-2.285468
O	-2.071667	0.553541	-2.95351
Cl	-3.615137	0.0	0.0
