16

C	0.0	0.0	0.0
C	-0.481424	0.068719	-1.446405
F	1.379245	0.0	0.0
H	-1.571438	0.142789	-1.458973
H	-0.120062	-0.799219	-1.995508
N	-0.447783	1.171202	0.697655
H	-0.290891	1.03281	1.690599
H	-1.457738	1.235381	0.563945
C	-0.433745	-1.323066	0.611348
H	-0.058524	-1.368771	1.638589
H	-1.523845	-1.375351	0.61728
H	-0.012935	-2.165427	0.054862
N	0.089009	1.254577	-2.136881
O	-0.54721	2.304721	-2.101781
O	1.178506	1.106729	-2.697912
Cl	-3.691766	0.0	0.0
