16

C	0.0	0.0	0.0
C	-0.479625	0.123914	-1.44111
F	1.404061	0.0	0.0
H	-0.271297	-0.789433	-1.993744
H	-1.54948	0.359525	-1.42275
N	-0.467111	1.086426	0.777583
H	-0.289239	1.977158	0.337326
H	-0.08079	1.054271	1.710602
C	-0.488828	-1.30529	0.582936
H	-1.581398	-1.305939	0.535746
H	-0.173655	-1.373612	1.628035
H	-0.068783	-2.153227	0.036586
N	0.264071	1.197643	-2.149557
O	1.055549	0.864794	-3.03313
O	0.062134	2.361762	-1.799339
Cl	-3.904857	0.0	0.0
