14

C	0.0	0.0	0.0
C	-0.488407	-0.443799	-1.418559
Cl	1.784286	0.0	0.0
H	0.406779	-0.588121	-2.036694
H	-0.330241	-0.735465	0.730725
C	-0.44026	1.39681	0.400859
H	-0.054811	1.619447	1.398317
H	-0.041794	2.134719	-0.299202
H	-1.529359	1.428918	0.408775
C	-1.262429	0.57406	-2.139075
N	-1.65977	1.419654	-2.850666
C	-1.136716	-1.75828	-1.388878
N	-1.457646	-2.887252	-1.424167
Cl	-3.385904	0.0	0.0
