14

C	0.0	0.0	0.0
C	-0.580062	0.371709	-1.371945
Cl	1.780503	0.0	0.0
H	-1.685026	0.321976	-1.211468
H	-0.333223	-1.016342	0.21462
C	-0.482293	0.961189	1.073453
H	-0.188111	0.586351	2.055715
H	-0.032849	1.946202	0.928983
H	-1.570989	1.029043	1.032475
C	-0.203905	-0.585208	-2.412993
N	0.081702	-1.347818	-3.258565
C	-0.209381	1.726787	-1.780845
N	0.073102	2.81636	-2.11383
Cl	-3.571644	0.0	0.0
