14

C	0.0	0.0	0.0
C	-0.58646	0.3803	-1.364775
Cl	1.780454	0.0	0.0
H	-1.690132	0.320033	-1.198953
H	-0.325873	-1.019974	0.207351
C	-0.478444	0.946093	1.087577
H	-1.569727	0.99129	1.065027
H	-0.051841	1.940596	0.937902
H	-0.152641	0.573014	2.05969
C	-0.20603	-0.567292	-2.413927
N	0.076244	-1.331932	-3.259109
C	-0.22454	1.740183	-1.759969
N	0.053778	2.833968	-2.08381
Cl	-3.58901	0.0	0.0
