14

C	0.0	0.0	0.0
C	-0.489282	-0.12366	-1.480458
Cl	1.784504	0.0	0.0
H	0.402604	-0.066409	-2.119435
H	-0.330187	-0.8732	0.559098
C	-0.437182	1.282445	0.688776
H	-0.030354	1.303653	1.700753
H	-0.055409	2.150239	0.143057
H	-1.525236	1.303437	0.715908
C	-1.32993	0.987955	-1.943426
N	-1.752788	1.962656	-2.445392
C	-1.067015	-1.443906	-1.751563
N	-1.347534	-2.549079	-2.027376
Cl	-3.371322	0.0	0.0
