14

C	0.0	0.0	0.0
C	-0.484076	-0.106633	-1.484858
Cl	1.784557	0.0	0.0
H	0.41469	-0.12928	-2.113677
H	-0.331282	-0.883898	0.540559
C	-0.442248	1.266393	0.711561
H	-0.034182	2.145825	0.207971
H	-1.531167	1.300391	0.717133
H	-0.067181	1.248352	1.737056
C	-1.234101	1.059292	-1.967711
N	-1.628312	2.037191	-2.484855
C	-1.157143	-1.380081	-1.758949
N	-1.49955	-2.460332	-2.06628
Cl	-3.382081	0.0	0.0
