14

C	0.0	0.0	0.0
C	-0.48815	-0.299308	-1.45573
Cl	1.784306	0.0	0.0
H	0.407624	-0.41287	-2.079177
H	-0.328387	-0.80765	0.650975
C	-0.443497	1.344983	0.546039
H	-1.532764	1.372012	0.55717
H	-0.057884	1.463711	1.560536
H	-0.048641	2.154647	-0.072278
C	-1.22865	0.802862	-2.07972
N	-1.609533	1.727371	-2.695175
C	-1.17205	-1.592031	-1.559331
N	-1.505984	-2.70495	-1.727266
Cl	-3.386573	0.0	0.0
