15

C	0.0	0.0	0.0
C	-0.538696	-0.323306	-1.378997
F	1.414696	0.0	0.0
H	-1.614464	-0.115508	-1.332659
H	-0.065925	0.369427	-2.081311
C	-0.329811	1.397614	0.372295
N	-0.470866	2.527208	0.656096
N	-0.490828	-0.872461	0.987672
H	-0.142199	-0.651612	1.908146
H	-0.343578	-1.842214	0.756354
C	-0.292264	-1.769894	-1.79502
H	-0.521374	-1.893556	-2.855847
H	-0.952592	-2.44749	-1.249335
H	0.748708	-2.065786	-1.636364
Br	-4.08023	0.0	0.0
