15

C	0.0	0.0	0.0
C	-0.47936	-0.431194	-1.376855
F	1.383628	0.0	0.0
H	0.001934	0.235382	-2.099861
H	-1.558488	-0.2632	-1.413821
C	-0.32422	1.444045	0.224866
N	-0.478716	2.593745	0.4098
N	-0.491156	-0.865383	1.020051
H	-0.305486	-0.459189	1.930622
H	-1.509458	-0.902843	0.905234
C	-0.138103	-1.887074	-1.6738
H	-0.393011	-2.123279	-2.710598
H	-0.699895	-2.556507	-1.02299
H	0.927296	-2.079352	-1.526905
Br	-3.774526	0.0	0.0
