15

C	0.0	0.0	0.0
C	-0.537323	-0.297765	-1.385225
F	1.413712	0.0	0.0
H	-0.055781	0.402317	-2.075162
H	-1.611952	-0.08291	-1.338776
C	-0.329392	1.390033	0.401418
N	-0.472548	2.511645	0.715154
N	-0.488043	-0.892512	0.971442
H	-0.325503	-1.857195	0.72768
H	-0.148698	-0.68047	1.897732
C	-0.304644	-1.740851	-1.819089
H	-0.974449	-2.415468	-1.282496
H	-0.531939	-1.849786	-2.882148
H	0.732664	-2.049708	-1.661755
Br	-4.072244	0.0	0.0
