15

C	0.0	0.0	0.0
C	-0.47958	0.175494	-1.42934
F	1.383855	0.0	0.0
H	-1.572104	0.155279	-1.408407
H	-0.125997	-0.713895	-1.961006
C	-0.330982	1.199742	0.83021
N	-0.494623	2.148908	1.502609
N	-0.485018	-1.227274	0.542594
H	-1.501816	-1.223356	0.415194
H	-0.30964	-1.250853	1.541649
C	0.034728	1.451348	-2.083076
H	-0.374307	2.33454	-1.587596
H	-0.275817	1.486267	-3.130135
H	1.124943	1.507336	-2.04747
Br	-3.780919	0.0	0.0
