15

C	0.0	0.0	0.0
C	-0.465115	-0.013919	-1.444467
F	1.41883	0.0	0.0
H	0.02414	0.829863	-1.941239
H	-1.543659	0.164297	-1.437147
C	-0.306991	1.314914	0.636617
N	-0.476451	2.344027	1.176941
N	-0.482389	-1.123104	0.72457
H	-0.308127	-0.994332	1.715022
H	-1.499436	-1.140962	0.593228
C	-0.12879	-1.325095	-2.144422
H	-0.701019	-2.148563	-1.718991
H	-0.374013	-1.251544	-3.207186
H	0.933711	-1.559688	-2.047829
Br	-3.759735	0.0	0.0
