17

C	0.0	0.0	0.0
C	-0.571019	0.042335	-1.405606
Cl	1.800905	0.0	0.0
H	-0.299532	-0.851322	-1.965319
H	-1.675382	0.120325	-1.248194
C	-0.472358	1.162177	0.856319
H	-1.57105	1.143934	0.821321
H	-0.100434	2.115604	0.484618
H	-0.128421	1.017108	1.883243
C	-0.488794	-1.306601	0.604141
H	-0.134532	-2.166111	0.027996
H	-1.589135	-1.259097	0.589626
H	-0.132345	-1.400028	1.632388
N	-0.104788	1.18073	-2.230645
O	0.553095	0.917533	-3.242241
O	-0.415741	2.319866	-1.881629
H	-3.241183	0.0	0.0
