14

C	0.0	0.0	0.0
C	-0.438877	0.193636	-1.444239
F	1.402042	0.0	0.0
H	-0.049087	1.12997	-1.856237
H	-0.071579	-0.637468	-2.057473
H	-1.532684	0.19595	-1.404645
C	-0.459585	1.161435	0.862273
H	-1.552297	1.158581	0.799851
H	-0.038299	2.100544	0.489595
H	-0.123778	0.992381	1.888214
N	-0.51845	-1.215062	0.577674
H	-0.356674	-1.963665	-0.092494
H	-1.54258	-1.011074	0.540531
F	-2.946116	0.0	0.0
