17
Coordinates from ORCA-job run
  C   -0.74481414443227      0.07228167060711     -0.33505760078691
  C   0.61514882693510      0.07087996467386      0.36033418258627
  H   -0.73926724675383      0.90459471652729     -1.04665801145360
  H   0.58746061903766     -0.74925373664266      1.10800470786360
  N   -1.76972688948045      0.38405353367002      0.66810403659173
  H   -2.65080819956435      0.59624668998019      0.21469896362654
  H   -1.91808112496449     -0.43078703635474      1.25554309960424
  N   -0.91413605931058     -1.15961317754154     -1.09579689580076
  H   -1.79942089845496     -1.14325222952338     -1.58864778166883
  H   -0.93269228262744     -1.95182723031524     -0.46127829931554
  N   0.79667145455093      1.38348814177426      0.97076469094910
  H   -0.02522815459926      1.59421327722958      1.52445475988178
  H   1.60619425929165      1.37250141237722      1.57948862715906
  C   1.75599539338709     -0.19603699577987     -0.60779600725123
  H   2.71596350187601     -0.14659177724317     -0.08477254950942
  H   1.75564021709576      0.57243072755235     -1.38431464826425
  H   1.66110072801342     -1.17332795099127     -1.07907127421179
