17
Coordinates from ORCA-job run
  C   -0.77216237397005      0.11859741011166      0.02652241323114
  C   0.72009575892151     -0.23479167281950      0.09962978287427
  H   -0.91500791951768      1.07122800496319      0.55150478156006
  H   0.84142860705772     -1.20291700758797     -0.41485706091527
  N   -1.51686297792266     -0.88960511082953      0.78715464548253
  H   -2.48468807442491     -0.60759301770206      0.89219178704831
  H   -1.50973826092848     -1.76612850444743      0.27444479472396
  N   -1.16226151964552      0.32826291919497     -1.36343569972798
  H   -2.14695991554217      0.56227264948554     -1.41968641639394
  H   -1.02375865227820     -0.53138100268161     -1.88582766683167
  N   1.19653402646803     -0.41805931865777      1.46767770614784
  H   1.29379627022723      0.49582107234396      1.89917507095675
  H   0.47536384673667     -0.91149739637735      1.98317522965537
  C   1.58801634611391      0.79662828379826     -0.60233381417065
  H   2.63919842757526      0.52101718697305     -0.49754610685786
  H   1.44382157921573      1.78047397465594     -0.14197636289057
  H   1.33418483191359      0.88667152957665     -1.65681308389230
