17

C	-0.471677	-0.016431	-1.446342
C	0.0	0.0	0.0
Cl	0.023613	1.466211	-2.285175
H	1.093521	0.0	0.0
N	0.183482	-1.09859	-2.279855
O	1.407313	-1.279312	-2.122287
O	-0.412284	-1.435356	-3.33266
C	-1.964045	-0.108745	-1.524559
N	-2.913549	0.573287	-1.328139
N	-0.364964	-1.25742	0.677201
O	-0.180558	-2.34911	0.05187
O	-0.427408	-1.245597	1.943132
C	-0.471651	1.210038	0.793782
H	-1.539181	1.150797	1.020922
H	-0.271422	2.135107	0.251891
H	0.076682	1.254125	1.735966
Br	2.68852	0.0	0.0
