13

C	0.0	0.0	0.0
C	-0.572216	0.224898	-1.406138
F	1.36931	0.0	0.0
H	-1.566945	0.658963	-1.240722
H	-0.349828	0.801714	0.654595
C	-0.419987	-1.294862	0.562185
N	-0.608512	-2.338865	1.062968
N	-0.64179	-1.039616	-2.144184
H	-0.828907	-0.828672	-3.117866
H	-1.478299	-1.502482	-1.790847
C	0.264751	1.195832	-2.115413
N	0.89313	1.993728	-2.704866
Cl	-3.399261	0.0	0.0
