13

C	0.0	0.0	0.0
C	-0.529125	-0.097024	-1.423239
F	1.381958	0.0	0.0
H	-1.62791	-0.091536	-1.303729
H	-0.363799	0.913921	0.475046
C	-0.410981	-1.169413	0.794185
N	-0.617552	-2.114528	1.457225
N	-0.092845	-1.338628	-2.042367
H	0.816901	-1.238692	-2.471029
H	-0.76314	-1.634042	-2.734935
C	-0.117577	1.100651	-2.174765
N	0.23503	2.021425	-2.815086
Cl	-3.442097	0.0	0.0
