13

C	0.0	0.0	0.0
C	-0.478647	0.196914	-1.446549
F	1.380123	0.0	0.0
H	-1.564256	0.347337	-1.374625
H	-0.367642	0.800407	0.643986
C	-0.410374	-1.313859	0.521805
N	-0.541796	-2.409365	0.92261
N	-0.208139	-0.923156	-2.333516
H	0.715882	-1.29755	-2.149018
H	-0.89282	-1.645407	-2.142281
C	0.153371	1.415032	-1.97166
N	0.665198	2.388184	-2.382987
Cl	-3.313695	0.0	0.0
