13

C	0.0	0.0	0.0
C	-0.5048	-0.212842	-1.418441
F	1.382007	0.0	0.0
H	-1.603064	-0.219157	-1.319953
H	-0.364744	0.949344	0.396258
C	-0.408058	-1.102048	0.888017
N	-0.556019	-1.977319	1.654821
N	-0.03118	-1.489886	-1.926642
H	0.93224	-1.42084	-2.228756
H	-0.601505	-1.780451	-2.709161
C	-0.094659	0.933357	-2.251721
N	0.268438	1.798699	-2.959174
Cl	-3.40313	0.0	0.0
