13

C	0.0	0.0	0.0
C	-0.550167	0.27006	-1.417601
F	1.369213	0.0	0.0
H	-1.461699	0.86066	-1.275644
H	-0.35148	0.787029	0.670856
C	-0.41808	-1.306945	0.536414
N	-0.571157	-2.357631	1.035785
N	-0.82563	-0.989804	-2.114022
H	-1.708947	-1.302938	-1.710727
H	-1.020093	-0.775466	-3.086958
C	0.425075	1.065525	-2.169012
N	1.155058	1.73483	-2.799775
Cl	-3.289856	0.0	0.0
