14
Coordinates from ORCA-job run
  C   0.81289365648730     -0.57858971291386     -0.10533070729398
  C   -0.49637485750023      0.13877431454975     -0.32075119120228
  Cl  1.13872404184446     -1.63527316292428     -1.47183300755824
  H   -0.52827729125552      0.72366984306246     -1.23542162672362
  H   0.81305608369453     -1.15662340523231      0.81490525333477
  N   1.92389120861658      0.43616229338698      0.00627303722073
  O   1.74547443462298      1.51392371498181     -0.55224529124665
  O   2.91382168103172      0.07408808262918      0.62428873244331
  N   -0.80911536177577      1.05342287434015      0.83124780989235
  O   -0.13489411339491      0.92767042854661      1.84787747337566
  O   -1.74244993573379      1.82339977697051      0.64381643875120
  N   -1.61203352933766     -0.86569187408425     -0.35684371503336
  O   -1.68849113463741     -1.60483189262401      0.61992017005521
  O   -2.33622488266228     -0.84910128068873     -1.34390337601508
