14
Coordinates from ORCA-job run
  C   0.83944383094001     -0.46821476648130     -0.36673407267937
  C   -0.48195054648476     -0.18448249580675      0.32447336450119
  Cl  0.79399152847412     -0.27005466412517     -2.09512701662150
  H   -0.45502702614266     -0.50685276443003      1.36288981079669
  H   1.11697195911720     -1.49961747908069     -0.14095976383454
  N   1.91417582952304      0.38738646676877      0.30135860661920
  O   1.80509986297747      0.43504863911557      1.52272928399918
  O   2.78887589126448      0.87933884564401     -0.38418293355243
  N   -1.55726017128441     -0.98944654166125     -0.35715032790768
  O   -2.40235832424755     -0.40037413496662     -1.01220388423146
  O   -1.43639975562809     -2.19785929076631     -0.19448971159959
  N   -0.87518167786090      1.25909652420572      0.33443199566013
  O   -0.20013354581858      2.04252857824283     -0.32325165438120
  O   -1.85124785482936      1.51250308334122      1.02921630323137
