14
Coordinates from ORCA-job run
  C   0.84089818384806     -0.39118989059468     -0.62490927541687
  C   -0.63180567876854     -0.06508376645544     -0.43704944666540
  Cl  1.50243481731166      0.37700479637115     -2.05961930177218
  H   -1.16971314090361     -0.22415858891893     -1.37132203291208
  H   0.95179200957628     -1.46930848368837     -0.73032163481464
  N   1.69433874324994     -0.01595514442053      0.56279153739844
  O   2.54057701893968     -0.83636341070503      0.88721027015965
  O   1.48923176292348      1.08453457938545      1.05791950357363
  N   -0.93397699163951      1.36005830408520     -0.01618848523539
  O   -0.75040097086387      2.19092876669894     -0.89194252481895
  O   -1.34688008494046      1.53655336536983      1.11854413015736
  N   -1.24319619911419     -0.96914952752283      0.58572835690396
  O   -0.49243513857685     -1.43279726353055      1.43926078177806
  O   -2.45086433104210     -1.14407373607423      0.47989812166443
