14
Coordinates from ORCA-job run
  C   0.79873303980267     -0.35766196390405     -0.70143734730660
  C   -0.65505723044925     -0.06891651398776     -0.35354777456682
  Cl  1.19160818318280      0.13528958615846     -2.33188672120845
  H   -1.26004086009299      0.01132920203061     -1.25612352273474
  H   0.97914071837835     -1.42881242934585     -0.60692191769151
  N   1.74325185844159      0.26804333506824      0.32550363519426
  O   2.83377165730351      0.65608797888489     -0.05120633160004
  O   1.31244835913151      0.24008662466312      1.47209810876437
  N   -0.81779842523593      1.26468899542087      0.35505659126971
  O   -0.24710163690636      2.18131314039748     -0.21931094431707
  O   -1.49728224003974      1.31452374817811      1.36399870121017
  N   -1.29435150570102     -1.14761026484306      0.47384440333794
  O   -2.52011749406163     -1.13157606131314      0.46303715934609
  O   -0.56720442375350     -1.93678537740789      1.06689596030270
