14
Coordinates from ORCA-job run
  C   0.83471741772601     -0.54071942188138     -0.12956384035674
  C   -0.49189504257721      0.15107628812854     -0.32142596795649
  Cl  1.23367395169861     -1.46459123659695     -1.57093464943356
  H   -0.51644511279155      0.81634649154200     -1.17973909362695
  H   0.82983464074910     -1.19597305854206      0.73739968292138
  N   1.90707165641207      0.49507083198375      0.10164543577203
  O   1.70790813076360      1.61087785232724     -0.36812208425123
  O   2.89131060542539      0.11241214092863      0.71638467685993
  N   -0.86905201518473      0.94668883327005      0.89797294180813
  O   -0.20995338344260      0.76310547348546      1.91575098728526
  O   -1.83170212588665      1.68954003571947      0.75494830867791
  N   -1.57085965103875     -0.87967960586194     -0.48386734717407
  O   -1.65676488710162     -1.70082804529083      0.42431219650676
  O   -2.25884418475166     -0.80332657921200     -1.49376124703237
