14
Coordinates from ORCA-job run
  C   0.80576348393341     -0.47364193482332     -0.61397315270320
  C   -0.64935366517019     -0.08577315626248     -0.40737532979916
  Cl  1.43293072369550      0.13851751080651     -2.13677739569055
  H   -1.22503460764957     -0.31167580802018     -1.30459652635434
  H   0.88286671796286     -1.55976684645638     -0.62160168576768
  N   1.71330398488479     -0.01585423136530      0.50253235661975
  O   2.54114486896263     -0.83218557402121      0.88055625470704
  O   1.56416849393350      1.13518310924848      0.89117962250246
  N   -0.89511870154996      1.38023432290364     -0.10915638638120
  O   -0.72735434383051      2.12140703388339     -1.06503291830572
  O   -1.25289796235911      1.67267847478851      1.02042664986683
  N   -1.24798500617549     -0.87279010507986      0.71486950870941
  O   -0.47963745608025     -1.27609377981405      1.58328975734346
  O   -2.46279653055761     -1.02123901578772      0.66565924525289
