14
Coordinates from ORCA-job run
  C   0.84516209586003     -0.51194090846018     -0.17486511539910
  C   -0.50095949007428      0.15621979330567     -0.30452855002342
  Cl  1.23948328459836     -1.34144844011535     -1.67382287446150
  H   -0.55807120050602      0.86664181953952     -1.12420445241931
  H   0.87168169051783     -1.21580643393142      0.65265217413066
  N   1.89637843709997      0.53550551543852      0.09735494859324
  O   2.90048338083881      0.14316497372574      0.67264890330892
  O   1.66203932153410      1.67076062449108     -0.30471937220264
  N   -0.87367361367559      0.87420713358343      0.96347547564870
  O   -1.85266107988931      1.60442853708607      0.87754408012683
  O   -0.19511440496075      0.64585306825154      1.95920631609756
  N   -1.55806562604413     -0.89068599027627     -0.50434974852732
  O   -2.27475785091590     -0.76915663063160     -1.48962538386182
  O   -1.59992494438316     -1.76874306200671      0.35223359898923
