14
Coordinates from ORCA-job run
  C   0.80990548009549     -0.43644010496388     -0.63518956782557
  C   -0.64885758125335     -0.07384210038133     -0.41054005930273
  Cl  1.43100993269933      0.24963447300448     -2.12849014234775
  H   -1.22311508554041     -0.26551024517609     -1.31663564821316
  H   0.89805133289909     -1.52031060759726     -0.69176218367305
  N   1.71331927295980     -0.02104268125560      0.50131535293960
  O   1.54464012315190      1.10475242224644      0.95107071389783
  O   2.55825663181512     -0.84028419049443      0.83203363620631
  N   -0.91072812966181      1.37484088736542     -0.04674369872674
  O   -1.27630493300035      1.61210152189142      1.09310292049787
  O   -0.74188636221550      2.16072052436488     -0.96595447837369
  N   -1.23775595498372     -0.91746144918946      0.67519959208615
  O   -2.45132661892546     -1.07422492819311      0.62136335592456
  O   -0.46420810804014     -1.35293352162149      1.52323020691036
