14
Coordinates from ORCA-job run
  C   0.79702487610703     -0.30856327525312     -0.53835142669110
  C   -0.44099010195681     -0.15499115842115      0.32565993059209
  Cl  0.64905266212600      0.44133675407972     -2.10014786141590
  H   -0.20452352642907     -0.32414840707405      1.37535609832302
  H   1.01176459192239     -1.36936231828580     -0.66589257170481
  N   1.99010111062727      0.23762490135677      0.25875957696694
  O   2.68489210198187      1.10982913443040     -0.22718237313284
  O   2.13583458205973     -0.32071341587664      1.33987339799086
  N   -1.52478150986186     -1.12473336704273     -0.03400724215305
  O   -2.44549890638571     -1.17297117203214      0.77293245019625
  O   -1.40434748837756     -1.77419260897592     -1.06683364791330
  N   -0.97827041485837      1.24709610061766      0.21504357682876
  O   -2.05481645812858      1.42438906657966     -0.33173164494452
  O   -0.21644151882634      2.08739976589732      0.67752173705759
