14
Coordinates from ORCA-job run
  C   0.79217388098644     -0.27475117640070     -0.56289523341372
  C   -0.43867912570854     -0.17468736825290      0.31913834424246
  Cl  0.63184853192346      0.57041126434358     -2.07401021072741
  H   -0.19325761669126     -0.40894556908418      1.35420007182111
  H   1.00533507599281     -1.32559846347470     -0.75763014507714
  N   1.99220362095553      0.22089629386824      0.25666444571582
  O   2.14620715349370     -0.40285667614506      1.30018814640203
  O   2.68399750286411      1.12078219784271     -0.18069565196021
  N   -1.52593631831439     -1.11990881839470     -0.09149072573614
  O   -1.41297288564283     -1.70520596617517     -1.16286480470152
  O   -2.44112085687787     -1.21718445004179      0.71726283741813
  N   -0.97502498626205      1.23193792051782      0.30078076417219
  O   -2.05472356981329      1.44438378181863     -0.22690762507573
  O   -0.20905040690581      2.04072702957825      0.81025978692011
