14
Coordinates from ORCA-job run
  C   0.79086015922054     -0.34766837593163     -0.71085478354769
  C   -0.66502780931064     -0.05503868663937     -0.38598629103253
  Cl  1.31777672725264      0.50135557908016     -2.15568713132809
  H   -1.27596559754854     -0.17768021380523     -1.27992982906430
  H   0.90596024394705     -1.41748994790692     -0.87786140291716
  N   1.73588523899705     -0.01480517863971      0.41853611519757
  O   1.57112630084280      1.06645105228278      0.96812226462617
  O   2.60388127350872     -0.84523586930305      0.64593068796239
  N   -0.94769330280512      1.34232217071052      0.12776119648158
  O   -0.86435203368490      2.21549985418733     -0.72218570040790
  O   -1.24819651757479      1.45998826808654      1.30481771860121
  N   -1.17917021494099     -1.01566155134543      0.63891705320978
  O   -2.38985794425065     -1.20060421266168      0.62679499964230
  O   -0.35422652365318     -1.51043288811429      1.40162510257669
