14
Coordinates from ORCA-job run
  C   0.88464652466579     -0.36000634117061     -0.59705806487821
  C   -0.60387378321030     -0.12460953082978     -0.44034335098077
  Cl  1.45382060464990      0.40555212112236     -2.06138685141877
  H   -1.12045680884411     -0.44223407747734     -1.34547985916169
  H   1.05308860787153     -1.43556320463179     -0.66240730848626
  N   1.66697596310789      0.08744197407171      0.63481278073900
  O   1.20298624842366     -0.36144512432935      1.67571887884089
  O   2.66512796256133      0.76594988731837      0.49427422097431
  N   -0.96426147961508      1.30839456550042     -0.21967022952641
  O   -2.06805927324771      1.63797765624776     -0.63872451069923
  O   -0.15053598822264      2.00759146208332      0.37300752838320
  N   -1.19615490907783     -0.95454941766603      0.68028075656890
  O   -1.02673757688419     -2.15679698485523      0.53783161728989
  O   -1.79656609217831     -0.37670298538376      1.57014439235517
