15

C	0.0	0.0	0.0
C	-0.452003	0.14895	-1.453064
F	1.415581	0.0	0.0
H	-1.551952	0.255681	-1.396267
H	-0.153836	-0.721439	-2.030968
N	-0.418366	1.026154	0.907481
H	-0.185147	1.928164	0.510631
H	-1.44437	0.949215	0.901333
N	-0.477121	-1.285466	0.407377
H	-1.506636	-1.197319	0.313873
H	-0.297135	-1.332412	1.407355
N	0.118914	1.319777	-2.149392
O	0.614394	1.13486	-3.264057
O	0.042317	2.428934	-1.615369
H	-2.989738	0.0	0.0
