15

C	0.0	0.0	0.0
C	-0.436407	0.062492	-1.463724
F	1.414049	0.0	0.0
H	-0.101775	-0.839748	-1.975216
H	-1.532338	0.159815	-1.448394
N	-0.467437	1.146162	0.702657
H	-1.488921	1.132628	0.552
H	-0.325354	0.938621	1.688687
N	-0.445239	-1.21596	0.617182
H	-0.178008	-2.01512	0.046694
H	-1.475606	-1.129344	0.594785
N	0.164033	1.191097	-2.214629
O	1.126854	0.935258	-2.948032
O	-0.333412	2.306815	-2.082829
H	-2.986452	0.0	0.0
