15

C	0.0	0.0	0.0
C	-0.452677	-0.366793	-1.414348
F	1.399283	0.0	0.0
H	-0.176947	0.417289	-2.114362
H	-1.550763	-0.486251	-1.3434
N	-0.486885	1.329719	0.214278
H	-1.51424	1.223463	0.121042
H	-0.32148	1.515472	1.200938
N	-0.421449	-0.88026	1.050769
H	-0.167405	-1.830323	0.805582
H	-1.448194	-0.816316	1.023648
N	0.148272	-1.611782	-1.939029
O	0.150354	-2.621583	-1.230894
O	0.585734	-1.589276	-3.092405
H	-2.993481	0.0	0.0
