15

C	0.0	0.0	0.0
C	-0.464301	0.140151	-1.443795
F	1.411344	0.0	0.0
H	-0.104335	-0.715384	-2.008866
H	-1.561296	0.209929	-1.413875
N	-0.42747	1.143926	0.753523
H	-1.45561	1.110854	0.66973
H	-0.207101	0.965099	1.73004
N	-0.456028	-1.296443	0.430939
H	-1.488278	-1.192951	0.397099
H	-0.209463	-1.391516	1.412855
N	0.091746	1.347998	-2.095122
O	1.122169	1.208537	-2.762643
O	-0.508181	2.412797	-1.955476
H	-2.993773	0.0	0.0
