14
Coordinates from ORCA-job run
  C   -0.07579767750619     -0.36628903297398      0.26593593316403
  C   -0.87872136543717      0.85055054999755     -0.19301076463557
  Cl  -0.37252603799183     -0.65688772622750      1.99370706985092
  H   -1.92797040173774      0.72476856372138      0.07431652435177
  H   -0.82144417038915      0.92239753055449     -1.28375917542064
  N   -0.64433347823105     -1.58862758886801     -0.46623917415784
  O   -1.81971008084796     -1.53203374536265     -0.81288289107475
  O   0.10901248706442     -2.54097464567545     -0.62102035220798
  C   1.40501862625140     -0.25992496500077     -0.00422491850428
  H   1.57689415913944     -0.13030820435726     -1.07606279330254
  H   1.80779358487999      0.60106862207539      0.52990436463119
  H   1.91573338445567     -1.16090698401713      0.32735622673670
  C   -0.35317347374533      2.07586164008433      0.39931591584644
  N   0.07822444409550      3.06230598604962      0.86566403472256
