14
Coordinates from ORCA-job run
  C   -0.12243435948669     -0.33988746811847      0.30228512230727
  C   -0.84400965107079      0.87767336655699     -0.27834659311272
  Cl  -0.49049074718499     -0.47350455663903      2.02344432606113
  H   -1.91683164530090      0.79372459283003     -0.08601178716342
  H   -0.69668430073747      0.90173110409226     -1.35914003016263
  N   -0.65875486798987     -1.58753597563439     -0.41826642246091
  O   -0.94807380116372     -1.42673480602707     -1.60152262001387
  O   -0.67647760327336     -2.64366033238215      0.19345252709453
  C   1.37564946125035     -0.33037386708878      0.07461519286783
  H   1.81897948778976      0.53375361090639      0.57033390688185
  H   1.81634037804194     -1.23932091879608      0.48633550374450
  H   1.58199238990179     -0.27889420858208     -0.99738907785626
  C   -0.33453990688394      2.11046472983644      0.31311200818049
  N   0.09433516610788      3.09956472904593      0.77609794363222
