14
Coordinates from ORCA-job run
  C   0.02092543389342     -0.39756634169738      0.43059268794152
  C   -0.63810848304002      0.97079986308656      0.58080329010483
  Cl  -0.05067569272206     -1.21893402452987      2.00711829704282
  H   -1.65799306469771      0.85345824666464      0.94736685255018
  H   -0.06996719690648      1.54383670276475      1.31802706326781
  N   -0.83379513816171     -1.24583676223711     -0.51907249415676
  O   -0.25515154849537     -2.12108851334790     -1.14993845791814
  O   -2.03508012565014     -1.00361438347693     -0.54581927058263
  C   1.44233265908877     -0.34237633294804     -0.07207895424936
  H   1.86917844985261     -1.34175440405044     -0.11433106963492
  H   1.46789666215692      0.09559633216760     -1.07205668096853
  H   2.03544459480526      0.27349018639681      0.60632501889179
  C   -0.65256702279926      1.68701438427522     -0.69204789308180
  N   -0.64343952732424      2.24597504693208     -1.72388838920681
