14
Coordinates from ORCA-job run
  C   0.01733504414975     -0.28974019882095      0.32116510443244
  C   -0.21290230160614      1.19608708548976      0.05654853780492
  Cl  -0.73489187229201     -0.74698313123998      1.84955838390857
  H   0.21886855534815      1.75643099725433      0.88976876026623
  H   0.30316720283370      1.48333938890544     -0.86084346201051
  N   -0.62139518360930     -1.09260578884853     -0.82074030726490
  O   -1.08959298842334     -2.19239842162228     -0.57355546742918
  O   -0.51804389874301     -0.57159048541245     -1.92779722737633
  C   1.48970045898346     -0.65385001214203      0.32298150289511
  H   2.00368100655628     -0.10218674957409      1.11130858693889
  H   1.60614030230805     -1.72226660730248      0.51001984949107
  H   1.93080914788803     -0.40436712757149     -0.64462047954947
  C   -1.62843942940342      1.53228186857055     -0.06727124492904
  N   -2.76443604399020      1.80784918231421     -0.16652253717781
