14
Coordinates from ORCA-job run
  C   0.04290952729134     -0.26708551921386      0.35122007040561
  C   -0.16666542799089      1.19603520790033     -0.03817837297106
  Cl  -0.57956097887217     -0.55139889402627      1.97373734301794
  H   0.35718098317465      1.82186866746637      0.68871135199952
  H   0.27000282910200      1.36552489687571     -1.02425907104837
  N   -0.73256479401129     -1.12314826520667     -0.66196202286567
  O   -1.48882234403295     -1.99523159178434     -0.26796330667756
  O   -0.46822667554478     -0.85392322771440     -1.83083992448876
  C   1.49888950104998     -0.68159899463362      0.25914161923247
  H   1.60370821090231     -1.73540743778646      0.52244738703011
  H   2.09096659923308     -0.08882355694035      0.95785413491083
  H   1.86357942383689     -0.52407408380908     -0.75686419813754
  C   -1.57818617858035      1.56845281623865     -0.07038677549364
  N   -2.71221067555782      1.86780998263399     -0.10365823491385
