14
Coordinates from ORCA-job run
  C   -0.11340576930740     -0.39218031212658      0.20555231495297
  C   -0.82071528954644      0.91075114888006     -0.16554694053847
  Cl  -0.59315605483922     -0.88310612449703      1.84468740768752
  H   -1.89631398002041      0.80028593122857     -0.02680886659777
  H   -0.64283816316863      1.12183563431576     -1.22497595921864
  N   -0.65122350020309     -1.48300830178169     -0.72944663006594
  O   -1.78864046510121     -1.33155068767135     -1.16329403814849
  O   0.08374549148011     -2.43737892304457     -0.94727831800956
  C   1.38983190747051     -0.32567393147393      0.09356199807905
  H   1.83196541629254     -1.28430598317096      0.35428454457124
  H   1.76734787776914      0.44195423684447      0.76962206388056
  H   1.67333208235511     -0.07293239941873     -0.93143181303657
  C   -0.32338436903629      2.02154772909263      0.63899871355364
  N   0.08345481585529      2.91476198282336      1.28207552289046
