14
Coordinates from ORCA-job run
  C   -0.05020682205030     -0.36719578714650      0.32138949981470
  C   -0.82453830464250      0.88758975357437     -0.09902349403467
  Cl  -0.11431522407029     -0.54963392720877      2.07580620176400
  H   -1.83362233706344      0.84649682949456      0.32008008001849
  H   -0.90056544812495      0.89913923251431     -1.19151360888147
  N   -0.83947359335842     -1.51541632674159     -0.32964360625395
  O   -0.48496364926617     -1.81098691359358     -1.46728408354174
  O   -1.79259582112032     -1.98037054917588      0.27724026090292
  C   1.38342728206532     -0.39275961287842     -0.15612247137065
  H   1.93852643188362      0.40085627396921      0.34475330795681
  H   1.84197854336002     -1.35108338541895      0.08967641656658
  H   1.42915988871720     -0.24526405282971     -1.23433012017410
  C   -0.15336228461757      2.10237839837915      0.34875437863218
  N   0.40055133828779      3.07525006706180      0.70021723860091
