14
Coordinates from ORCA-job run
  C   -0.04640358867807     -0.36559680378836      0.27323034993075
  C   -0.84969567125600      0.90013798374176     -0.02379084066740
  Cl  -0.03720222935821     -0.66634997422913      2.02467153354365
  H   -1.83767316530014      0.82766829075617      0.43116304147079
  H   -0.98904525769793      0.98580323010697     -1.10627182283095
  N   -0.80794753535460     -1.54351158245176     -0.34747814207306
  O   -0.15068804987883     -2.53247858626688     -0.64497692683369
  O   -2.02228039523283     -1.41820066679425     -0.46914452962484
  C   1.36343630257039     -0.33632021286874     -0.26390476510196
  H   1.87442206833595     -1.26886670258595     -0.03650808153307
  H   1.90519045395140      0.49283582417515      0.19188585757123
  H   1.34333893368785     -0.19952513367486     -1.34828987117184
  C   -0.15577425683238      2.08563084772883      0.46793006156870
  N   0.41032239104339      3.03877348615105      0.85248413575169
