14
Coordinates from ORCA-job run
  C   0.09936984226523     -0.29617655343278      0.30151491655044
  C   -0.30782200700456      1.16673250428772      0.14070149054799
  Cl  -0.33439544520076     -0.86117300310476      1.91465109641824
  H   0.20828625124181      1.74723742816816      0.90940035026480
  H   0.01226750943476      1.52330501292082     -0.83959023306756
  N   -0.65174645974452     -1.12441092800083     -0.75044969274543
  O   -0.73897789667258     -0.58239507130183     -1.84898558824635
  O   -1.02125932756366     -2.25097118126304     -0.46211731433585
  C   1.57762731618577     -0.51411355279109      0.04086289590388
  H   2.16482626007488      0.06762266177903      0.75275915410294
  H   1.82112132523652     -0.20076315772958     -0.97654735439792
  H   1.82429680113174     -1.56964752212750      0.16431864513721
  C   -1.74855554151211      1.36489520556646      0.27168342533034
  N   -2.90503862787251      1.52885815702920      0.38079820853728
