14
Coordinates from ORCA-job run
  C   0.04886014600105     -0.28599789819025      0.33425857187189
  C   -0.19979887719579      1.19203383386176      0.03464687401854
  Cl  -0.57428685855858     -0.68735220844033      1.93186154676153
  H   0.23643040323488      1.43459504601018     -0.93626032684685
  H   0.30239465563461      1.78598532570214      0.80240991747541
  N   -0.69690940055273     -1.09924999127617     -0.73522086257815
  O   -1.42656606542246     -2.01766875280188     -0.40080117185871
  O   -0.43749786504730     -0.74831572295568     -1.88330419139620
  C   1.51581861476402     -0.65518859145841      0.22724298050174
  H   1.64610476595160     -1.72078113848203      0.42247726537606
  H   1.88282333127522     -0.42296838340853     -0.77350872159624
  H   2.08768362996258     -0.09423348939040      0.96767329786152
  C   -1.62144288897657      1.52535922702022      0.01605027566781
  N   -2.76361359107053      1.79278274380939     -0.00752545525835
