14
Coordinates from ORCA-job run
  C   0.03368419096948     -0.29753361030275      0.32609431525250
  C   -0.22222584894850      1.18656670637299      0.06494623124609
  Cl  -0.67811812007060     -0.76705581520236      1.86700599865773
  H   0.22187058345151      1.75953949369189      0.88281770666884
  H   0.26792393671935      1.47136829230881     -0.86805580101658
  N   -0.63194006828636     -1.08136183609113     -0.81586384830804
  O   -1.37092545432229     -2.01747303192641     -0.56054644329758
  O   -0.30375291189137     -0.68790469877295     -1.93213860286959
  C   1.51066324322454     -0.64006662941299      0.29609391922741
  H   1.64766695920041     -1.71006130625329      0.46035867484426
  H   2.02629042201393     -0.09838985874217      1.09024768034871
  H   1.93382550272038     -0.36544475499781     -0.67114807859605
  C   -1.64584463699154      1.49818316133746     -0.02863030445987
  N   -2.78911779778894      1.74863388799071     -0.11218144769781
