14
Coordinates from ORCA-job run
  C   -0.05104859361627     -0.36081952678304      0.45857431313653
  C   -0.61860969082251      1.05558961223443      0.43783461108052
  Cl  -0.32847462666727     -1.04036316880681      2.07932468827589
  H   -0.08555360648263      1.64625554425873      1.18733234327308
  H   -1.67576803359683      1.03649577462264      0.70297136299989
  N   -0.87158703770434     -1.22999589964129     -0.50176338317571
  O   -2.03449948457397     -0.89451543841791     -0.69676153647125
  O   -0.31134323175835     -2.21334686136029     -0.96890149222475
  C   1.41107098566260     -0.44178842160695      0.09481088027740
  H   1.56024176759247     -0.09391694514113     -0.92945211251190
  H   1.98301364272410      0.19022574194634      0.77631359789243
  H   1.76537252945499     -1.46688264481289      0.17408282574880
  C   -0.45095100781572      1.66878159580996     -0.87724223583700
  N   -0.29086361239628      2.14628063769820     -1.93712386246395
