17
Coordinates from ORCA-job run
  C   0.59927188171861      0.17359803129072      0.43579649682259
  C   -0.89931708153262     -0.03433593855585      0.18958084466394
  F   0.81196636229251     -0.26541740221791      1.76509700667151
  H   -1.40812082782981      0.55728241290798      0.97465722424152
  N   0.90434727776912      1.56486068859186      0.32070899610750
  H   0.43043717423864      2.08156911829964      1.05356376791589
  H   1.90027960906387      1.71870498569424      0.42022838627329
  C   1.47904077657593     -0.66230554394595     -0.45771031594526
  H   2.52414740903969     -0.53889414566275     -0.16155954695361
  H   1.35642769214994     -0.36654719820525     -1.49907943291183
  H   1.19561465425517     -1.70653988599453     -0.34321713954611
  N   -1.23643231318575     -1.44323918189229      0.32562837276864
  H   -1.74508401187721     -1.62647728429384      1.17768259268055
  H   -1.77949803882261     -1.73668760333559     -0.47382352401638
  N   -1.21513682007478      0.41081284109612     -1.15656338741915
  H   -2.20710316921339      0.60258614507188     -1.23119756037776
  H   -0.71184057456732      1.27102996115153     -1.33979278097533
