17
Coordinates from ORCA-job run
  C   0.62255835342752     -0.08168540186412      0.34032620874374
  C   -0.75270804783005      0.22163009037617     -0.26670272792098
  F   0.42290359611009     -1.34084651802318      0.99593536487239
  H   -0.65466784348454      1.14393550549774     -0.84927975675362
  N   1.00346194040807      0.87216846391501      1.30965033000330
  H   1.81560748965429      1.41227478115185      1.06281797977675
  H   0.22503931215019      1.43424513370328      1.62056216914583
  C   1.70525632934956     -0.31183557767110     -0.68781714659600
  H   1.43552796321745     -1.13822957550683     -1.34046828139998
  H   2.63882608764005     -0.54565447575450     -0.17105494282651
  H   1.84509142487431      0.58345813823195     -1.29826589702168
  N   -1.66092183497525      0.51445346728844      0.84182340153407
  H   -2.57350252190295      0.77576622462684      0.48962418208883
  H   -1.76560110831775     -0.32027939043617      1.40812322166853
  N   -1.11505181543296     -0.84516047018105     -1.18619892296015
  H   -2.02083216021573     -0.65945694112159     -1.59951176467724
  H   -1.17198716467230     -1.71578345423275     -0.67056341767730
