17
Coordinates from ORCA-job run
  C   0.61230817749530      0.16045270143942      0.42593790056368
  C   -0.89268610197800      0.12199000771569      0.12420440771966
  F   0.75171620677134     -0.54983592617885      1.66931301539230
  H   -1.36628577994594      0.82099142127360      0.83404423977254
  N   1.05435193823568      1.49366123627379      0.57883896631550
  H   0.54245862411565      1.96383674945751      1.31466291520506
  H   2.04246211468619      1.51894402757902      0.79597855426547
  C   1.44678794240460     -0.58461761700903     -0.58666922841379
  H   1.40800213455646     -0.06521470154455     -1.54340941649392
  H   2.48368967147629     -0.62736632060039     -0.24434398512015
  H   1.07255395341448     -1.60169507699564     -0.69725930834268
  N   -1.36360573476325     -1.25204489709220      0.27522009542429
  H   -1.10090517123499     -1.60693080487238      1.18635809670159
  H   -2.37436337467160     -1.26571021569563      0.20724684419019
  N   -1.14640425954784      0.62086325919080     -1.21175729688018
  H   -1.09293464078190     -0.16197834420416     -1.85399075598529
  H   -2.07614570023248      1.01365450126299     -1.27437504431426
