17
Coordinates from ORCA-job run
  C   0.64251828075415      0.04177915789060      0.24292458160104
  C   -0.79018378860591      0.22411031807607     -0.26106719114112
  F   0.57849682472018     -1.17353838762473      1.02819930547546
  H   -0.80959352422906      1.13994609173493     -0.85836268837395
  N   1.00410317220928      1.14483477548480      1.04066817199734
  H   0.27548598139433      1.33848335343288      1.71578312532735
  H   1.89565912502898      0.99811034301907      1.49426278723161
  C   1.65947187488091     -0.22045845176003     -0.84109044832443
  H   1.40045631136060     -1.11692738416948     -1.39864188527395
  H   2.64662909885797     -0.34759763874824     -0.38915951742961
  H   1.69317639005678      0.62876506016858     -1.52473165628465
  N   -1.63739177373166      0.45301717172657      0.91036951788690
  H   -2.56837859189858      0.72612369035367      0.62128315815104
  H   -1.70813165736836     -0.41210024234331      1.43422752532466
  N   -1.12834974910667     -0.88970065253158     -1.13322853933542
  H   -2.07404962964327     -0.78414345500628     -1.47957654848710
  H   -1.08091834467969     -1.75070374970353     -0.59985969834518
