17
Coordinates from ORCA-job run
  C   0.52944727267768     -0.22775314642725      0.42426592072511
  C   -0.87663709398740     -0.33352839921600     -0.18619633128982
  F   0.60416108101272     -1.22788160692532      1.40514419992704
  H   -0.96512381591129     -1.34047362776640     -0.62019110389810
  N   0.63024896284350      1.03787574897162      1.09156639840654
  H   1.58144748829430      1.21668143833419      1.38906364408774
  H   0.33722394809609      1.75523539172824      0.43727261514071
  C   1.63789961446307     -0.53368072512682     -0.56618836265368
  H   1.48406281793287     -1.50814689777561     -1.03727394143975
  H   1.68738278529898      0.23841739764797     -1.33641437486802
  H   2.59613733071839     -0.55863232795970     -0.04094504316284
  N   -1.03175369122499      0.74184411974891     -1.16355595191081
  H   -0.61190737751488      0.48626344015517     -2.04925367619059
  H   -2.02679568802011      0.86200673906367     -1.31216766517826
  N   -1.93631509931614     -0.18671630665683      0.79169499553389
  H   -1.68822019873181      0.59084001540022      1.39623681694605
  H   -1.94825833663096     -1.01235125319607      1.37794185982480
