15

C	-0.476145	-0.010858	-1.429869
C	0.0	0.0	0.0
Br	-0.162354	-1.717565	-2.253708
H	1.091186	0.0	0.0
H	-0.344979	-0.933195	0.448626
N	-1.973164	0.291419	-1.490339
O	-2.33054	1.315902	-2.058227
O	-2.695158	-0.502484	-0.90494
N	0.182063	1.086766	-2.268859
O	0.200922	0.943609	-3.484157
O	0.598755	2.051726	-1.643686
N	-0.559452	1.158107	0.697612
H	0.201543	1.810674	0.849899
H	-0.900269	0.862969	1.603001
H	2.82703	0.0	0.0
