15

C	-0.506261	-0.115713	-1.412791
C	0.0	0.0	0.0
Br	-0.120969	-1.85041	-2.142978
H	1.094126	0.0	0.0
H	-0.342131	-0.898016	0.518739
N	-2.018462	0.115993	-1.441411
O	-2.428883	1.139115	-1.976261
O	-2.692864	-0.711004	-0.842275
N	0.07222	0.952107	-2.336891
O	0.583566	1.919394	-1.788426
O	-0.053018	0.781225	-3.543683
N	-0.562429	1.199181	0.626338
H	0.175229	1.894694	0.646929
H	-0.798021	0.97965	1.584635
H	2.825937	0.0	0.0
