15

C	-0.532293	-0.063045	-1.404571
C	0.0	0.0	0.0
Br	-0.025884	1.507738	-2.391614
H	1.097521	0.0	0.0
H	-0.328102	0.955544	0.42279
N	-0.053312	-1.323914	-2.116105
O	-0.731389	-2.324322	-1.907889
O	0.984667	-1.258576	-2.755547
N	-2.064398	-0.128522	-1.48241
O	-2.681286	0.11805	-0.451392
O	-2.559128	-0.384557	-2.572746
N	-0.401109	-1.172135	0.754617
H	0.410878	-1.485458	1.275124
H	-1.161349	-0.970365	1.387008
H	2.781484	0.0	0.0
