13
Coordinates from ORCA-job run
  C   -0.28456541412623     -0.13427634396327     -0.01194198041786
  C   0.99745937566945     -0.37163549844758      0.27654595077154
  H   1.36414935463293     -1.35245836035317      0.54887319158973
  N   -0.75435461495408      1.19650424917643     -0.42535935684840
  O   -0.58073416835576      1.50060130326396     -1.59949327268717
  O   -1.35094773476304      1.83801594257254      0.43174732542896
  C   -1.37972711183497     -1.14143765710306      0.04790188464218
  H   -1.85975979467474     -1.22330086584690     -0.93109184480804
  H   -0.99765659434545     -2.11957362084048      0.33981033468245
  H   -2.13370785096197     -0.81907849309814      0.77000481222959
  N   2.05042287411076      0.62982550516083      0.20109446109255
  O   1.73358181542769      1.81565817984823      0.16705281596887
  O   3.19683986417542      0.18215565963061      0.18285567835559
