13
Coordinates from ORCA-job run
  C   -0.28298755060416     -0.13772799868502     -0.00730846604697
  C   1.00200263398760     -0.35058942439661      0.28715635496632
  H   1.37756162112279     -1.31488874281833      0.60298856263251
  N   -0.76606841536293      1.16906936148586     -0.47790991638870
  O   -1.36880665483480      1.84142577153739      0.35086754031294
  O   -0.59609234920788      1.42334162763087     -1.66433081812204
  C   -1.36852025556070     -1.15134811432011      0.09957943457634
  H   -0.97586928495843     -2.11462809058075      0.42487359421281
  H   -2.11930466457034     -0.80796408692532      0.81531234253026
  H   -1.85589275580936     -1.27430354344470     -0.87144705536252
  N   2.04486333826301      0.65764574465893      0.17270393044641
  O   3.19626062311476      0.22293557114382      0.18442296729735
  O   1.71485371442043      1.83703192471396      0.08309152894528
