13
Coordinates from ORCA-job run
  C   -0.30094159175409      0.19012885162623     -0.17424765203059
  C   0.99023371808527      0.52440246663472     -0.05206159364495
  H   1.41005143455177      1.42636788667133     -0.47502437708685
  N   -1.13707771224814      1.22561377543139     -0.83838401506320
  O   -0.58330570933865      2.08142676114096     -1.52231651637713
  O   -2.34639710716720      1.14554674961197     -0.63036056004355
  C   -1.04061982721852     -1.01532925868185      0.28326155418217
  H   -0.35217728476566     -1.81679822509510      0.53651420054992
  H   -1.73075347839573     -1.34058934182961     -0.49585892153096
  H   -1.63352320570861     -0.77460752426688      1.16816029722811
  N   1.97736540341261     -0.33748914002733      0.57744666831729
  O   1.63354521884849     -1.06633240022670      1.50692469415715
  O   3.11460014169847     -0.24334060098913      0.11594622134260
