13
Coordinates from ORCA-job run
  C   -0.30722743140540      0.18498145739883     -0.16809245909018
  C   1.01115240977429      0.34143763932938     -0.34523572426425
  H   1.43378096838655      1.07978523204564     -1.01225050939871
  N   -1.14506977909623      1.03092037575777     -1.06059514188909
  O   -0.63602322002358      2.01466854447030     -1.58959209311541
  O   -2.30676147380684      0.65657701389168     -1.21041417347150
  C   -1.06689526972003     -0.72207145411072      0.73148973348305
  H   -1.48630337609617     -1.55038142966941      0.15651610178868
  H   -0.41978972948611     -1.13034374839346      1.50283434745061
  H   -1.89950590452498     -0.18065703832422      1.18174548365222
  N   2.00769294601787     -0.39532774760801      0.41484356829709
  O   1.75829200060301     -1.54388766718760      0.77817927768320
  O   3.05665785937762      0.21529882239982      0.61957158887429
