13
Coordinates from ORCA-job run
  C   -0.30362139210455      0.18720616391488     -0.17247608406189
  C   0.91389969160625      0.62826813869431      0.16956680357249
  H   1.25489084358315      1.63497314379281     -0.02785235108832
  N   -1.19379566670403      1.23607050369769     -0.73840439600080
  O   -0.68792244540286      2.26351516443868     -1.18027672327939
  O   -2.39747320180220      0.98709329685578     -0.70270993019173
  C   -0.92383790441726     -1.15695998364827     -0.03843133311531
  H   -1.48239997014828     -1.39583432812752     -0.94398860668257
  H   -0.16717081424260     -1.91363256327644      0.14955974509913
  H   -1.63099194378565     -1.15954373564044      0.79375092174259
  N   1.93438796915560     -0.22905132530955      0.75024911913647
  O   3.09114739546794      0.07416168915519      0.45875992647041
  O   1.59388743879449     -1.15726616454714      1.48225290839892
