13
Coordinates from ORCA-job run
  C   -0.28448904117407     -0.13380039386416      0.01067692004883
  C   0.98220705914934     -0.27960049674976      0.40736599510146
  H   1.32827229389844     -1.14799568075471      0.95215326493188
  N   -0.72716695396794      1.03355626743130     -0.76600540850954
  O   -0.51644455001494      1.00114099825590     -1.97259695002827
  O   -1.34119640642138      1.88804819555202     -0.13783768386264
  C   -1.38820112728106     -1.09291983223173      0.29244755201915
  H   -1.83054568555625     -1.43319102400352     -0.64780228890511
  H   -1.02496535628995     -1.95741692523707      0.84798542878392
  H   -2.16728951282878     -0.59305097373532      0.87309168339199
  N   2.04500771976552      0.67044745690726      0.11540035318377
  O   3.18734142506120      0.24995359759145      0.29752670136553
  O   1.73847013565987      1.79382881083834     -0.27440556752096
