13
Coordinates from ORCA-job run
  C   -0.28163446654057     -0.13757258307303     -0.01545913160614
  C   0.95546464647769     -0.27018007621390      0.46976571588707
  H   1.25469936995193     -1.10862871232811      1.08467189525044
  N   -0.68330619348966      1.02094244264198     -0.82657059583615
  O   -0.68875506974977      0.84719833492050     -2.03941937305117
  O   -1.05608927470202      2.01295281265804     -0.21177751037675
  C   -1.38940004144699     -1.11244254359220      0.18474011101547
  H   -2.23404887526039     -0.61579962309586      0.66978270780152
  H   -1.72644552553366     -1.48714367811922     -0.78504676496675
  H   -1.06759549679847     -1.95170355173471      0.80115045314759
  N   2.02512621719626      0.69503502512043      0.26756563988441
  O   3.03757792825843      0.50284089520138      0.94077960422012
  O   1.85240678163722      1.60450125761470     -0.53918275136967
