13
Coordinates from ORCA-job run
  C   -0.32202023857288      0.19491921566198     -0.12310470710206
  C   0.96661833410140      0.55955420812077     -0.10676899124399
  H   1.31048250283228      1.53099235537321     -0.43343088034837
  N   -1.23004438995511      1.19752802028394     -0.74293638947785
  O   -2.31639185267589      0.76583625768709     -1.12436477632394
  O   -0.84396089308385      2.35808424660927     -0.84660074388299
  C   -0.98514436556073     -1.05540704609970      0.33137875083717
  H   -1.24907577264173     -1.67130743997176     -0.53089856150128
  H   -1.90928015677082     -0.81096094544675      0.85604145115019
  H   -0.32509297185651     -1.62920358040456      0.97599769482764
  N   2.02111504752843     -0.27726916443819      0.44235561141015
  O   1.92226371179326     -1.50063520447199      0.35896290308310
  O   2.96053104486216      0.33886907709669      0.94536863857225
