13
Coordinates from ORCA-job run
  C   -0.32745451279953      0.20742414905402     -0.08178281173124
  C   0.94816351866310      0.59857015284202      0.03658814473469
  H   1.26189682733021      1.62868952415804     -0.05870772504108
  N   -1.26293679491337      1.29468056253313     -0.47630818414341
  O   -2.33078752152396      0.92615707191364     -0.96226357290133
  O   -0.91530981520249      2.46041039104834     -0.31222813617241
  C   -0.95165342090022     -1.13302785093567      0.06972382580851
  H   -1.88681139911768     -1.04244357686654      0.62330372830228
  H   -0.27722326272673     -1.81737433459440      0.57691382632283
  H   -1.19049616589849     -1.54574529700793     -0.91268283746380
  N   2.02528070523790     -0.30637386973180      0.40282196697725
  O   2.93728858091711      0.21055820297063      1.04805916951456
  O   1.97004326093416     -1.48252512538350      0.04656260579316
