13
Coordinates from ORCA-job run
  C   -0.27048275375645     -0.15199792129461     -0.05186782434186
  C   1.03184840265433     -0.33363137972817      0.18084988570417
  H   1.49221570822327     -1.31263594918393      0.19732910329327
  N   -0.87060857712542      1.18904221504684     -0.11133452928234
  O   -1.49905622090299      1.53424604930698      0.88255687360125
  O   -0.75849192962937      1.79356566808124     -1.17115321048782
  C   -1.26381994812358     -1.23985424581082     -0.26934485006189
  H   -1.75090274557027     -1.10675653380063     -1.23914831765619
  H   -2.03229347943916     -1.19291369093936      0.50606626547488
  H   -0.78597488372697     -2.21906958040569     -0.24265879502512
  N   1.98455643707267      0.74682875325064      0.38675127408451
  O   1.55499709260872      1.87138593304166      0.62906992204308
  O   3.16901289771522      0.42279068243583      0.30288420265405
