13
Coordinates from ORCA-job run
  C   -0.26650841915354     -0.14187406647840     -0.08764836689921
  C   0.98415876104854     -0.37229908186107      0.31975967697087
  H   1.36785697714567     -1.36878730209748      0.49426714411684
  N   -0.78450855031678      1.22099628435923     -0.27751435971577
  O   -1.16658869797438      1.80823091783244      0.72765388717833
  O   -0.86113324859474      1.60256952466573     -1.43968612775863
  C   -1.27438649827640     -1.19202638079413     -0.40219434406891
  H   -1.57949869265565     -1.10419756466747     -1.44771888192208
  H   -0.87038623803378     -2.18918364597854     -0.22801569096403
  H   -2.16037499959850     -1.05183699987717      0.22308692510992
  N   1.95024145656435      0.67207877066440      0.62475237553925
  O   2.93893519241593      0.30182899363760      1.25744812065315
  O   1.72319295742928      1.81450055059485      0.23580964176027
