13
Coordinates from ORCA-job run
  C   -0.26550532271658     -0.13620703573999     -0.10435779405573
  C   0.96017047256627     -0.40255279770748      0.35364558816167
  H   1.31398220422708     -1.41011603550711      0.52768687431747
  N   -0.74081576337233      1.24366545185252     -0.28419758137258
  O   -0.80548666069423      1.63506659267536     -1.44399182994385
  O   -1.10027377114551      1.83892816056521      0.72478971989902
  C   -1.28085668769908     -1.15553699509555     -0.48756591929300
  H   -0.90483255134484     -2.16494764618434     -0.32126479429358
  H   -1.53760486144286     -1.03595310074033     -1.54276830678413
  H   -2.19059953566426     -1.01215271451255      0.10176752099310
  N   1.93005408851913      0.61647030616209      0.72620206630872
  O   1.78070888490261      1.75570885321642      0.29297949440630
  O   2.84105950386460      0.22862696101576      1.45707496165659
