13
Coordinates from ORCA-job run
  C   -0.30888500902145      0.21636489536418     -0.12133244491521
  C   0.96694743450873      0.56085767862398      0.09645349668236
  H   1.33476723003294      1.57095557159397     -0.01794064974558
  N   -1.15425058570841      1.31912123139372     -0.65294376436036
  O   -0.77143559318041      2.47671660860667     -0.51084061339958
  O   -2.18828729545813      0.97001912719360     -1.21956231883257
  C   -1.00447037203976     -1.08790538943739      0.03526901646660
  H   -1.98282233346384     -0.93024972120772      0.49024873853447
  H   -0.41270598769421     -1.77040774580559      0.63896791098255
  H   -1.16679439345460     -1.54310291502582     -0.94402664515332
  N   1.96396639859453     -0.36798645523308      0.60332992521070
  O   2.83675007422306      0.14294846646977      1.30496944991472
  O   1.88722043266158     -1.55733135253628      0.29840789861521
