13
Coordinates from ORCA-job run
  C   -0.26594343235452     -0.16338434605691     -0.03860021634199
  C   1.03255290404736     -0.28528411670802      0.24764923087660
  H   1.50971860011361     -1.24413594844802      0.40119825400007
  N   -0.88924920491515      1.14561880638466     -0.28435939543339
  O   -1.55205826846466      1.60042378149766      0.64071545788753
  O   -0.75855295535310      1.61268172499044     -1.40949766126424
  C   -1.23245326836292     -1.29152988509545     -0.14138746760909
  H   -0.73765843219379     -2.24893607877521      0.02125165495097
  H   -2.02316878639843     -1.16400379455939      0.60192744205821
  H   -1.69451149185966     -1.29237806980567     -1.13234789976054
  N   1.95877615760496      0.83313881090167      0.33945697157770
  O   3.15091903383761      0.52718873928748      0.32884744549178
  O   1.50162914429868      1.96960037638676      0.42514618356640
