13
Coordinates from ORCA-job run
  C   -0.28845488656220     -0.11948198226613      0.03899987845115
  C   0.95225438160397     -0.13546844542640      0.53246856574361
  H   1.22242680621486     -0.69602780678141      1.41759717582126
  N   -0.64636807111294      0.68237823193820     -1.14035943925292
  O   -0.76344690753910      0.06085818225320     -2.19005568514434
  O   -0.87432538372741      1.87061824877380     -0.94671075900942
  C   -1.44081263520919     -0.88678041682372      0.58737416932533
  H   -2.24945092695652     -0.19961255827123      0.85093191595764
  H   -1.15096394608438     -1.45139454518001      1.47342955727095
  H   -1.81552375055951     -1.57659953336780     -0.17269567539989
  N   2.06193203814875      0.62691928761499     -0.01932001104684
  O   1.94713016438762      1.10001608334932     -1.14669558167682
  O   3.04560311739605      0.72457525418719      0.71403588896029
