17

C	-0.408877	-0.007245	-1.491052
C	0.0	0.0	0.0
F	0.017026	1.112944	-2.12601
H	1.097335	0.0	0.0
N	0.225613	-1.196805	-2.209467
O	-0.295916	-2.285541	-1.976287
O	1.194082	-0.975754	-2.914887
C	-1.865737	-0.129968	-1.660767
N	-3.03882	-0.16484	-1.717854
N	-0.475213	-1.140356	0.748703
H	-0.009557	-1.988514	0.455485
H	-1.476028	-1.265034	0.646515
C	-0.496553	1.289749	0.634853
H	-0.114115	1.313473	1.655473
H	-1.591923	1.32575	0.671445
H	-0.124287	2.164768	0.102161
Br	3.496748	0.0	0.0
