17

C	-0.428038	0.057404	-1.482413
C	0.0	0.0	0.0
F	-0.006613	1.202696	-2.073513
H	1.094579	0.0	0.0
N	0.176431	-1.102252	-2.274776
O	-0.306005	-2.206274	-2.031463
O	1.073085	-0.842459	-3.057984
C	-1.889873	-0.046528	-1.633632
N	-3.063862	-0.070008	-1.686443
N	-0.451945	-1.176963	0.70629
H	0.074308	-1.990909	0.418336
H	-1.439157	-1.355378	0.558882
C	-0.497717	1.2568	0.698818
H	-0.163097	2.159681	0.187818
H	-1.591286	1.266821	0.776144
H	-0.07942	1.250253	1.705257
Br	3.516695	0.0	0.0
