17

C	-0.361372	-0.003987	-1.498007
C	0.0	0.0	0.0
F	0.047393	-1.164363	-2.073773
H	1.097117	0.0	0.0
N	-1.883596	0.032258	-1.638495
O	-2.414859	1.138751	-1.64997
O	-2.461741	-1.050256	-1.630858
C	0.162218	1.134582	-2.255993
N	0.567054	2.045534	-2.877617
N	-0.431039	-1.203035	0.677636
H	-1.412021	-1.406086	0.515994
H	0.120328	-1.988573	0.35412
C	-0.499663	1.245101	0.709762
H	-0.056401	1.245777	1.705329
H	-0.192351	2.156681	0.193712
H	-1.589369	1.251682	0.81115
Br	3.494413	0.0	0.0
