17

C	-0.463597	-0.005875	-1.451971
C	0.0	0.0	0.0
F	0.159819	0.970505	-2.171451
H	1.096604	0.0	0.0
N	-0.082189	-1.334585	-2.106268
O	-0.991843	-2.080688	-2.458892
O	1.118596	-1.532507	-2.212554
C	-1.918742	0.164003	-1.591988
N	-3.066584	0.405482	-1.649895
N	-0.523032	-1.223922	0.606539
H	0.248221	-1.86841	0.741295
H	-0.9158	-1.023405	1.516712
C	-0.490624	1.255397	0.697973
H	-1.579167	1.24495	0.820721
H	-0.01777	1.314551	1.680753
H	-0.203679	2.147051	0.137974
Br	3.531448	0.0	0.0
