12

C	-0.304432	0.028787	-1.466955
C	0.0	0.0	0.0
F	-1.670234	0.100358	-1.741461
H	1.094385	0.0	0.0
H	0.176396	0.911781	-1.894763
H	0.093351	-0.873904	-1.926552
N	-0.382186	-1.24779	0.65076
O	-0.617401	-1.223953	1.865482
O	-0.302976	-2.281314	-0.025584
C	-0.505099	1.146122	0.720846
N	-0.861647	2.134693	1.247878
H	2.449511	0.0	0.0
