12

C	-0.485633	0.119599	-1.429759
C	0.0	0.0	0.0
F	0.188114	-0.7333	-2.280248
H	1.091042	0.0	0.0
H	-0.29034	1.14347	-1.761978
H	-1.553908	-0.103303	-1.508658
N	-0.421195	-1.229676	0.656358
O	-0.760604	-2.183248	-0.060021
O	-0.288286	-1.286228	1.886335
C	-0.433099	1.142981	0.775406
N	-0.747529	2.126534	1.339227
H	2.443322	0.0	0.0
