12

C	-0.296785	0.026268	-1.469318
C	0.0	0.0	0.0
F	-1.660006	0.107786	-1.753022
H	1.094339	0.0	0.0
H	0.097099	-0.881345	-1.922728
H	0.194809	0.903205	-1.896887
N	-0.387087	-1.245177	0.651344
O	-0.645364	-1.216573	1.861377
O	-0.291841	-2.281965	-0.018269
C	-0.506235	1.149523	0.714685
N	-0.862518	2.141857	1.234826
H	2.449338	0.0	0.0
