11
Coordinates from ORCA-job run
  C   0.38876125022239      0.15505272910846     -0.49053841709892
  C   -0.91741213025318     -0.03226413882431      0.29661613967863
  F   0.36334768019980     -0.67475884688499     -1.58748071596858
  H   -0.93802441154063      0.66011890740725      1.14287328153443
  H   -1.74699504337098      0.21495101978956     -0.37176068506268
  C   0.48665212989887      1.55193952249322     -0.94945548050070
  N   0.52607306162743      2.67103277574758     -1.30337671612492
  C   1.55966827612619     -0.17893897343821      0.33739433280456
  N   2.48071063323016     -0.44363000971227      1.01644588164621
  C   -1.04919287233086     -1.40841967192740      0.76553192250650
  N   -1.15358857380919     -2.51408331375890      1.14375045658548
