11
Coordinates from ORCA-job run
  C   0.45987229377644      0.09919272433990     -0.44150036226326
  C   -0.41440611302145     -0.65935924214909      0.56865739100311
  F   0.24474565024516     -0.43020924729182     -1.69302415110475
  H   -0.21388005397051     -0.28901537731826      1.57776694238222
  H   -0.13144401060212     -1.71487066935331      0.52594728315802
  C   0.12580698830444      1.53315472891190     -0.46140616720550
  N   -0.15153728246743      2.67445592231758     -0.45161250546437
  C   1.87956656277865     -0.07399876465640     -0.08635126952864
  N   3.00004917177995     -0.23818341114458      0.22506969675170
  C   -1.83045362760596     -0.51136157929377      0.24682987317000
  N   -2.96831957921718     -0.39080508436215     -0.01237673089854
