11
Coordinates from ORCA-job run
  C   0.44319956189945      0.09228571116507     -0.45920401020018
  C   -0.94331385800012     -0.08395716018620      0.17867980594239
  F   0.66403013949858     -0.95382636826523     -1.32473871049169
  H   -1.15848815684366      0.76705072590911      0.83098978236589
  H   -1.68096580328794     -0.09520490901430     -0.62874434977868
  C   0.47461824948621      1.35547861973559     -1.21744980059619
  N   0.46025527104175      2.36591127315935     -1.81576297304114
  C   1.50184205801698      0.10111390217407      0.56405049599905
  N   2.32940168583040      0.11370108308728      1.39749570973549
  C   -1.01493186829714     -1.33114468890661      0.93410802695715
  N   -1.07564727934452     -2.33240818885813      1.54257602310790
