11
Coordinates from ORCA-job run
  C   0.39212313555146      0.12443292811523     -0.49726352181871
  C   -0.91444805403206      0.01707805410067      0.30412820186646
  F   0.31901326240565     -0.73047348903152     -1.57263698553800
  H   -0.89563409373793      0.72949519545376      1.13353820659439
  H   -1.73716371041562      0.28662617993322     -0.36403870082261
  C   0.54910371604466      1.50348081831925     -0.99219945999275
  N   0.63512409546455      2.61115699369685     -1.37291640418961
  C   1.55350587401410     -0.24186970926024      0.33032346906756
  N   2.46508477386577     -0.52936521384719      1.01297406675371
  C   -1.10644061690701     -1.33997862621765      0.80681300403712
  N   -1.25926838225357     -2.43058313126239      1.21127812404245
