11
Coordinates from ORCA-job run
  C   0.31934712982971      0.55642501445243     -0.06783166168924
  C   -0.82314511980122     -0.46291181188446     -0.19441529794016
  F   -0.12198866530303      1.61860540092925      0.68736313122996
  H   -1.66795440227709      0.04194665050360     -0.67135486545676
  H   -0.50776616885002     -1.28991890458779     -0.83684829379610
  C   1.49444179004565     -0.04183252553254      0.58698707189307
  N   2.42174159791509     -0.54205754369455      1.10614693233701
  C   0.69039745269854      1.04419559234063     -1.40769806066897
  N   0.95417643656255      1.41161048442476     -2.49156922277707
  C   -1.22038930695932     -0.96489317059140      1.11767263195959
  N   -1.53886074386086     -1.37016918635993      2.17154763490865
