11
Coordinates from ORCA-job run
  C   0.62789238558055      0.12540001504033      0.07778725163988
  C   -0.67028620589663     -0.69281593378633      0.00039964703053
  F   1.11956789351648      0.04783881488971      1.36030785426012
  H   -0.42947761665585     -1.72439859275733      0.27240558989814
  H   -1.04827793487620     -0.68554467697059     -1.02578926242946
  C   1.62021828123384     -0.44463101962310     -0.85048170622561
  N   2.38525521071075     -0.93098131072517     -1.59708985640444
  C   0.38617204004731      1.53804863558579     -0.25931059659363
  N   0.17195106406526      2.65852924935065     -0.53905173765076
  C   -1.67657038245665     -0.15989305608477      0.91401579088302
  N   -2.48644473526886      0.26844787508080      1.64680702559223
