11
Coordinates from ORCA-job run
  C   0.48591972787525      0.14102986556120     -0.55623337924207
  C   -0.77640799882754     -0.66959131140573     -0.22251431127964
  F   0.81181274536740     -0.13906579140450     -1.86625723170631
  H   -0.54711748336758     -1.72647857644119     -0.38411802532433
  H   -1.55954989517675     -0.37274733322123     -0.92556051452921
  C   0.23359444327635      1.58560079941769     -0.42718601658106
  N   0.00392424648609      2.73392748101619     -0.33608593056541
  C   1.60968620112390     -0.25441745827854      0.30856634654205
  N   2.49677170009864     -0.59951789996599      0.99676559272810
  C   -1.20920371666314     -0.44361966795131      1.15175087053895
  N   -1.54942997019261     -0.25512010732659      2.25887259941891
