11
Coordinates from ORCA-job run
  C   0.43801067606711      0.08256764105227     -0.46709311555229
  C   -0.94121765720110     -0.07686552895212      0.19105244684945
  F   0.64506378220452     -0.98044122798388     -1.31521500339204
  H   -1.14519582667131      0.78722710615933      0.82962700326011
  H   -1.68922334607236     -0.10104108038303     -0.60647941334513
  C   0.46424562537078      1.33093113226657     -1.24947788972625
  N   0.44504957128443      2.32909657098110     -1.86786842760873
  C   1.50831942490861      0.10659747981327      0.54361941129768
  N   2.34445480282795      0.13081578420634      1.36816278483838
  C   -1.00682309701150     -1.30902912230060      0.97136037210281
  N   -1.06268395570713     -2.29785875485926      1.60031183127601
