11
Coordinates from ORCA-job run
  C   0.52388821217105      0.03653946678295     -0.37235627975282
  C   -0.52164259966681     -0.57202097830916      0.57491424643382
  F   0.47452185945916     -0.63655115872170     -1.57102532959081
  H   -0.27600922225117     -1.62969292196543      0.70558763014620
  H   -0.46314833952009     -0.08088540304952      1.55022018430014
  C   0.25587973373231      1.46450960412764     -0.61154959676661
  N   0.02808191939343      2.60395632954020     -0.78274875429408
  C   1.86677292705180     -0.12656580822715      0.21214160493453
  N   2.92184368776868     -0.28335755966381      0.70327305941126
  C   -1.86538254183487     -0.43973974341943      0.01986380945981
  N   -2.94480563630348     -0.33719182709459     -0.42832057428143
