11
Coordinates from ORCA-job run
  C   0.54972507921659     -0.01387013766465     -0.34061888738364
  C   -0.51958297226459     -0.45563663728124      0.67063008304254
  F   0.65035709258770     -0.97321391725361     -1.32115918485946
  H   -0.20692957837520     -1.41726294425182      1.08731479068775
  H   -0.57573585898973      0.27177376262148      1.48539786054187
  C   0.19260330895921      1.27293530790671     -0.96067464916104
  N   -0.10884880395378      2.30600213306188     -1.43145656996197
  C   1.84805074270553      0.10798587329512      0.34564585038707
  N   2.86440211909279      0.18576224982092      0.92898351056995
  C   -1.82205644257358     -0.59132641005106      0.02524435594022
  N   -2.87098468640496     -0.69314928020373     -0.49030715980329
