11
Coordinates from ORCA-job run
  C   0.33470549478590      0.55135652175431     -0.02430081389297
  C   -0.84312054030803     -0.41818699836441     -0.20741332381382
  F   -0.04611045599230      1.54541589446131      0.84690447258538
  H   -1.68659507283477      0.15413868592333     -0.60373875454941
  H   -0.57475829719262     -1.18753362650648     -0.93682208245262
  C   1.51246151524750     -0.14239958019411      0.52309121079768
  N   2.44157520655052     -0.71822806925779      0.95298831509913
  C   0.67432336426464      1.15756885651852     -1.32373781033483
  N   0.91128693906825      1.62202072061808     -2.37605441112267
  C   -1.21326347401610     -1.03343760178576      1.06371167388550
  N   -1.51050467957299     -1.52971480316702      2.08437152379864
