11
Coordinates from ORCA-job run
  C   0.45807054818318      0.07619681731942     -0.59066920280158
  C   -0.86271264103506     -0.57726827018088     -0.15418104909479
  F   0.65884277294087     -0.26222768278128     -1.91224338952345
  H   -1.65448877543873     -0.19919579325403     -0.80663156298112
  H   -0.76870207448815     -1.65533159211707     -0.31118358117269
  C   0.38192327694336      1.54222111743620     -0.48178616035807
  N   0.29220622378495      2.71089648913652     -0.40500343570094
  C   1.58631706630090     -0.43133557454513      0.20711519813934
  N   2.47374596485371     -0.86205917333453      0.84479776651701
  C   -1.16648685409729     -0.28830541496745      1.24253990924644
  N   -1.39971550794773     -0.05259092271177      2.36824550772986
