11
Coordinates from ORCA-job run
  C   0.49859712487828      0.15990519904760     -0.37781991243235
  C   -0.95075767802351     -0.15103443491997      0.02665449320098
  F   0.91241363107746     -0.78426013040812     -1.28875542005254
  H   -1.31336610107933      0.61897358865145      0.71312378915480
  H   -1.56211811670604     -0.12150003197690     -0.87956791046075
  C   0.55330470404358      1.49034083730175     -1.00889468479809
  N   0.55200964933945      2.55233687992209     -1.51027311063366
  C   1.39435568950533      0.12589049711282      0.79024534379604
  N   2.08825767120434      0.10168143899095      1.73759332298689
  C   -1.04675230704443     -1.46854315107050      0.64817397646462
  N   -1.12494426719513     -2.52579069265119      1.15052011277406
