11
Coordinates from ORCA-job run
  C   0.49784466983992      0.09915809442956     -0.55495672874115
  C   -0.78918121343550     -0.66174343203061     -0.19943755114784
  F   0.83875160189345     -0.26129708834735     -1.84108448862087
  H   -1.55472616038414     -0.38340035217592     -0.92904268675619
  H   -0.58374399912770     -1.73086269927515     -0.30234386445085
  C   0.27899652914838      1.55423493526663     -0.51084624239547
  N   0.07604240924940      2.71098543809852     -0.48795937288081
  C   1.59682438885403     -0.27313848989434      0.35085901136516
  N   2.46191291638087     -0.59968818113556      1.07524174743741
  C   -1.23587327477060     -0.35403904638052      1.15445813489251
  N   -1.58684786764809     -0.10020917855525      2.24511204129811
