11
Coordinates from ORCA-job run
  C   0.36115013381726      0.52314189169480     -0.10625048163491
  C   -0.87821090184360     -0.38488510155310     -0.08765018672827
  F   0.12301900595835      1.60903523282478      0.70344954256949
  H   -1.72381023589485      0.19641722187240     -0.46648555894438
  H   -0.71828347888161     -1.23677080082609     -0.75478792839678
  C   1.54948559379054     -0.19325807187723      0.38629333420323
  N   2.48488067634312     -0.78940808465787      0.77262398076398
  C   0.60027429745143      0.99474876015182     -1.48163546506159
  N   0.75577786961180      1.35287535855098     -2.58921601647512
  C   -1.16207996134344     -0.84928663951184      1.26730070919721
  N   -1.39220299900898     -1.22260976666863      2.35535807050714
