11
Coordinates from ORCA-job run
  C   0.44533372791388      0.08411614233619     -0.45815533292613
  C   -0.40591367181835     -0.64134248801944      0.59528538746429
  F   0.17068473368219     -0.45809611988734     -1.69247433512584
  H   -0.16468744416393     -0.25744586231796      1.59046326290097
  H   -0.14375921103432     -1.70252878528446      0.56138990461784
  C   0.14003412343822      1.52422167287554     -0.48706888028797
  N   -0.11360134424947      2.67106719304277     -0.48615421195443
  C   1.87350059162657     -0.11495222371570     -0.15525928795313
  N   3.00125896882739     -0.29783894861928      0.11668991087956
  C   -1.82942593171889     -0.47153893253151      0.31899426848525
  N   -2.97342454250329     -0.33566164787880      0.09728931389961
