11
Coordinates from ORCA-job run
  C   0.52257051181840      0.12202678655696     -0.35769737907928
  C   -0.93840173538832     -0.22185202600402     -0.02910057402786
  F   1.08817906835834     -0.94661790528348     -1.01403760418880
  H   -1.41926799256956      0.63740406742581      0.44680818158312
  H   -1.45255868543104     -0.42652185732448     -0.97237344636878
  C   0.56109951974381      1.30068633569665     -1.24107738871885
  N   0.55259786910195      2.23893473297549     -1.94743871309449
  C   1.29153779829779      0.39501845097353      0.86785839156503
  N   1.88287059811949      0.61856042362907      1.85763649168399
  C   -1.01399248334636     -1.39036781091953      0.84296109735534
  N   -1.07463446870449     -2.32727119772600      1.54646094329057
