11
Coordinates from ORCA-job run
  C   0.43290754856283      0.12831895895835     -0.46019924888722
  C   -0.93824267327079     -0.08207534412198      0.20053878494283
  F   0.60669501178469     -0.83448513325080     -1.42737686216550
  H   -1.11267603253106      0.70329041894984      0.94130775795706
  H   -1.70014426283618      0.00356751727049     -0.57935339749716
  C   0.46875051420286      1.45671681751021     -1.09691880890686
  N   0.45288406888060      2.51773924786228     -1.60028686171688
  C   1.51968962451100      0.01967370856405      0.52710290114530
  N   2.36936093193141     -0.06060895559363      1.33398734471635
  C   -1.01667974213753     -1.39756409951972      0.82870769421220
  N   -1.08154498909784     -2.45557313662910      1.33149069619989
