11
Coordinates from ORCA-job run
  C   0.47256727960396      0.11953287413586     -0.42252336244750
  C   -0.94683129271766     -0.15022719819740      0.10008235951447
  F   0.84036410389652     -0.91718609696393     -1.24871455068515
  H   -1.61160905046798     -0.22347346819827     -0.76517818079000
  H   -1.27579098164526      0.68974221530229      0.71828604943998
  C   0.47815054126665      1.37299125358262     -1.19720103925204
  N   0.44169774570853      2.37173740311512     -1.81385526862942
  C   1.43666680460723      0.21570294740359      0.68615096689746
  N   2.18476347230973      0.29829134197712      1.58787115144458
  C   -0.99125871315836     -1.39091692076059      0.86834527634530
  N   -1.02771990940337     -2.38719435139641      1.48673659816233
