11
Coordinates from ORCA-job run
  C   0.47565066408113      0.10842288227720     -0.42227074176340
  C   -0.51817519923418     -0.67598400028289      0.44823460596614
  F   0.19569051875025     -0.14450885502344     -1.74506117172405
  H   -0.28155415548220     -0.52217207094643      1.50469744164808
  H   -0.39573853408467     -1.73808084362688      0.21814854880454
  C   0.36848907928064      1.55604772735072     -0.17537673347241
  N   0.27247245536380      2.70506197913373      0.04845297635606
  C   1.84621591959606     -0.34558508114499     -0.12741993441561
  N   2.92206455809764     -0.73750809019823      0.13397137318186
  C   -1.89116744029350     -0.26441852477170      0.17076676224907
  N   -2.99594786607497      0.05972487723290     -0.05414312683030
