11
Coordinates from ORCA-job run
  C   0.42492849305495      0.16325954446228     -0.45723544889420
  C   -0.55688495071989     -0.70893055071425      0.34045241093899
  F   -0.07049329443760      0.33103000543032     -1.72947492999241
  H   -0.64740050301450     -1.66752573709331     -0.17822846509948
  H   -0.15424041928925     -0.89400575527397      1.34024728940208
  C   0.59210385526787      1.48407346772978      0.17161537176148
  N   0.71486160985790      2.52837954323049      0.69505388119655
  C   1.72897936701645     -0.51823788639045     -0.53708185723619
  N   2.75083829480571     -1.09536678357900     -0.58147704137288
  C   -1.86561131990600     -0.06842942944326      0.43188406291307
  N   -2.91808113263563      0.44475358164138      0.50424472638298
