11
Coordinates from ORCA-job run
  C   0.47155542344368      0.13468003754073     -0.56912433113839
  C   -0.80804049604543     -0.63586819461403     -0.20748036759439
  F   0.74267894980719     -0.13186532961090     -1.89455545626173
  H   -0.62353921320888     -1.69655030771017     -0.39872977502820
  H   -1.60351298906059     -0.29577951968047     -0.87620513935830
  C   0.27769305865183      1.58483486034580     -0.40637511077847
  N   0.09353810056649      2.73907668829413     -0.29008854589072
  C   1.60824813872838     -0.31852960085856      0.24908221749489
  N   2.50452743955824     -0.70849990770731      0.90045640718890
  C   -1.18427259431817     -0.42412884108012      1.18552373278872
  N   -1.47887581812273     -0.24736988491909      2.30749636857770
