11
Coordinates from ORCA-job run
  C   0.47532639298216      0.10505752459182     -0.57117386011751
  C   -0.82806647653787     -0.61487727178104     -0.19093458076918
  F   0.73843719472408     -0.20606011464560     -1.88865358103181
  H   -1.61146089794748     -0.26746846945826     -0.87010829091099
  H   -0.67721557864359     -1.68565773707515     -0.35366930672009
  C   0.32700178873658      1.56455459026421     -0.44847439517416
  N   0.18027320945871      2.72691107768510     -0.36513532527620
  C   1.59740455047568     -0.36069918191632      0.25998547487062
  N   2.48257310226026     -0.76223985952497      0.91942493261850
  C   -1.19871590595849     -0.35559183498992      1.19545536825756
  N   -1.48655737955004     -0.14392872314987      2.31328356425326
