11
Coordinates from ORCA-job run
  C   0.49094246833411      0.08142037273492     -0.56173399029673
  C   -0.82306502065918     -0.62245125227173     -0.18800987737319
  F   0.78619728417407     -0.27831800468811     -1.85988133180256
  H   -0.66895712881953     -1.69900308496006     -0.30187371006615
  H   -1.58704128277257     -0.30358767148197     -0.90248889737121
  C   0.34313176074100      1.54452816242641     -0.49631310819977
  N   0.19708230648022      2.70937729877832     -0.45870355999003
  C   1.59089344261888     -0.35526557543108      0.31382179467286
  N   2.45864176541717     -0.73390038478170      1.00894200086327
  C   -1.23281158047614     -0.30400278446856      1.17485073915516
  N   -1.55601401503802     -0.03879707585643      2.27138994040837
