14

C	-0.447857	0.030857	-1.451102
C	0.0	0.0	0.0
Cl	-2.275969	0.414501	-1.494218
H	1.093812	0.0	0.0
H	0.010714	0.887532	-1.938344
N	-0.111926	-1.167062	-2.095205
H	-0.555628	-1.977394	-1.68346
H	-0.27982	-1.132837	-3.089582
C	-0.531003	-1.157102	0.699388
N	-0.922568	-2.152234	1.185368
N	-0.385329	1.268798	0.69776
O	-0.841832	1.194018	1.835243
O	-0.157444	2.303132	0.078939
Cl	3.164273	0.0	0.0
