14

C	-0.434607	0.059891	-1.464516
C	0.0	0.0	0.0
Cl	-0.110505	-1.589664	-2.209786
H	1.091978	0.0	0.0
H	-1.513867	0.182247	-1.551481
N	0.261988	1.133298	-2.054758
H	0.058424	1.226138	-3.03988
H	1.264422	1.042162	-1.901654
C	-0.565461	-1.115849	0.740466
N	-1.025308	-2.002311	1.35815
N	-0.501252	1.278362	0.630627
O	-1.72521	1.396287	0.706562
O	0.32399	2.103115	0.993945
Cl	3.233954	0.0	0.0
