14

C	-0.474879	0.033027	-1.45228
C	0.0	0.0	0.0
Cl	-0.08031	-1.600979	-2.185077
H	1.091881	0.0	0.0
H	-1.55888	0.086968	-1.498546
N	0.125121	1.13955	-2.074254
H	-0.157211	1.229142	-3.031444
H	1.125433	1.098166	-2.003001
C	-0.54449	-1.114853	0.763606
N	-0.982635	-2.006078	1.388979
N	-0.506017	1.281761	0.619707
O	-1.733485	1.377501	0.733174
O	0.311065	2.13062	0.935167
Cl	3.254529	0.0	0.0
