14

C	-0.448043	0.030921	-1.451024
C	0.0	0.0	0.0
Cl	-2.276333	0.414193	-1.493732
H	1.09378	0.0	0.0
H	0.010206	0.887764	-1.938264
N	-0.112012	-1.166848	-2.09531
H	-0.5554	-1.977334	-1.683544
H	-0.280143	-1.1326	-3.089639
C	-0.530852	-1.157186	0.69939
N	-0.922005	-2.152315	1.185712
N	-0.385238	1.268707	0.697965
O	-0.840676	1.193815	1.835853
O	-0.158228	2.303087	0.078931
Cl	3.164179	0.0	0.0
