14

C	-0.292534	-0.010222	-1.502615
C	0.0	0.0	0.0
Cl	-2.064426	-0.009269	-1.79651
H	1.094602	0.0	0.0
H	0.094507	0.923421	-1.907762
N	0.322629	-1.117543	-2.181866
H	1.331196	-1.024311	-2.056227
H	0.035047	-1.990606	-1.750827
C	-0.522842	-1.173268	0.674117
N	-0.908706	-2.17135	1.158254
N	-0.465923	1.255619	0.655943
O	-0.257895	2.295594	0.036137
O	-0.988383	1.176989	1.763869
Cl	3.159993	0.0	0.0
