14

C	-0.471026	-0.007809	-1.455273
C	0.0	0.0	0.0
Cl	0.027287	1.600379	-2.184974
H	1.090591	0.0	0.0
H	0.1583	-0.730146	-1.975704
N	-1.838981	-0.327742	-1.623853
H	-2.085126	-0.356538	-2.603754
H	-2.420884	0.339757	-1.135693
C	-0.494584	-1.175482	0.709437
N	-0.878987	-2.118126	1.294982
N	-0.519069	1.210866	0.731901
O	-1.727252	1.441802	0.625862
O	0.274935	1.868689	1.387326
Cl	3.237092	0.0	0.0
