14

C	-0.53357	-0.02875	-1.435986
C	0.0	0.0	0.0
Cl	0.155847	1.265493	-2.443609
H	1.090859	0.0	0.0
H	-0.139111	-0.953816	-1.871623
N	-1.971419	0.103249	-1.438991
H	-2.326714	-0.045706	-2.374899
H	-2.382527	-0.586189	-0.819029
C	-0.474951	-1.205495	0.673306
N	-0.846887	-2.222402	1.128783
N	-0.51507	1.205404	0.728798
O	-1.4475	1.046577	1.516698
O	0.022541	2.271117	0.460412
Cl	3.195015	0.0	0.0
