17

C	-0.396334	0.013708	-1.480241
C	0.0	0.0	0.0
F	-1.786912	0.175094	-1.591409
H	1.101986	0.0	0.0
C	0.293212	1.129612	-2.238188
H	-0.021269	2.087235	-1.818367
H	1.375009	1.024244	-2.120336
H	0.017993	1.091814	-3.294093
C	-0.095279	-1.293191	-2.096958
N	0.091823	-2.325766	-2.623812
C	-0.521671	-1.213105	0.768241
H	-0.240103	-1.127417	1.818897
H	-0.06455	-2.121583	0.372407
H	-1.609195	-1.290806	0.695645
C	-0.467059	1.241498	0.613126
N	-0.867701	2.2216	1.122097
Br	3.452076	0.0	0.0
