17

C	-0.397186	-0.005134	-1.483201
C	0.0	0.0	0.0
F	-0.127537	1.254554	-2.009872
H	1.107235	0.0	0.0
C	0.407594	-1.018528	-2.276865
H	0.208632	-0.874403	-3.340594
H	1.466681	-0.850918	-2.0628
H	0.138127	-2.039691	-2.003296
C	-1.850707	-0.230732	-1.645651
N	-2.997391	-0.453209	-1.770886
C	-0.451056	-1.260219	0.744445
H	0.01342	-2.142303	0.30115
H	-0.109813	-1.199003	1.778827
H	-1.538202	-1.375381	0.737228
C	-0.523936	1.193523	0.655795
N	-0.985685	2.118766	1.213322
Br	3.487833	0.0	0.0
