17

C	-0.495564	0.285791	-1.425651
C	0.0	0.0	0.0
F	0.014959	-0.706624	-2.256858
H	1.103874	0.0	0.0
C	-2.008845	0.260773	-1.56965
H	-2.470835	0.998392	-0.913398
H	-2.282311	0.479201	-2.60325
H	-2.375443	-0.732948	-1.314839
C	0.012353	1.583461	-1.912201
N	0.309733	2.632491	-2.347969
C	-0.430942	-1.382031	0.503896
H	-0.153385	-2.1336	-0.236474
H	-1.500842	-1.446708	0.714546
H	0.121466	-1.597552	1.419451
C	-0.482543	1.048427	0.89279
N	-0.918615	1.863948	1.61773
Br	3.438919	0.0	0.0
