17

C	0.0	0.0	0.0
C	-0.540429	-0.083921	-1.441599
Cl	1.795092	0.0	0.0
H	-1.628362	0.077354	-1.332701
C	-0.375931	1.291365	0.589374
N	-0.6008	2.344362	1.05961
C	-0.487846	-1.154059	0.863527
H	-1.579042	-1.195205	0.798395
H	-0.038863	-2.086368	0.516594
H	-0.186426	-0.989333	1.899442
C	-0.297083	-1.444559	-2.09882
H	0.755691	-1.731172	-2.039133
H	-0.583533	-1.39819	-3.1506
H	-0.914618	-2.202146	-1.616107
C	0.020198	0.986938	-2.265817
N	0.465042	1.814319	-2.971457
Br	-3.804418	0.0	0.0
