17

C	0.0	0.0	0.0
C	-0.449564	0.048629	-1.513582
Cl	1.791904	0.0	0.0
H	0.473821	0.028202	-2.099242
C	-0.394484	1.218192	0.712974
N	-0.634005	2.179206	1.343812
C	-0.496326	-1.220878	0.764753
H	-1.590983	-1.199127	0.760403
H	-0.13682	-2.129998	0.27955
H	-0.122802	-1.184485	1.790511
C	-1.210762	1.315694	-1.918418
H	-2.134921	1.398109	-1.345865
H	-1.454619	1.254514	-2.981713
H	-0.570494	2.187288	-1.756973
C	-1.141705	-1.182569	-1.902508
N	-1.538229	-2.212447	-2.30537
Br	-3.871994	0.0	0.0
