17

C	0.0	0.0	0.0
C	-0.423601	-0.382956	-1.442727
Cl	1.796476	0.0	0.0
H	0.075563	0.330398	-2.108684
C	-0.402234	1.385988	0.255754
N	-0.686228	2.50697	0.465904
C	-0.563981	-0.933077	1.057422
H	-0.255748	-1.958849	0.846128
H	-0.199026	-0.644785	2.044266
H	-1.656383	-0.862876	1.048076
C	-1.934103	-0.333216	-1.668092
H	-2.469517	-1.10926	-1.129163
H	-2.362058	0.611215	-1.332979
H	-2.134957	-0.442111	-2.735964
C	0.103284	-1.711336	-1.770392
N	0.493681	-2.782431	-2.053182
Br	-4.882516	0.0	0.0
