17

C	0.0	0.0	0.0
C	-0.577613	-0.065665	-1.42656
Cl	1.790947	0.0	0.0
H	-1.660169	0.109936	-1.277506
C	-0.373094	1.286361	0.604889
N	-0.594815	2.319921	1.117755
C	-0.494403	-1.146939	0.871181
H	-1.588194	-1.150528	0.835865
H	-0.157695	-0.996183	1.898295
H	-0.089482	-2.091889	0.505551
C	-0.389834	-1.422534	-2.104609
H	0.658433	-1.73224	-2.097773
H	-1.002474	-2.170851	-1.601184
H	-0.726979	-1.359089	-3.140889
C	-0.035638	1.008498	-2.257599
N	0.396954	1.837926	-2.968977
Br	-3.818113	0.0	0.0
