17

C	0.0	0.0	0.0
C	-0.450995	-0.260469	-1.487648
Cl	1.801618	0.0	0.0
H	0.46472	-0.388673	-2.072108
C	-0.379693	1.346133	0.435904
N	-0.585781	2.435683	0.824836
C	-0.510291	-1.028807	0.996068
H	-0.169755	-2.023996	0.705541
H	-1.605248	-0.993723	0.985089
H	-0.133537	-0.792949	1.993652
C	-1.243302	0.885975	-2.122955
H	-0.628622	1.788588	-2.147657
H	-2.162672	1.061547	-1.562158
H	-1.503912	0.612143	-3.148396
C	-1.156315	-1.538574	-1.62542
N	-1.628346	-2.589053	-1.861603
Br	-3.970721	0.0	0.0
