17

C	0.0	0.0	0.0
C	-0.571455	0.171785	-1.421284
Cl	1.794599	0.0	0.0
H	-1.652285	0.335082	-1.253712
C	-0.368524	1.173305	0.805484
N	-0.573559	2.1204	1.469725
C	-0.499197	-1.272288	0.669001
H	-0.171231	-1.290777	1.709705
H	-1.592504	-1.265847	0.625087
H	-0.092941	-2.146265	0.157927
C	-0.397691	-1.060904	-2.308087
H	0.646639	-1.380758	-2.349884
H	-1.021022	-1.87222	-1.930859
H	-0.731358	-0.827355	-3.320554
C	-0.009878	1.357365	-2.067204
N	0.442092	2.280521	-2.636686
Br	-3.819961	0.0	0.0
