17

C	0.0	0.0	0.0
C	-0.412476	-0.423525	-1.437996
Cl	1.791372	0.0	0.0
H	0.134597	0.240331	-2.117325
C	-0.398519	1.395635	0.211209
N	-0.67562	2.522703	0.394409
C	-0.578385	-0.893242	1.081984
H	-0.27252	-1.927112	0.912278
H	-1.670937	-0.818432	1.055727
H	-0.224685	-0.570332	2.062116
C	-1.910818	-0.320492	-1.71623
H	-2.087161	-0.497838	-2.779679
H	-2.505634	-1.027795	-1.143505
H	-2.296567	0.666262	-1.461088
C	0.070123	-1.783798	-1.696141
N	0.427577	-2.880186	-1.919661
Br	-4.85244	0.0	0.0
