17

C	-0.269719	0.042899	-1.490644
C	0.0	0.0	0.0
Br	-2.251918	0.099527	-1.855934
H	1.099932	0.0	0.0
H	-0.344212	-0.956237	0.403019
N	0.302733	1.252854	-2.029506
H	0.337093	1.192891	-3.042049
H	1.261814	1.304414	-1.682329
C	0.240592	-1.224262	-2.160155
H	1.31527	-1.276649	-1.968076
H	0.062501	-1.194996	-3.237349
H	-0.239881	-2.113458	-1.752337
C	-0.532474	1.17123	0.806754
H	-1.624348	1.161659	0.852977
H	-0.217812	2.115689	0.362723
H	-0.138995	1.125335	1.825438
Cl	3.520441	0.0	0.0
