17

C	-0.250972	0.05219	-1.502633
C	0.0	0.0	0.0
Br	-2.224794	0.161164	-1.866762
H	1.099044	0.0	0.0
H	-0.357695	-0.952616	0.403134
N	0.353574	1.191667	-2.165393
H	1.358356	1.103662	-2.002847
H	0.057077	2.044711	-1.703854
C	0.265365	-1.211591	-2.164835
H	-0.244389	-2.094843	-1.775604
H	0.124465	-1.151406	-3.244644
H	1.333742	-1.291005	-1.934188
C	-0.517826	1.164203	0.827608
H	-1.609386	1.219037	0.819345
H	-0.118883	2.116939	0.470605
H	-0.181655	1.052856	1.86133
Cl	3.495691	0.0	0.0
