17

C	-0.384848	-0.017005	-1.461298
C	0.0	0.0	0.0
Br	-2.5869	0.090582	-1.498262
H	1.096615	0.0	0.0
H	-0.335151	0.947936	0.435362
N	0.118909	1.070873	-2.135105
H	0.085718	1.945792	-1.635111
H	-0.141719	1.149366	-3.104935
C	-0.103257	-1.310929	-2.187817
H	-0.66709	-2.137568	-1.761013
H	-0.36507	-1.226211	-3.245326
H	0.971248	-1.500292	-2.0906
C	-0.494579	-1.169919	0.836611
H	-0.172654	-1.028349	1.870924
H	-0.053115	-2.108519	0.495409
H	-1.582653	-1.258993	0.815633
Cl	3.513792	0.0	0.0
