15

C	0.0	0.0	0.0
C	-0.479503	0.064209	-1.452517
Cl	1.793901	0.0	0.0
H	-0.100687	-0.788232	-2.008456
H	-1.599705	0.102176	-1.329244
C	-0.404875	1.217372	0.843594
H	0.124108	2.09116	0.461334
H	-0.084431	1.05982	1.866343
H	-1.49048	1.322669	0.764433
C	-0.43646	-1.263622	0.608905
N	-0.424792	-2.315797	1.13409
N	0.038534	1.251247	-2.13984
O	0.835497	1.089422	-3.081046
O	-0.397096	2.35558	-1.776246
H	-2.801326	0.0	0.0
