15

C	0.0	0.0	0.0
C	-0.630381	0.015314	-1.376796
Cl	1.794086	0.0	0.0
H	-0.384475	-0.882486	-1.940593
H	-1.760325	0.06087	-1.091467
C	-0.468264	1.127754	0.912449
H	-0.099985	0.953402	1.92535
H	-1.56547	1.095455	0.887804
H	-0.100864	2.081162	0.541311
C	-0.376868	-1.293465	0.59805
N	-0.55881	-2.345744	1.08855
N	-0.232139	1.148428	-2.206461
O	-0.403225	2.292554	-1.773203
O	0.207288	0.901495	-3.337107
H	-2.994248	0.0	0.0
