15

C	0.0	0.0	0.0
C	-0.580599	-0.00847	-1.391843
Cl	1.793931	0.0	0.0
H	-0.369177	0.929104	-1.902761
H	-1.700579	-0.128134	-1.176824
C	-0.47246	1.278577	0.684291
H	-1.571314	1.2414	0.661728
H	-0.089639	2.142342	0.134277
H	-0.106123	1.312738	1.711841
C	-0.399635	-1.161895	0.809645
N	-0.565258	-2.04838	1.563092
N	-0.060776	-1.079662	-2.245909
O	-0.003821	-2.218098	-1.776385
O	0.256329	-0.783428	-3.404297
H	-2.984172	0.0	0.0
