15

C	0.0	0.0	0.0
C	-0.649588	0.028209	-1.35206
Cl	1.794109	0.0	0.0
H	-0.420078	-0.848229	-1.956341
H	-1.829701	0.059061	-0.946784
C	-0.443283	1.12114	0.945744
H	-1.533491	1.135017	0.907145
H	-0.086026	0.920637	1.953948
H	-0.041705	2.062916	0.603536
C	-0.370588	-1.297523	0.59121
N	-0.518469	-2.356022	1.083271
N	-0.311157	1.172336	-2.159389
O	-0.029112	0.974712	-3.359788
O	-0.390858	2.304973	-1.66026
H	-2.834394	0.0	0.0
