17
Coordinates from ORCA-job run
  C   -0.78483800953173      0.03958687671169      0.14209852790229
  C   0.55472411723977     -0.72807751041658      0.03333271409932
  Br  -1.81063256889017     -0.71835591870607      1.60392740350368
  H   0.28606200285975     -1.79011243451503      0.05481867181838
  N   -0.42659481557740      1.49126315090240      0.46678973712132
  O   0.06593290163127      2.09520785808202     -0.48341783938817
  O   -0.57575983271812      1.92365407898387      1.59982226404800
  C   -1.62012796833946      0.01035660625876     -1.12244631248053
  H   -1.85395878649473     -1.02513595470065     -1.37579376991638
  H   -1.07075362699093      0.46844559871921     -1.94426803484294
  H   -2.55561518935048      0.54997238352203     -0.96673925106212
  C   1.52897742393939     -0.42885280745031      1.17759276536633
  H   1.89587975929047      0.59705729266785      1.11610633994804
  H   2.38689515169251     -1.09936999282579      1.10951809217383
  H   1.04315281769647     -0.57687834560361      2.14221711125780
  C   1.20010785869187     -0.47997003137693     -1.25923451827280
  N   1.73654876485152     -0.32979085025287     -2.29332390127605
