17
Coordinates from ORCA-job run
  C   -0.84334562156078     -0.01929947371034      0.12348819902015
  C   0.46385492182038     -0.78438493046617      0.39948548235310
  Br  -2.36074725775866     -1.18517591017879      0.48307492354483
  H   0.38241453502544     -1.20279135973424      1.40665504762589
  N   -0.90948400379782      1.08810463170261      1.17655083304269
  O   -1.15068270150138      2.22520082569178      0.78532401140177
  O   -0.69340163713663      0.75495973829431      2.33586279336893
  C   -0.96468814169319      0.55769966818774     -1.26621916203917
  H   -0.91282737675425     -0.25345100686410     -1.99381733648298
  H   -1.91406489490328      1.07748139627343     -1.38006901301277
  H   -0.16075708520675      1.27017611376259     -1.45584104658341
  C   1.70499862116775      0.11620426709484      0.32862993014087
  H   2.58654081545884     -0.47243179628730      0.58776332315565
  H   1.62936796893617      0.93728214486104      1.04309032262398
  H   1.85262068960807      0.51990294669678     -0.67340036274769
  C   0.58648064636158     -1.88708188123149     -0.55325895185641
  N   0.70372052193449     -2.74439537409267     -1.34731899355543
