17
Coordinates from ORCA-job run
  C   -0.82274281227674     -0.06466266738820      0.21780816719526
  C   0.56480491123322     -0.69862115833033      0.42465343651911
  Br  -2.19234219054116     -1.28912204144963      0.86320503992389
  H   0.62278986011351     -1.00565877446956      1.47276171642926
  N   -0.87339154199166      1.14661489014514      1.14998116606216
  O   -1.25231888662854      2.21069057734877      0.67217274358860
  O   -0.50991538940306      0.96339696588562      2.30577011187642
  C   -1.13366066237527      0.34092375592103     -1.20276994173500
  H   -0.41678828788875      1.08454807560839     -1.55356491862235
  H   -2.13047076664115      0.77335143982674     -1.26503954231842
  H   -1.08731105882734     -0.54141989065260     -1.84267036006367
  C   1.71295858752973      0.27431665399206      0.12201315046268
  H   1.72080144515268      0.57417910058668     -0.92624993190756
  H   2.66260676626290     -0.21756625405224      0.33861932511344
  H   1.64441091660494      1.16180964134251      0.75292787079600
  C   0.68110970542935     -1.89071659871283     -0.41433506399285
  N   0.81045940424728     -2.82406371560154     -1.11528296932699
