17
Coordinates from ORCA-job run
  C   -0.83850169000204     -0.02224283941150      0.15775291919216
  C   0.48058012721574     -0.78685562978088      0.37032324353211
  Br  -2.33644863621219     -1.19793790588808      0.56479398277843
  H   0.44216936206392     -1.21708949664288      1.37508443291187
  N   -0.86611814467640      1.07256086298837      1.22524261771589
  O   -0.59623150637447      0.72801003274748      2.36988440222115
  O   -1.13519260514367      2.21149233895682      0.85846815483729
  C   -1.01800763185524      0.56995091961031     -1.21930708889067
  H   -1.97412387352260      1.08501213748720     -1.29000584030181
  H   -0.22653100743633      1.28983725415509     -1.43197561027854
  H   -0.98997032109147     -0.23245824398707     -1.95787959179565
  C   1.71561156731251      0.11789465090009      0.25822197059446
  H   2.60927050553410     -0.47205360779873      0.46810827818620
  H   1.66973569694136      0.92703437977578      0.98866823506873
  H   1.81738421221433      0.53802458331169     -0.74275002073322
  C   0.56745157252857     -1.87913508897127     -0.59811037862338
  N   0.67892237250387     -2.73504434745245     -1.39451970641502
