17
Coordinates from ORCA-job run
  C   -0.78360238441538      0.04446828081802      0.15149372902340
  C   0.54528001879406     -0.73538139828339      0.00642291931179
  Br  -1.80254583685834     -0.74086279683911      1.60348040357702
  H   0.26404630519871     -1.79437429944165     -0.00033303701969
  N   -0.40427149861760      1.48230256392397      0.51215441405227
  O   0.07844586305328      2.10968384801162     -0.42795761832126
  O   -0.52958239285923      1.88235874878245      1.65994454389683
  C   -1.63287631691863      0.06009605197517     -1.10387586353999
  H   -2.55908489299704      0.60797248061597     -0.92352323791128
  H   -1.08638411021297      0.53257038141291     -1.91945600633222
  H   -1.88372164816499     -0.96510332551784     -1.38166127875123
  C   1.53569735811037     -0.48124083981197      1.14771567873851
  H   2.38389005869706     -1.16053420282010      1.05117667232344
  H   1.91520856133734      0.54124341303422      1.11052462648588
  H   1.05828676756673     -0.64983463168445      2.11314556329175
  C   1.18089156069052     -0.45618343037519     -1.28480894704822
  N   1.72032258759620     -0.27518084380064     -2.31244256177703
