14
Coordinates from ORCA-job run
  C   0.63081081522866      0.49801110285864     -0.33500976454558
  C   -0.84738900406687      0.33770277216276     -0.03705252138679
  F   0.91536376827960      0.11500887516300     -1.60366140577294
  H   -1.03363167949761      0.73662081602901      0.96236775739173
  H   -1.37343276141070      0.97397725133241     -0.75493057922386
  N   1.40478288894182     -0.42930604179434      0.61174068359526
  O   1.34803468488814     -0.10957171090553      1.79195387198714
  O   1.94576596709895     -1.40662116440643      0.12243336205799
  C   1.12173658827208      1.86130946108921     -0.10953158751331
  N   1.47671115026306      2.97001968873392      0.04541639298050
  C   -1.30287635547905     -1.11324572718518     -0.15312228416049
  H   -2.38966191449432     -1.16345439103107     -0.07258344007540
  H   -1.01203472189261     -1.54297695333105     -1.11227760741718
  H   -0.88317942613114     -1.72947397871536      0.64425712208293
