14
Coordinates from ORCA-job run
  C   0.65843127859304      0.32793914827680     -0.12035396603524
  C   -0.38084921658758     -0.75424415356591      0.03209975271026
  F   0.86507878034046      0.61514985493110     -1.44286047831229
  H   -0.41825874960890     -1.04121515186201      1.08710959407167
  H   -0.01802796701244     -1.61733459919649     -0.52904778335214
  N   2.03193608036135     -0.13794844834354      0.38965306375340
  O   2.79312124311886      0.73733880972716      0.78538538092669
  O   2.27231660017256     -1.33428351756636      0.28672617976712
  C   0.30515489477549      1.56025586443624      0.59371381969131
  N   -0.06448942934354      2.51745638694139      1.16503653261798
  C   -1.74887352054175     -0.29782563941355     -0.46682571514744
  H   -1.69324810797743      0.03810269805394     -1.50314069733650
  H   -2.14865250016477      0.51588396568160      0.14116690895370
  H   -2.45263938612537     -1.13027521810035     -0.41966259230853
