14
Coordinates from ORCA-job run
  C   0.66856877292364      0.34366251058819     -0.15672655545328
  C   -0.38498255482162     -0.72460687432179      0.05804849038643
  F   0.84187417347547      0.59019271233058     -1.47838924412256
  H   -0.02454678815255     -1.61802769748907     -0.46290564952103
  H   -0.42368122330270     -0.94664701530827      1.12684726351445
  N   1.99994626536952     -0.18618192315269      0.39442631304353
  O   2.05468320068233     -0.26064547564122      1.61473952251566
  O   2.84291246851447     -0.52532265724918     -0.41916570238390
  C   0.37306259747646      1.59975247908424      0.54113234438606
  N   0.08508134580247      2.60413565948002      1.07747521198640
  C   -1.74699328414068     -0.29479023019074     -0.47442254203894
  H   -1.69451244680461     -0.05726431133409     -1.53734791594720
  H   -2.46632863059772     -1.10460833608281     -0.34337497727587
  H   -2.12508389642448      0.57935115928687      0.05966344091024
