14

C	-0.581126	0.021212	-1.384355
C	0.0	0.0	0.0
Cl	0.127975	1.379487	-2.321086
H	1.087213	0.0	0.0
H	-0.365402	0.889894	0.523104
H	-0.37743	-0.889445	0.518051
N	-0.174369	-1.239443	-2.158384
O	0.789611	-1.87206	-1.753486
O	-0.851201	-1.529159	-3.148713
C	-2.089207	0.133474	-1.465381
H	-2.539142	-0.736269	-0.979127
H	-2.432325	0.182696	-2.496711
H	-2.396388	1.033327	-0.931833
F	2.669796	0.0	0.0
