14

C	-0.222258	-0.075377	-1.481078
C	0.0	0.0	0.0
Cl	-1.949903	-0.426816	-1.966568
H	1.092649	0.0	0.0
H	-0.365143	-0.922458	0.457075
H	-0.46463	0.870769	0.454084
N	0.023818	1.304153	-2.111559
O	0.451364	1.334327	-3.261312
O	-0.263503	2.296293	-1.447772
C	0.726504	-1.076449	-2.097286
H	0.690377	-1.067493	-3.182211
H	0.460899	-2.068956	-1.725641
H	1.715537	-0.810483	-1.697086
F	2.715798	0.0	0.0
