16

C	-0.408528	-0.055548	-1.451969
C	0.0	0.0	0.0
F	-1.821717	0.100103	-1.560103
H	1.096511	0.0	0.0
H	0.01796	0.817921	-1.959087
C	-0.000918	-1.329072	-2.142938
H	-0.282071	-1.306465	-3.200283
H	-0.473271	-2.175074	-1.646002
H	1.0835	-1.431417	-2.050052
N	-0.471233	-1.182584	0.712495
H	-1.39133	-0.968382	1.081471
H	0.143844	-1.298382	1.51121
N	-0.428137	1.255578	0.636899
H	-1.132333	1.712034	0.072235
H	0.380992	1.862637	0.696743
H	2.981345	0.0	0.0
