16

C	-0.414511	0.099556	-1.447415
C	0.0	0.0	0.0
F	-1.825753	0.275535	-1.536995
H	1.104003	0.0	0.0
H	0.018642	1.016431	-1.863347
C	-0.01966	-1.098758	-2.267502
H	-0.497988	-1.985661	-1.854742
H	1.064642	-1.218191	-2.19337
H	-0.306854	-0.96702	-3.314965
N	-0.462142	-1.253448	0.592405
H	0.230478	-1.510383	1.290511
H	-1.323397	-1.054559	1.093223
N	-0.430109	1.17826	0.766836
H	-1.136734	1.691652	0.25388
H	0.377893	1.777245	0.895305
H	2.969671	0.0	0.0
