14
Coordinates from ORCA-job run
  C   -0.36761980695752     -0.40432292669508     -0.02424263270230
  C   0.70844636428633      0.69519285950718     -0.02887111947660
  F   0.18878532985853     -1.55554023772539     -0.53017638545423
  H   0.33875745634399      1.52914963250142      0.57467893708059
  N   -0.74320617242125     -0.74758002452504      1.41642888161815
  O   -1.52941331700458     -1.67890070691910      1.52822445639784
  O   -0.25812719073388     -0.07265891480595      2.31682164402912
  N   -1.54655861717232      0.00445626986824     -0.65003936437416
  H   -2.26143325504444     -0.70890657559381     -0.56309745127438
  H   -1.40003173987739      0.24132028237969     -1.62383425755487
  C   0.90423957910286      1.14944638062980     -1.40915302626777
  N   1.00742930929056      1.50752119003959     -2.52245064800209
  C   1.96962131833686      0.21029810794253      0.53756893805195
  N   2.98911074199226     -0.16947533660408      0.97714202792876
