14
Coordinates from ORCA-job run
  C   -0.40554305811359     -0.51065421911844     -0.03945983321994
  C   0.85327380983819      0.21561784488799     -0.53804728837541
  F   -0.10627765328599     -1.86008177660747     -0.02714969456563
  H   0.96234810653159     -0.08778065437420     -1.58861407465079
  N   -0.70313622865339     -0.17506078098405      1.41802708377399
  O   -1.75213938985811     -0.63944087583365      1.84727529053889
  O   0.12121346327539      0.49085290544249      2.03177671235915
  N   -1.53474780410577     -0.16435998312790     -0.77614113266457
  H   -1.44722342073405     -0.39607506520967     -1.75649038011039
  H   -2.37226871750844     -0.57080193904299     -0.37709179481255
  C   2.06460211528833     -0.22054018944053      0.16212579688816
  N   3.05900258710147     -0.58701610591994      0.66574305222797
  C   0.68988540414338      1.66997036502190     -0.50108358500625
  N   0.57201078608101      2.83737047430646     -0.51887015238264
