14
Coordinates from ORCA-job run
  C   -0.52102340820998     -0.37447547630881     -0.18916435004558
  C   0.96390374325018     -0.03423914157227     -0.39506925925706
  F   -0.88556037373516     -1.31268642156533     -1.10306800584361
  H   1.52233088424945     -0.97022948334713     -0.29582373032896
  N   -0.62537662136450     -1.15634071926670      1.16548210274023
  O   0.28928164982105     -1.92869748755671      1.43033319586592
  O   -1.64255238455714     -0.96540942041610      1.81990839699392
  N   -1.35675544804896      0.72890886775836     -0.27396853774560
  H   -2.31960966744273      0.48499419239812     -0.07923950898773
  H   -1.06317223231898      1.49820792641112      0.31350851224333
  C   1.40387844914451      0.89520388503407      0.64755279757950
  N   1.70426830767003      1.64752693913009      1.49763826321964
  C   1.17011737336264      0.52523196662340     -1.73199095059409
  N   1.35926972817956      0.96100437267788     -2.80509892583985
