14
Coordinates from ORCA-job run
  C   -0.45042401246610     -0.52434195531191     -0.11396674244632
  C   0.91291604006618      0.03370442095613     -0.55558408970478
  F   -0.39322825008030     -1.87779485336514     -0.15668657658798
  H   1.03021762858142     -0.33636518788217     -1.58179053063929
  N   -0.70280343339327     -0.20550604615147      1.38087917397783
  O   0.08381378720189      0.54094278860499      1.95464925031760
  O   -1.71982064246579     -0.70884612320102      1.84084512445023
  N   -1.48898573052825     -0.07746249171765     -0.93957839058200
  H   -1.55442361666540      0.93196216369281     -0.98327483195566
  H   -2.37207588674901     -0.48144259796225     -0.64882386034255
  C   2.01532660309297     -0.49717147921869      0.24801571778190
  N   2.91658953561637     -0.95752002336888      0.84191138371735
  C   0.89744652808864      1.49643500800889     -0.59615250477843
  N   0.82645144970064      2.66440637691638     -0.68944312320787
