14
Coordinates from ORCA-job run
  C   -0.42826491837120     -0.54171052453854     -0.13902395115737
  C   0.90600869614670      0.09879955674514     -0.55669475318587
  F   -0.30874067808764     -1.88732147057498     -0.25066169284395
  H   1.03425996504837     -0.21705040808663     -1.59959343879053
  N   -0.68798173778567     -0.30995378196344      1.36961700267584
  O   -1.67012548081532     -0.89376120384369      1.80989182972629
  O   0.05641323148655      0.45593615573956      1.97327203709766
  N   -1.49062682158338     -0.10193314810498     -0.93867288743439
  H   -1.60093199912301      0.90458522173055     -0.93082942427181
  H   -2.35317775005732     -0.55790505086437     -0.66345472429730
  C   2.03552383317564     -0.41610784715124      0.21927539674899
  N   2.96756636455883     -0.81955019567155      0.80702927180212
  C   0.82644279389982      1.55963845128091     -0.52851989747910
  N   0.71363450150761      2.72733424530326     -0.57163476859060
