14
Coordinates from ORCA-job run
  C   -0.44030367942611     -0.38404895275605     -0.09481479615213
  C   0.77456467998611      0.55388748115420     -0.23264906099284
  F   -0.17319618886329     -1.57611640360905     -0.65103278244937
  H   0.52239439390048      1.50088197059454      0.25742307661722
  N   -0.60921725330654     -0.62967317806143      1.42803901754651
  O   -0.80799130446014      0.40063954987921      2.06822640820761
  O   -0.57034874890947     -1.77384043348575      1.84949098769977
  N   -1.59046771073848      0.16844352109300     -0.68128725213217
  H   -2.32567683789857     -0.52351261314511     -0.76347704832913
  H   -1.91829025244974      0.98262415297678     -0.17819339683189
  C   1.04802946050553      0.79301808413835     -1.65106310598923
  N   1.27860785547774      0.99381032660056     -2.78401692915797
  C   1.94309546014533     -0.02117321905248      0.44014566736966
  N   2.86880012603717     -0.48494028632675      0.99320921459394
