14
Coordinates from ORCA-job run
  C   -0.36975716836321     -0.43910798901412     -0.14342284014242
  C   0.71259466780622      0.65779405504299     -0.14438382403612
  F   0.11870201690797     -1.57506928717582     -0.66560768240603
  H   0.27987147447967      1.55410035865290      0.31376630377225
  N   -0.67278557928088     -0.72839756025266      1.35063613615860
  O   -0.52886712900073     -1.86388338571136      1.77307408554581
  O   -1.07803708815705      0.25615401422145      1.96493669132035
  N   -1.51217877680808     -0.03993917483822     -0.85608757452009
  H   -2.13091486902671     -0.82480132931879     -1.02150656851878
  H   -2.00357523389323      0.71341906514633     -0.39298022551438
  C   1.10665489544540      0.95364323553591     -1.52318914555894
  N   1.43469063683724      1.20467870955956     -2.62158681177967
  C   1.86671623706603      0.23739540930463      0.65565515213415
  N   2.77788591598734     -0.10698612115283      1.31069630354528
