14
Coordinates from ORCA-job run
  C   -0.45314596127543     -0.46264653493600     -0.08365832150562
  C   0.86819708101770      0.18340229050176     -0.52836801456230
  F   -0.28626983233242     -1.82968722466142     -0.20320224254885
  H   0.94333924165205     -0.02815030113085     -1.60421430624785
  N   -0.70978123856245     -0.24093914190866      1.40346962814640
  O   -1.79728929118889     -0.64006451386196      1.80118440355296
  O   0.17885448120254      0.27945459785983      2.06624958488941
  N   -1.54685873378936      0.05914377338829     -0.76813530340608
  H   -2.41791432885272     -0.29928967135163     -0.39607557800348
  H   -1.48811065336473     -0.08637584156973     -1.76695426090473
  C   2.03374865190930     -0.43278926827653      0.11197507071077
  N   2.98594720287416     -0.94299472251486      0.56982775537491
  C   0.84645543176129      1.63632436405509     -0.35046605115491
  N   0.84182794894901      2.80561219440672     -0.25063236434060
