14
Coordinates from ORCA-job run
  C   -0.35391313552457     -0.59609472855630     -0.10542708449626
  C   0.89739496364888      0.17780215400561     -0.55285892572602
  F   -0.06682686621726     -1.92063388369763     -0.12213453884022
  H   1.08247622194853     -0.18515345551388     -1.57159348552404
  N   -0.66667014461794     -0.29819154347911      1.38224329644715
  O   -0.02360930496085      0.58257230594485      1.94421123564256
  O   -1.59236597697555     -0.95267976108357      1.84501981982042
  N   -1.44792378159536     -0.34764097485083     -0.94293661196532
  H   -1.68290683736253      0.63511548685200     -1.00675555609873
  H   -2.25167440105076     -0.88915790669062     -0.64591089078946
  C   2.06940438417702     -0.14294224969281      0.26352346454348
  N   3.03453732896513     -0.43340696631595      0.86437987220943
  C   0.63385599175787      1.61569782265803     -0.62023745908313
  N   0.36822155780738      2.75371370042023     -0.73152313613986
