14
Coordinates from ORCA-job run
  C   -0.45086391043695     -0.35690172443798     -0.13911736765884
  C   0.81565137982729      0.52043383151679     -0.15820411097755
  F   -0.20584150786389     -1.54015574342949     -0.72388746374813
  H   0.57831565083049      1.46060497175443      0.35201211575140
  N   -0.73693823041666     -0.64902417641138      1.35747100146062
  O   -0.92333859959756      0.36621683340011      2.02490188376804
  O   -0.79000340752599     -1.80863755025754      1.73287169364281
  N   -1.52923407726626      0.27603201888593     -0.77889910490706
  H   -1.85105324874081      1.08649531604912     -0.26599735250859
  H   -2.28966829015357     -0.37389766505671     -0.93842173119387
  C   1.19673328987973      0.79804251696757     -1.54435439812960
  N   1.51699823151612      1.03178319012581     -2.64884840491486
  C   1.90519746992907     -0.13981137303102      0.56698293834336
  N   2.76404525001901     -0.67318044607563      1.16349030107230
