14
Coordinates from ORCA-job run
  C   -0.45679709016558     -0.52203456653192     -0.10771665956673
  C   0.90667420915620      0.02202672238765     -0.56582829479833
  F   -0.41145544387462     -1.87616202094855     -0.14565591700199
  H   1.01020517917704     -0.35485779683708     -1.59102486842475
  N   -0.69123642386305     -0.19522947245273      1.38812936098553
  O   -1.70562940541961     -0.69151359450479      1.86145131979119
  O   0.10461965277360      0.55091772363225      1.94932952385494
  N   -1.49996117728209     -0.06943094577802     -0.92447683264120
  H   -2.38350392512103     -0.46358446010749     -0.62205013112698
  H   -1.55648209449941      0.94033320501014     -0.97212424366065
  C   2.01298329879388     -0.51292844845217      0.22970569366850
  N   2.91982594574881     -0.96554044033800      0.82103958059391
  C   0.90447867370203      1.48459323729714     -0.61399014936042
  N   0.84727860087387      2.65341085762360     -0.70678838231307
