14
Coordinates from ORCA-job run
  C   -0.47846399104162     -0.44312642256428     -0.04995338569850
  C   0.87359728720039      0.09749006286470     -0.54026825365053
  F   -0.38674661983518     -1.82216374562652     -0.07505587908020
  H   0.93155922174310     -0.19195163753122     -1.59884192425208
  N   -0.71530280936584     -0.10577522599077      1.41831826819480
  O   0.20300625141000      0.41120823160461      2.04211376563548
  O   -1.82059882848631     -0.41759998214360      1.84416657859056
  N   -1.54535080517686      0.08973525655962     -0.76757135407406
  H   -2.43325261139450     -0.19490672220789     -0.37218314137653
  H   -1.49837368709578     -0.12455361032701     -1.75452448572331
  C   2.00847052994915     -0.53313881852605      0.13978601036977
  N   2.93978479684227     -1.05400204337032      0.62761726981065
  C   0.93163301172580      1.55846900527255     -0.46500334173436
  N   0.99203825352536      2.73031565198618     -0.44960012701167
