14
Coordinates from ORCA-job run
  C   -0.38646681599831     -0.43921084836292     -0.09259956280044
  C   0.72741387290679      0.61771691635890     -0.22266650541064
  F   0.05533145120646     -1.63495395308613     -0.51304583036106
  H   0.33137061324482      1.56770250675751      0.15302824675370
  N   -0.66113360148512     -0.57400612337977      1.42836438957083
  O   -0.53899171950697     -1.66720932635027      1.95593947264517
  O   -1.02308261809471      0.47722940729384      1.95274642276149
  N   -1.53338503550205     -0.07379145428304     -0.81604791532757
  H   -1.99077245107000      0.73575659753467     -0.41747107980038
  H   -2.17892248292178     -0.85062590009784     -0.89247768347356
  C   1.09852342405531      0.76476069414389     -1.63142648221921
  N   1.40834628079387      0.89707932954769     -2.75554621196121
  C   1.88691267192567      0.24224693429472      0.59170344036478
  N   2.80285641044595     -0.06269478037125      1.25949929925810
