14
Coordinates from ORCA-job run
  C   -0.37663678088817     -0.43242412635039     -0.14233163444898
  C   0.72923751036724      0.64089507698765     -0.14173870436363
  F   0.09564403283836     -1.58642642647284     -0.63937371935337
  H   0.30965033530934      1.55227148023227      0.29845821846994
  N   -0.70949878698997     -0.69215975547394      1.35068795368690
  O   -0.59592743823129     -1.82365838453487      1.79285466467130
  O   -1.10288565370943      0.31035625462596      1.94346404463418
  N   -1.49863903551241     -0.02017464333630     -0.87975025040744
  H   -1.98098020685391      0.75068685354977     -0.43629818561820
  H   -2.13159586115866     -0.79427395907345     -1.04198361943556
  C   1.14919901034698      0.90892428080301     -1.51850613249103
  N   1.49524196309944      1.13440993281444     -2.61691796169016
  C   1.86211380833768      0.20514156882754      0.68007986948488
  N   2.75507710304480     -0.15356815259883      1.35235545686117
