17

C	0.0	0.0	0.0
C	-0.617175	-0.100025	-1.402524
Br	1.931741	0.0	0.0
H	-1.7121	-0.1968	-1.233717
C	-0.501197	1.207252	0.762875
H	-1.594635	1.191255	0.735342
H	-0.12067	2.120858	0.306706
H	-0.146979	1.140639	1.789755
N	-0.396229	-1.27708	0.768302
O	-0.277667	-1.239107	1.983984
O	-0.753453	-2.241112	0.103736
C	-0.071592	-1.15107	-2.247849
N	0.369265	-1.989105	-2.943134
N	-0.397708	1.219792	-2.113082
O	-1.279557	2.063467	-1.995599
O	0.65542	1.353895	-2.736525
Cl	-3.609977	0.0	0.0
