12

C	0.0	0.0	0.0
C	-0.446827	0.195259	-1.452176
Cl	1.842085	0.0	0.0
H	-0.102209	1.173028	-1.803834
H	-0.295625	-0.989772	0.345198
H	-1.545821	0.185519	-1.430268
N	-0.494068	0.974833	0.91456
H	-0.382694	1.901554	0.516749
H	-1.498584	0.795775	1.001643
C	0.040066	-0.825286	-2.372398
N	0.424283	-1.597422	-3.170111
Br	-3.685235	0.0	0.0
