12

C	0.0	0.0	0.0
C	-0.491395	0.209568	-1.428042
Cl	1.788112	0.0	0.0
H	-1.589026	0.199403	-1.390892
H	-0.28417	-1.00286	0.336653
H	-0.151658	1.191411	-1.766492
N	-0.499821	1.077304	0.810196
H	-0.27867	0.886424	1.781455
H	-1.520573	1.036943	0.723831
C	-0.02064	-0.813224	-2.356938
N	0.379675	-1.595625	-3.133264
Br	-3.724493	0.0	0.0
