12

C	0.0	0.0	0.0
C	-0.502066	0.370153	-1.390473
Cl	1.830893	0.0	0.0
H	-1.601941	0.326042	-1.320142
H	-0.298283	-1.019299	0.239436
H	-0.202628	1.395991	-1.629409
N	-0.530761	0.885105	0.949931
H	-0.620005	0.50227	1.874265
H	-0.122648	1.805483	0.938228
C	-0.015468	-0.52403	-2.436686
N	0.3653	-1.241853	-3.284199
Br	-3.888086	0.0	0.0
