12

C	0.0	0.0	0.0
C	-0.497389	-0.159451	-1.431164
Cl	1.786716	0.0	0.0
H	-1.595091	-0.179581	-1.384817
H	-0.290894	-0.899467	0.554276
H	-0.146275	-1.110809	-1.839229
N	-0.489265	1.235397	0.543166
H	-1.509818	1.195144	0.461938
H	-0.267731	1.279396	1.53141
C	-0.054703	0.919305	-2.310929
N	0.283258	1.752848	-3.064291
Br	-3.725178	0.0	0.0
