12

C	0.0	0.0	0.0
C	-0.506223	-0.492424	-1.3487
Cl	1.838229	0.0	0.0
H	-1.601287	-0.537495	-1.231406
H	-0.295913	-0.713188	0.76707
H	-0.102058	-1.480575	-1.586187
N	-0.524438	1.257697	0.295881
H	-0.229128	2.012287	-0.303843
H	-0.569436	1.503082	1.268276
C	-0.160483	0.429984	-2.425293
N	0.127502	1.151327	-3.304465
Br	-3.891382	0.0	0.0
