19

C	0.0	0.0	0.0
C	-0.302505	0.313575	-1.488577
F	1.404465	0.0	0.0
H	0.191609	1.276089	-1.67676
C	-0.501515	1.100062	0.906834
H	-1.594586	1.091398	0.925287
H	-0.13156	0.930032	1.921239
H	-0.146544	2.076191	0.56568
C	-0.498718	-1.359375	0.433034
H	-0.129886	-2.139172	-0.236806
H	-0.141264	-1.571938	1.443856
H	-1.592451	-1.364735	0.438933
C	-1.769687	0.406832	-1.899999
H	-1.828819	0.702712	-2.951036
H	-2.293761	-0.537505	-1.769649
H	-2.315699	1.126501	-1.295552
C	0.391822	-0.66645	-2.33439
N	0.919141	-1.450519	-3.031917
Cl	-4.430263	0.0	0.0
