15

C	0.0	0.0	0.0
C	-0.545443	-0.025221	-1.415551
F	1.386179	0.0	0.0
H	-1.650276	0.036738	-1.298678
H	-0.335191	0.934191	0.450932
C	-0.465086	-1.195684	0.795896
H	-0.072813	-1.115192	1.812114
H	-0.083546	-2.116673	0.348123
H	-1.554051	-1.207146	0.822215
C	-0.153862	-1.217308	-2.155255
N	0.125819	-2.200065	-2.733928
N	-0.107445	1.205458	-2.169305
O	0.296471	1.07175	-3.321807
O	-0.219021	2.270775	-1.57245
Cl	-3.568552	0.0	0.0
