15

C	0.0	0.0	0.0
C	-0.416548	-0.154879	-1.488372
F	1.381493	0.0	0.0
H	0.527404	-0.066994	-2.038748
H	-0.333938	0.992364	0.310213
C	-0.463848	-1.03785	0.993177
H	-0.152244	-0.705524	1.987064
H	-1.549636	-1.108395	0.96306
H	0.003155	-1.996574	0.777859
C	-1.290798	0.889524	-2.017135
N	-1.755612	1.792254	-2.608358
N	-0.890428	-1.528567	-1.902365
O	-0.187432	-2.456759	-1.507002
O	-1.837072	-1.620591	-2.668639
Cl	-3.428704	0.0	0.0
