15

C	0.0	0.0	0.0
C	-0.25843	-0.042262	-1.53094
F	1.383845	0.0	0.0
H	0.244248	0.84127	-1.931126
H	-0.366193	0.960456	0.367876
C	-0.505422	-1.139078	0.839875
H	-1.595857	-1.145494	0.798341
H	-0.182464	-0.972433	1.870981
H	-0.100674	-2.087098	0.487556
C	-1.565845	-0.129836	-2.182881
N	-2.33269	-0.180059	-3.07487
N	0.555601	-1.190264	-2.105892
O	1.563971	-0.892821	-2.740248
O	0.148319	-2.328098	-1.897991
Cl	-3.57266	0.0	0.0
