15

C	0.0	0.0	0.0
C	-0.556566	-0.020237	-1.40955
F	1.383952	0.0	0.0
H	-1.662401	0.017618	-1.283116
H	-0.337747	0.928675	0.460797
C	-0.457379	-1.205947	0.790224
H	-1.546337	-1.24181	0.81182
H	-0.052682	-2.118609	0.34643
H	-0.07601	-1.118458	1.810016
C	-0.144615	-1.196109	-2.16386
N	0.181395	-2.18293	-2.710322
N	-0.163392	1.224101	-2.166389
O	-0.183052	2.276372	-1.537485
O	0.105278	1.111395	-3.359851
Cl	-3.57111	0.0	0.0
