16
Coordinates from ORCA-job run
  C   0.92126635089174      0.07276812901222     -0.39976035017920
  C   -0.61078452399729      0.11578968812523     -0.35880913816265
  Br  1.61135371189940      1.00504197002486     -1.94993701393355
  H   -0.97584067256472     -0.32208998880306     -1.28703870877605
  N   1.29121792590363     -1.42396527768911     -0.56650896897422
  O   2.09608375423038     -1.88853303657599      0.22666227713518
  O   0.72437871036678     -2.00450520958593     -1.47908767116245
  C   1.56250052188307      0.57893080911554      0.80007508003295
  N   2.07842406226417      0.98093797819959      1.77780269594479
  N   -1.06492749318561      1.54566754300321     -0.38284205783386
  O   -1.73189389211132      1.89516677401441     -1.35247455588306
  O   -0.75412702127465      2.24136432063295      0.58023530587097
  C   -1.17368975287712     -0.56982123551226      0.87251207441361
  H   -0.80412583524204     -0.09823252304840      1.78359171192862
  H   -0.90666037808096     -1.62826071843348      0.87613230496276
  H   -2.26317546810548     -0.50025922247976      0.85644701461617
