16
Coordinates from ORCA-job run
  C   0.92854438608059     -0.03193262029711      0.01251915159164
  C   -0.60744623593627     -0.07224420074040     -0.05650896025661
  Br  1.58736697525685      1.73069073035468      0.40873671893199
  H   -0.86627803154052     -1.02870690684881     -0.52011504342778
  N   1.52191390471034     -0.55885269415041     -1.34119938569683
  O   1.11212212002122     -1.67327601000972     -1.62806377508118
  O   2.31888288450897      0.12957616469000     -1.94211031142249
  C   1.40178750667108     -0.96553432443327      1.02350726317063
  N   1.76856645322481     -1.72317422997606      1.84524382698298
  N   -1.05187485124514      0.97354278585362     -1.05235988418702
  O   -1.86935315811722      1.81075968156231     -0.69056975317313
  O   -0.54837755448287      0.88523969247648     -2.16924180285424
  C   -1.28994798641139      0.10296106312050      1.28119947144161
  H   -2.37038861990378      0.07263537031247      1.14422301157191
  H   -1.00301300487382     -0.71028888352002      1.94958423386897
  H   -1.03050478796285      1.05760438160574      1.73715523853955
