16
Coordinates from ORCA-job run
  C   0.84014684587313     -0.23301812001574     -0.56578513658074
  C   -0.63001375014227      0.15970936377337     -0.33788976946608
  Br  0.89765788017908     -1.71677975256096     -1.82062533373216
  H   -1.02317296001196      0.43240828519960     -1.32028034205294
  N   1.56499971620305     -0.70554390471478      0.70764426827464
  O   1.01084151061037     -1.59783538516884      1.32900931626912
  O   2.63314570362281     -0.17267979816688      0.95902469919361
  C   1.57527702214596      0.88252471319787     -1.14293156472128
  N   2.10802683619467      1.78658263477126     -1.67419951764749
  N   -0.66141366953901      1.43392634977480      0.46181232755171
  O   -1.58165676120426      2.20547841305797      0.22130290584713
  O   0.20486159666503      1.56625769743486      1.32414015719382
  C   -1.55749966823318     -0.83355238715714      0.34497867060150
  H   -1.51235137380284     -1.80400536553438     -0.14692984765801
  H   -2.57433805266175     -0.44446234752080      0.26746201642188
  H   -1.29551087589882     -0.95901039637020      1.39326715050529
