12
Coordinates from ORCA-job run
  C   0.67488516483193      0.00313054583269     -0.16587807919763
  C   -0.68724068726983      0.16756674421635     -0.04136641913941
  C   1.38780377798195      0.47532223843340     -1.29938316245420
  N   1.95143321042573      0.87835744900148     -2.25061078484215
  N   1.45670060663014     -0.71880170296796      0.82074246502753
  O   0.86294736720114     -1.15283598636113      1.81529669907416
  O   2.65597190032511     -0.84711095153315      0.60343558344653
  C   -1.35172586781325      0.87798642392198     -1.10232396666899
  N   -1.93420876494619      1.44696787487841     -1.95209099252735
  N   -1.47284517332748     -0.19236900077168      0.99150194487738
  H   -1.07085928373647     -0.78229711898739      1.70499839136380
  H   -2.47186225030278     -0.15491651566300      0.87567832104032
