12
Coordinates from ORCA-job run
  C   0.66078290578303     -0.04834409033351     -0.20913666121084
  C   -0.65579315545044      0.26388552161335      0.05019698366993
  C   1.39395634874584      0.59188551035146     -1.24292541409894
  N   1.97680301102224      1.13993028968508     -2.10607813908880
  N   1.36149105472327     -1.09226175530401      0.51475085847338
  O   0.74640829970384     -1.67454779091728      1.41628557658761
  O   2.51965124470880     -1.32354935200298      0.18759361131638
  C   -1.24444838875854      1.30020200023471     -0.75682999858748
  N   -1.76330661188393      2.13488621351879     -1.40458435816223
  N   -1.44842462803162     -0.23292085937535      1.01859877248772
  H   -1.11373758566011     -1.02998342123879      1.53944724355504
  H   -2.43338249490236     -0.02818226623147      0.99268152505824
