12
Coordinates from ORCA-job run
  C   0.62697260135214     -0.03993757598013     -0.29689345128019
  C   -0.66213311523947      0.22821954409253      0.10840005768973
  C   1.15280914334892      0.46818139529793     -1.51396060397455
  N   1.56165812575275      0.90566123440427     -2.52713881979017
  N   1.50620243432672     -0.91202167544788      0.45949716517620
  O   2.61978355684835     -1.12748936579698     -0.00471725422226
  O   1.07632246625209     -1.37529778526323      1.52273845357771
  C   -1.44268639737184      1.08507457885499     -0.74493079461799
  N   -2.11800548082544      1.77536169056674     -1.41789209048261
  N   -1.26607198713996     -0.15256194268448      1.25028387415889
  H   -2.25968870415555     -0.01988242265319      1.34035516982649
  H   -0.79616264314871     -0.83530767539059      1.82625829393876
