12
Coordinates from ORCA-job run
  C   0.62867474733112     -0.21317993562049     -0.21979611065531
  C   -0.59862729555136      0.21982919826444      0.20833388627228
  C   0.79466948845110     -0.61605864843207     -1.56948320262591
  N   0.78590358995927     -0.92302053907891     -2.70673841381743
  N   1.80834244626951     -0.27228488106860      0.63413780568244
  O   2.83176670882276     -0.68949754949147      0.09833320775515
  O   1.69470679140194      0.09176380270411      1.79913005542749
  C   -0.86125210155163      0.63137352223376      1.56085284504181
  N   -1.24822993756050      0.98863275786844      2.61309268423833
  N   -1.65926830448678      0.35619744891845     -0.62781047429651
  H   -1.59925228599342     -0.02525726449630     -1.56123119106025
  H   -2.57843384709201      0.44950208819865     -0.22782109196209
