12
Coordinates from ORCA-job run
  C   0.57832642150351     -0.11024767591616     -0.37271254415513
  C   -0.68274350407594      0.13290637536773      0.12697446984605
  C   0.88360478960659      0.05766756736558     -1.74914865141474
  N   1.10418515007638      0.20860310709255     -2.89543648371480
  N   1.68346051052803     -0.49899279897219      0.48226749337949
  O   1.44771269268870     -0.65138091085099      1.68718217296404
  O   2.77801670829915     -0.65246337450324     -0.04730177959499
  C   -1.68752338014723      0.53956900695184     -0.81998256123029
  N   -2.53946600222466      0.88009237848157     -1.55722500455198
  N   -1.11519517127502     -0.02298148674614      1.39233719069960
  H   -0.42842024525598     -0.21409709472226      2.10650323079224
  H   -2.02295796972353      0.33032490645172      1.64554246698049
