12
Coordinates from ORCA-job run
  C   0.62171827155697     -0.14973094761639     -0.28515605131117
  C   -0.60269137086693      0.09604289000249      0.27813302398116
  C   0.72731427545445     -0.29455122611123     -1.69171880357449
  N   0.66879305209020     -0.39544422264891     -2.86397373854340
  N   1.85771099495531     -0.24444492315177      0.48105525100069
  O   2.88571813224520     -0.36399985940851     -0.18098086264947
  O   1.78212850280552     -0.20278370155586      1.70395720372374
  C   -0.79699588032220      0.29268129179056      1.68922253544142
  N   -1.12833017130658      0.49550638038997      2.79973039380481
  N   -1.75101653068938      0.11422297259325     -0.44680238288545
  H   -1.69218504159437      0.13174387969347     -1.45475182692094
  H   -2.57216423432820      0.52075746602293     -0.02971474206691
