12
Coordinates from ORCA-job run
  C   0.62319767012339     -0.22001626111965     -0.23140263426777
  C   -0.60605633677672      0.16900239029423      0.23095020457912
  C   0.77588716080937     -0.58352661645094     -1.59303871762429
  N   0.76092644508077     -0.85144246430998     -2.73995866416840
  N   1.82018708456213     -0.26572619149493      0.60061145039649
  O   2.86032151312860     -0.56399835931944      0.01938435549683
  O   1.70273305393542     -0.00969353873475      1.79358811004317
  C   -0.84457427476539      0.58339754434012      1.58712101354934
  N   -1.21247551066879      0.96193984911014      2.63850241556018
  N   -1.72243891826169      0.13721021085283     -0.54165751777117
  H   -1.62448850940951     -0.00180305394067     -1.53685675528471
  H   -2.53421937775759      0.64365649077303     -0.22824326050879
