12
Coordinates from ORCA-job run
  C   0.62906730124326     -0.17689540535837     -0.24621829488889
  C   -0.60120149168847      0.18810376963248      0.23380003155860
  C   0.75566919032203     -0.57079812868216     -1.60302508128833
  N   0.69222615053461     -0.88248912866798     -2.73793539586236
  N   1.84786102960690     -0.16836616982378      0.55281168861403
  O   2.87932015254127     -0.45223992590498     -0.05007737276599
  O   1.75585992834531      0.11443182360382      1.74185574641494
  C   -0.82488802669563      0.59553081204539      1.59491166798422
  N   -1.16625144569723      0.94204900280699      2.66559485705271
  N   -1.70181288322613      0.26200107606522     -0.55802948188370
  H   -2.60558487934789      0.29908236349033     -0.11590259362676
  H   -1.65926502593803     -0.14941008920696     -1.47978577130849
