12
Coordinates from ORCA-job run
  C   0.65778196216760     -0.06394504201302     -0.21786607358368
  C   -0.59531470904551      0.32748715525421      0.19920119171807
  C   1.59459802261410      0.85864126725255     -0.75336730754741
  N   2.35605441097062      1.64418863365307     -1.18701617595719
  N   1.07966805126316     -1.45329819032720     -0.18577017662095
  O   0.28918289469242     -2.28045327121922      0.28316715383087
  O   2.19468858243410     -1.71213882050181     -0.62285897075313
  C   -0.91045688878254      1.72692440842278      0.08285961689146
  N   -1.21668049293695      2.86068442305057     -0.00103572786691
  N   -1.55029175147341     -0.43020018541169      0.77358812758393
  H   -2.47624443961743     -0.04666776031711      0.86759390803800
  H   -1.42098564228618     -1.43122261784313      0.76250443426694
