12
Coordinates from ORCA-job run
  C   0.66270080490343     -0.04419391572009     -0.20410410170075
  C   -0.61888765130929      0.30569511321406      0.16054489591159
  C   1.53411836653048      0.87003499090363     -0.85293901919106
  N   2.23287502263206      1.64952695775169     -1.39081242562920
  N   1.17854809160921     -1.38706246810311     -0.01340500980415
  O   2.31950273011527     -1.61125921856058     -0.40047299590381
  O   0.43571426750343     -2.21318053289082      0.53043532137716
  C   -1.01963510309045      1.66167504829812     -0.10852323707874
  N   -1.38814404810467      2.75910779391668     -0.32086718972336
  N   -1.52860186089939     -0.44613409487742      0.80923618339735
  H   -1.33197401149563     -1.42931369379849      0.92436475010259
  H   -2.47721660839443     -0.11489598013366      0.86754282824238
