12
Coordinates from ORCA-job run
  C   0.52576558755660     -0.10278408412872     -0.42589234389495
  C   -0.67549374437414      0.13915519156800      0.20775977020268
  C   0.68973049149986      0.08651687011276     -1.82361260984388
  N   0.81460661047561      0.21763164691067     -2.98736227165006
  N   1.71395348849558     -0.50410887388976      0.30368806872384
  O   2.75896160152029     -0.59909888784907     -0.32823106694188
  O   1.59203977361050     -0.71909903538041      1.51689637075545
  C   -1.75850390301625      0.57528032590534     -0.63618209413733
  N   -2.61610100741489      0.96422084647782     -1.34049224155110
  N   -0.96198668759774     -0.00803100974812      1.51132242275367
  H   -0.21958117883669     -0.30256413494449      2.12996418057812
  H   -1.86439103191874      0.25288114496600      1.87114181500544
