12
Coordinates from ORCA-job run
  C   0.50350276548016     -0.20519295419485     -0.43188299623565
  C   -0.65421789559261      0.17341727129774      0.21227855338418
  C   0.55839992090981     -0.37185817732085     -1.84085909263376
  N   0.57324558977089     -0.50695850221926     -3.00983615569803
  N   1.75273838047097     -0.39790412935946      0.27963721284241
  O   1.73991573305535     -0.25345671233655      1.50824245314329
  O   2.73829807191750     -0.69820751148378     -0.38434600491452
  C   -1.82034159068191      0.35803120087704     -0.61114099296089
  N   -2.79498231798514      0.52542976344019     -1.24930564707408
  N   -0.85186973987782      0.32279264699109      1.53553095998544
  H   -1.70426095167189      0.75128847586898      1.85693083301944
  H   -0.04042796579531      0.30161862843972      2.13575087714217
