12
Coordinates from ORCA-job run
  C   0.59721151642407     -0.26046799041799     -0.25991143727766
  C   -0.57344524448699      0.24448003013616      0.24185617523215
  C   0.63584633114762     -0.77138681974939     -1.57948847865752
  N   0.52697065166324     -1.17072598103526     -2.68304127915893
  N   1.83283537970403     -0.32447672430002      0.51571228147043
  O   2.84078020491463     -0.61331379466758     -0.12488972289875
  O   1.77423297171498     -0.10088587136829      1.71844720296866
  C   -0.68777328366111      0.80688932494577      1.56224421656450
  N   -0.94657768098102      1.32659059137524      2.58538231724801
  N   -1.73758131474566      0.21647322455212     -0.44834699519718
  H   -2.52730086838042      0.74489451111765     -0.12089559629526
  H   -1.73519866331338     -0.09807050058840     -1.40606868399846
