12
Coordinates from ORCA-job run
  C   0.58381155075916     -0.27440690798487     -0.27233491516456
  C   -0.57236699621333      0.21929512871036      0.27173205107722
  C   0.61231646378999     -0.64179958716529     -1.64142738353581
  N   0.49656580011675     -0.90690244365202     -2.78326186492156
  N   1.82605882145872     -0.42572247724375      0.47575230786960
  O   1.81101045110035     -0.17370211070682      1.67521554655789
  O   2.79598078816797     -0.80377619085070     -0.17633926659422
  C   -0.68005071919220      0.64901748760054      1.63988741081063
  N   -0.93870451418758      1.05910798154375      2.71188672244001
  N   -1.73707248884730      0.28887795411064     -0.42303992178322
  H   -2.47865930472194      0.86214973553858     -0.05549187604142
  H   -1.71888985223058      0.14686143009960     -1.42257881071456
