12
Coordinates from ORCA-job run
  C   0.63752170093421     -0.10255335574565     -0.27064873592529
  C   -0.60377290378866      0.14037130674206      0.25568686440861
  C   0.78259710691548     -0.26992863196722     -1.67121785815405
  N   0.75892432153122     -0.38819293667690     -2.84304993260403
  N   1.84549852106265     -0.22625430187607      0.53532376882900
  O   1.75480985582760     -0.03506743188696      1.74275892071686
  O   2.86810675804462     -0.51615030008650     -0.08058672691455
  C   -0.84749076579390      0.29636026267324      1.66410307391185
  N   -1.22585262162010      0.43415216384228      2.76956233651425
  N   -1.70475693184945      0.31906304730148     -0.51921704766442
  H   -2.60983587123067      0.26363456533972     -0.08176314712460
  H   -1.65474917003301      0.08356561234053     -1.49995151599365
