12
Coordinates from ORCA-job run
  C   0.58690072231856     -0.11904278691046     -0.33979502785034
  C   -0.60262306608569      0.32291563417881      0.18767957945320
  C   1.38232773659033      0.70356672823313     -1.18238560582655
  N   2.01177096703011      1.41806114240176     -1.87340017220166
  N   1.11253964328927     -1.44367052592598     -0.07148975200104
  O   0.46840537590526     -2.16179240414978      0.70083107934416
  O   2.15890991131592     -1.75642018451975     -0.62559644329847
  C   -0.99427750018509      1.66884896503362     -0.15518131778948
  N   -1.33824859149207      2.76496675649310     -0.41302350652952
  N   -1.48604033646770     -0.35859019699794      0.95159826429915
  H   -1.14985634456980     -1.22804202959195      1.33662537486319
  H   -2.14980851764909      0.18719890175545      1.48413752753736
