12
Coordinates from ORCA-job run
  C   0.60180990773515     -0.22939111886312     -0.27512789982849
  C   -0.58298920769614      0.17823893614001      0.27869707210507
  C   0.62168847976094     -0.70337019056941     -1.61133682083369
  N   0.49318586714298     -1.07227442235551     -2.72265666196379
  N   1.87808360603619     -0.18534207719663      0.42704212660785
  O   1.87852104222473      0.16998535748073      1.60023690842135
  O   2.85963049420911     -0.51650801125428     -0.23329020064393
  C   -0.69191572082161      0.70277630603272      1.61318232859936
  N   -0.95735451917075      1.16536705503781      2.66185477864538
  N   -1.77137802679636      0.06269404673107     -0.36866584900115
  H   -2.55866352980143      0.58197663893860     -0.01623879706219
  H   -1.77061839282281     -0.15515252012198     -1.35469698504577
