12
Coordinates from ORCA-job run
  C   0.59820231527298     -0.23052155599680     -0.28125666926990
  C   -0.58067859960710      0.17858726571495      0.28393274255585
  C   0.61057738063662     -0.67513051462924     -1.62761434162562
  N   0.47600519557251     -1.01733482011995     -2.74672926130472
  N   1.87659907636722     -0.21631929736819      0.41871479669335
  O   1.88310178899065      0.10994413297186      1.60034488649756
  O   2.85346295451251     -0.54016742604941     -0.25211241237617
  C   -0.68064238632197      0.67412109008576      1.63013519359888
  N   -0.93790040304921      1.11541847535917      2.68997401171896
  N   -1.77135674663182      0.09272260590558     -0.36355172692574
  H   -1.77586779531144     -0.10497289400933     -1.35377067652987
  H   -2.55150278043095      0.61365293813560      0.00193345696740
