12
Coordinates from ORCA-job run
  C   0.60210050292481     -0.26129390244039     -0.24437143855331
  C   -0.56477284166093      0.28920265374847      0.21623101438775
  C   0.62540439716821     -0.88559673922174     -1.51730503898770
  N   0.50279945873104     -1.36854154974642     -2.58473612632504
  N   1.84575643848949     -0.26866408405551      0.51470714398068
  O   1.86774796703693      0.31943322533777      1.59018145105825
  O   2.78115602246062     -0.87417335518145     -0.00254180249601
  C   -0.68873220173559      0.91177374491031      1.50656556181891
  N   -0.97160315674149      1.43364528296762      2.52229941726638
  N   -1.69414366164705      0.34526441387779     -0.53530394152246
  H   -1.73974880743083     -0.18982572549188     -1.39041643933856
  H   -2.56596411759520      0.54977603529543     -0.07530980128888
