12
Coordinates from ORCA-job run
  C   0.67538541411207     -0.01145505568953     -0.15974275433010
  C   -0.64238759842024      0.27538037830027      0.12145286583643
  C   1.55602715105606      0.95950428225160     -0.70530635957120
  N   2.26584400143730      1.78520761236130     -1.15192716787855
  N   1.23079460804925     -1.33956587545773      0.02508014257747
  O   0.49102818033352     -2.20692901444971      0.50473524288223
  O   2.39966603863486     -1.51056657204771     -0.30122958758988
  C   -1.07821227895866      1.62358815573704     -0.13095355920169
  N   -1.47443542368467      2.71405032389908     -0.32922324389879
  N   -1.56406518380197     -0.53429330242489      0.67689931183696
  H   -2.52803817049232     -0.24449764780785      0.67508003949422
  H   -1.33260673826521     -1.51142328467186      0.77813506984289
