12
Coordinates from ORCA-job run
  C   0.54578948155059     -0.07528556108801     -0.41782588345502
  C   -0.66761908981072      0.13415340002528      0.20025759359693
  C   0.68068810286543     -0.03145150370140     -1.83108969126964
  N   0.73963720878404      0.01644746098311     -3.00581374601117
  N   1.75249911073121     -0.37390270485627      0.32824572089602
  O   1.66000655110023     -0.46897397186528      1.55688665340456
  O   2.78574933396140     -0.51581456128049     -0.31588503443542
  C   -1.77960820650044      0.43236905825242     -0.66455803742808
  N   -2.70354959475051      0.67942585287298     -1.35006299724256
  N   -0.92622697496013      0.17367046506432      1.52130572318753
  H   -1.88466871566001      0.17417611031245      1.82793121513229
  H   -0.20169720731111     -0.14581404471911      2.14860848362455
