12
Coordinates from ORCA-job run
  C   0.61400655419498     -0.23085429017945     -0.24502314397184
  C   -0.57977333084785      0.25942544346505      0.21460015811604
  C   0.65571179738078     -0.92063550418557     -1.48314589438665
  N   0.54496911157842     -1.46628762940580     -2.52122883681840
  N   1.87111408421322     -0.10666659576665      0.48220955148135
  O   1.87205558918600      0.53624076894404      1.52588915928442
  O   2.83769067793315     -0.66777600047357     -0.02772828370197
  C   -0.72132468101634      0.94270920440401      1.47193946092030
  N   -1.01862969986985      1.49958120381820      2.46476500376398
  N   -1.72574698475692      0.19432803448023     -0.51141100492300
  H   -2.59958639938144      0.35418038631453     -0.03756587215252
  H   -1.75048671861414     -0.39324502141501     -1.33230029761172
