12
Coordinates from ORCA-job run
  C   0.62737714823087     -0.24104844058455     -0.19664353063397
  C   -0.60981203242508      0.23809671319184      0.14477841363291
  C   1.73111680078162      0.64766625275582     -0.24683550357816
  N   2.55278637535038      1.49177007135861     -0.24962082472513
  N   0.89657128085304     -1.64259531139562     -0.49317160852120
  O   -0.05112715886525     -2.41981181196302     -0.51095190150519
  O   2.07309754463480     -1.92444613600119     -0.70613723093258
  C   -1.77740588088917     -0.59445465944322      0.25130804281463
  N   -2.81761637636920     -1.12392043772172      0.39875346675414
  N   -0.85128715883441      1.55848475332252      0.35155046379129
  H   -0.06838056302444      2.18993643132538      0.44103153786579
  H   -1.70531997944316      1.82032257515513      0.81593867503747
