12
Coordinates from ORCA-job run
  C   0.64571800836098     -0.05621814514320     -0.24967762539740
  C   -0.64117685661521      0.28392783910448      0.10613555833471
  C   1.50680281914269      0.85492267619792     -0.91616524879979
  N   2.19740191236626      1.62812564966488     -1.47331378242344
  N   1.22365456794007     -1.34312834545615      0.08996644410077
  O   0.49637273868290     -2.16327706105535      0.66341649792879
  O   2.39483753094046     -1.53240822869203     -0.21701606888905
  C   -1.08455715021025      1.60402608409549     -0.25763966176436
  N   -1.48175896609266      2.67804288606062     -0.52978478282012
  N   -1.56880495906580     -0.49443861803210      0.69465385109240
  H   -2.41495153442945     -0.06932042210935      1.03547610061352
  H   -1.27353811102000     -1.39025431463520      1.05394871802398
