12
Coordinates from ORCA-job run
  C   0.62298113964889     -0.18637666510034     -0.25938737034107
  C   -0.58592497877316      0.22179700560146      0.23919226936705
  C   0.73421389245146     -0.52772856551584     -1.63109657541547
  N   0.68398536339310     -0.77849385224769     -2.78098874540230
  N   1.82684489260582     -0.31953524599209      0.55152999473018
  O   1.76990956683436      0.02089922277441      1.72776829694050
  O   2.81159446698595     -0.76941087336463     -0.02899336742847
  C   -0.79765080861453      0.55648167549600      1.62152505086763
  N   -1.14862209806984      0.84714128148809      2.70620197236327
  N   -1.67783059684815      0.40450056602444     -0.54751428768634
  H   -2.57837241026556      0.47686923927721     -0.10320171063294
  H   -1.66112842934836      0.05585621155900     -1.49503552736205
