12
Coordinates from ORCA-job run
  C   0.60895693238301     -0.21809503821255     -0.26919393475671
  C   -0.57172986701989      0.25652805839014      0.23802995745221
  C   0.63209767035728     -0.79043104168062     -1.56622138435508
  N   0.50585438428651     -1.23671348143257     -2.64913361704350
  N   1.86657703510154     -0.20480680805646      0.46739487998906
  O   1.88594460565087      0.34226855011716      1.56423863484287
  O   2.81406807097353     -0.75413474340187     -0.08899592508036
  C   -0.69697639027262      0.81364862366754      1.55766215512610
  N   -0.98115463736691      1.27373656969581      2.60259266752546
  N   -1.71779124249993      0.29591835732045     -0.49015242620781
  H   -2.58777882799264      0.42806258544146     -0.00071540330834
  H   -1.75706773360074     -0.20798163184850     -1.36450560418389
