12
Coordinates from ORCA-job run
  C   0.56840745258574     -0.31438797628518     -0.26202708264341
  C   -0.55845746627456      0.25774592804977      0.26676846613265
  C   0.55173180090626     -0.78551660426094     -1.59926605077405
  N   0.39795852669240     -1.13121170578026     -2.71487463809952
  N   1.82307604429865     -0.44898442327737      0.46776758176124
  O   1.84691791145198     -0.09905823796500      1.64231633888787
  O   2.76295017966435     -0.91353883677051     -0.17236806337938
  C   -0.62108218622605      0.79178005081781      1.60051000098022
  N   -0.84276619632272      1.28748176220549      2.64424542949201
  N   -1.73589418597265      0.31449311548833     -0.40764581952496
  H   -2.44954218398480      0.93905936092861     -0.06974223551591
  H   -1.74329969681859      0.10113756684925     -1.39468392731675
