12
Coordinates from ORCA-job run
  C   0.61865740311262     -0.14014210936674     -0.29722004399967
  C   -0.58530838775154      0.16756666468864      0.27958173902939
  C   0.68286133130836     -0.38240360549882     -1.69269105663828
  N   0.58986304875681     -0.56281710529147     -2.85305978371604
  N   1.86618674930981     -0.25125591263676      0.44838881067791
  O   2.86044797678296     -0.52878431290592     -0.21733823542630
  O   1.83235517677763     -0.06306753090783      1.65925258803225
  C   -0.74720658974637      0.41286983916959      1.68727348844957
  N   -1.06331249799077      0.63059940541929      2.79948200317487
  N   -1.72152537637723      0.33629104333595     -0.44469714884267
  H   -1.73288711461867      0.04414073743170     -1.41121579228885
  H   -2.60213171956361      0.33800288656238      0.04324343154782
