12
Coordinates from ORCA-job run
  C   0.59778775405196     -0.26316343947050     -0.25066062712577
  C   -0.58476729069853      0.20538982289468      0.25769221941639
  C   0.63718211705536     -0.78106256725743     -1.56989959925736
  N   0.53341524639755     -1.18006219115447     -2.67319595773433
  N   1.85792880648907     -0.23316560573313      0.48186757819537
  O   1.83723807222032      0.14040933886082      1.64913635023338
  O   2.84798299994433     -0.59511979406378     -0.14899426653962
  C   -0.70630559127263      0.78322150513149      1.56904841911507
  N   -0.97670347518295      1.29694938546923      2.59250287543220
  N   -1.76041244789176      0.10978707816263     -0.41552858334070
  H   -1.74582994818963     -0.14919404809696     -1.39135987139414
  H   -2.53851624292309      0.66501051525742     -0.09960853700050
