12
Coordinates from ORCA-job run
  C   0.63255695349548     -0.16187570136778     -0.25247923875559
  C   -0.59569962522576      0.19924194442153      0.23503874630415
  C   0.78310864019498     -0.43411442175840     -1.63570600458928
  N   0.76621324130882     -0.62763867592548     -2.79749851476804
  N   1.81944937719903     -0.31081648356840      0.58057294773111
  O   1.72701119378502     -0.03198177048043      1.77070455128739
  O   2.82710847710637     -0.71112907014194      0.00305067264319
  C   -0.84767592671299      0.46153878606381      1.62633573596921
  N   -1.23342620884303      0.69197515291892      2.71374581836287
  N   -1.67176779705645      0.40054021384997     -0.56915796182047
  H   -1.62361934415036      0.09657549484543     -1.53104722033778
  H   -2.58425898110109      0.42968453114277     -0.14455953202677
