12
Coordinates from ORCA-job run
  C   0.63417902461509     -0.14734283856124     -0.25670973931885
  C   -0.59937869915953      0.18442127070211      0.23830373797541
  C   0.77804316811953     -0.44087550075476     -1.63643864819779
  N   0.75337576954028     -0.65806995628222     -2.79397190174930
  N   1.83441292903279     -0.24321936172288      0.56483661480289
  O   1.74800962735760      0.06061007242039      1.74925562993433
  O   2.84652666893966     -0.62732367438358     -0.01589708980475
  C   -0.84307300289969      0.46645078097030      1.62708035995217
  N   -1.22070903822436      0.70637760069208      2.71520941137236
  N   -1.69021934056034      0.33541769775195     -0.55663519346934
  H   -1.64362657742582      0.01600518253087     -1.51352034687787
  H   -2.59854052933523      0.34754872663697     -0.12251283461928
