12
Coordinates from ORCA-job run
  C   0.62880597267420     -0.14487707161851     -0.27276885047886
  C   -0.59223350742718      0.18196794467571      0.25553204538497
  C   0.74710086937084     -0.37846576265553     -1.66630354406479
  N   0.70034949838296     -0.54519824977239     -2.83149607182572
  N   1.83892913904825     -0.29651938982489      0.52504618831965
  O   2.83834436910574     -0.66096796452269     -0.08932686327994
  O   1.77279123087027     -0.05279795083165      1.72462137548154
  C   -0.81152109203746      0.40599829133427      1.65895459562312
  N   -1.17052617881898      0.60519986456130      2.76154784973386
  N   -1.69236074338481      0.38323700952886     -0.51478745337696
  H   -2.59355904491978      0.39493073489373     -0.06617898561692
  H   -1.66612051286407      0.10749254423178     -1.48584028589995
