12
Coordinates from ORCA-job run
  C   0.63082572528253     -0.11022506010336     -0.28392817053941
  C   -0.59578905373725      0.15025554102841      0.26776178699115
  C   0.74500274085706     -0.27736178672437     -1.68724776458772
  N   0.69441584018375     -0.39308736759596     -2.85842662549626
  N   1.85223985397093     -0.25666225268132      0.49775197408545
  O   2.85744848416852     -0.56166396934766     -0.13915137551400
  O   1.78895600951606     -0.06660601160931      1.70714059973361
  C   -0.81007341057978      0.30080290436039      1.68173223873589
  N   -1.16551406962646      0.43446647025082      2.79531184297649
  N   -1.70895879478430      0.34938455602911     -0.48413883750957
  H   -1.68137264074598      0.12135653763382     -1.46745960057937
  H   -2.60618068450508      0.30834043875942     -0.02934606829623
