12
Coordinates from ORCA-job run
  C   0.60740077126104     -0.19637275071057     -0.28776082422325
  C   -0.59194521452708      0.14418119550123      0.27994597000354
  C   0.70085381449684     -0.33094715456891     -1.69621174344775
  N   0.63567524401177     -0.40882564515373     -2.86980732636316
  N   1.82971047298332     -0.41187913707335      0.47651322299595
  O   2.83885081579103     -0.63596772111496     -0.18716513588399
  O   1.76231748551151     -0.35557931572913      1.69919889347695
  C   -0.77057161856817      0.33258458906380      1.69433157569470
  N   -1.08812451397901      0.54161127403585      2.80776110356674
  N   -1.73344184803018      0.27421635218679     -0.44409848830839
  H   -2.51690066161579      0.74319013360101     -0.02001131674172
  H   -1.67182474733529      0.30378817996198     -1.45169593076963
