12
Coordinates from ORCA-job run
  C   0.68151670724690     -0.11013191600452     -0.06809236448752
  C   -0.60003475784773      0.36577344865579      0.10646254837648
  C   1.79400986540652      0.76024181900109     -0.21113641482023
  N   2.69928538678366      1.50333210404289     -0.32783181571115
  N   0.96700165511317     -1.52715302099676     -0.20368095720840
  O   2.13767567356499     -1.84980280744407     -0.37322862578004
  O   0.01565898686490     -2.31405843486237     -0.13702716393901
  C   -0.75228601638211      1.79329239044870      0.21550016547414
  N   -0.92475175691026      2.95274414413021      0.32131537595151
  N   -1.72767491729045     -0.34962442423889      0.27225466501773
  H   -2.61441662616586      0.12310804210474      0.28192612444685
  H   -1.67498420038373     -1.34772134483681      0.12453846267962
