12
Coordinates from ORCA-job run
  C   0.63623008237312     -0.11116920714419     -0.26962494765164
  C   -0.61378227410380      0.07279591118832      0.26031295905048
  C   0.79581742912613     -0.16972523469005     -1.67718411440194
  N   0.77676746375931     -0.20349984584973     -2.85465452673283
  N   1.84482525914516     -0.23807802025805      0.53535727944187
  O   1.73150156585877     -0.20427572128232      1.75540609323251
  O   2.89090211082093     -0.37219507770843     -0.09444304336398
  C   -0.86660354541712      0.16087230124920      1.67298799292440
  N   -1.24357728628634      0.26225675268436      2.78253634037889
  N   -1.73245247280908      0.12269996341162     -0.50710047000225
  H   -1.63599466881082      0.20981486718011     -1.50849935061696
  H   -2.58163366365628      0.47250331121915     -0.09509421225854
