16

C	-0.500679	0.048438	-1.414291
C	0.0	0.0	0.0
Cl	-2.256117	0.254088	-1.511366
H	1.095465	0.0	0.0
H	-0.31574	0.9516	0.438055
N	0.151743	1.24711	-2.127504
O	0.973534	1.000889	-2.995671
O	-0.193693	2.3451	-1.719603
N	-0.129521	-1.165106	-2.266878
O	-0.668036	-1.252017	-3.363729
O	0.708453	-1.924311	-1.799141
C	-0.532655	-1.16108	0.830025
H	-0.12973	-1.066785	1.839357
H	-1.623122	-1.163425	0.893206
H	-0.190556	-2.114845	0.433019
Cl	3.397812	0.0	0.0
