16

C	-0.530294	0.001952	-1.403543
C	0.0	0.0	0.0
Cl	-2.266084	0.328954	-1.483787
H	1.091913	0.0	0.0
H	-0.322321	0.937214	0.458378
N	0.11353	1.069849	-2.285442
O	0.50171	2.076604	-1.712913
O	0.102342	0.857972	-3.491416
N	-0.220862	-1.336668	-2.068542
O	0.962542	-1.500827	-2.320316
O	-1.131221	-2.14013	-2.216916
C	-0.494502	-1.203682	0.796638
H	-0.065219	-2.128771	0.406767
H	-1.583306	-1.295114	0.800941
H	-0.146688	-1.101026	1.825749
Cl	3.410202	0.0	0.0
