16

C	-0.522348	0.017636	-1.409236
C	0.0	0.0	0.0
Cl	-2.260119	0.330674	-1.502339
H	1.095648	0.0	0.0
H	-0.323756	0.933183	0.465666
N	0.123693	1.096983	-2.276915
O	0.543659	2.082554	-1.691323
O	0.087394	0.911155	-3.487212
N	-0.193557	-1.309094	-2.089859
O	-1.090535	-2.127664	-2.236887
O	0.99079	-1.45004	-2.353294
C	-0.49949	-1.211201	0.780367
H	-0.158643	-1.120866	1.813207
H	-0.070805	-2.133531	0.383427
H	-1.588839	-1.300286	0.776647
Cl	3.422787	0.0	0.0
