16

C	-0.465036	-0.005623	-1.427435
C	0.0	0.0	0.0
Cl	0.285853	-1.242279	-2.39026
H	1.091165	0.0	0.0
H	-0.348293	0.929337	0.454234
N	-1.994152	-0.151852	-1.455769
O	-2.488945	-1.220209	-1.778132
O	-2.594414	0.83955	-1.051691
N	-0.255586	1.341253	-2.134091
O	-0.676646	1.399827	-3.284923
O	0.273869	2.238748	-1.498568
C	-0.507536	-1.212206	0.774865
H	-0.229017	-2.143923	0.280093
H	-0.036163	-1.210496	1.758856
H	-1.592799	-1.199135	0.913281
Cl	3.396204	0.0	0.0
