12

C	0.0	0.0	0.0
C	-0.471556	-0.02854	-1.47512
Cl	1.77608	0.0	0.0
H	0.417257	-0.097377	-2.112891
H	-0.360917	0.870617	0.533844
H	-0.352662	-0.901421	0.486742
C	-1.098275	1.262421	-1.826479
N	-1.571461	2.280954	-2.175761
N	-1.305378	-1.19734	-1.711138
H	-1.619159	-1.17097	-2.677191
H	-2.117045	-0.956234	-1.079693
F	-2.659382	0.0	0.0
