12

C	0.0	0.0	0.0
C	-0.628732	-0.376953	-1.361042
Cl	1.771053	0.0	0.0
H	-1.407528	-1.107092	-1.118464
H	-0.333607	-0.691353	0.767903
H	-0.346731	0.998828	0.244171
C	0.314905	-0.970517	-2.314762
N	0.995919	-1.482614	-3.124883
N	-1.262838	0.828227	-1.910792
H	-2.079704	0.831917	-1.254716
H	-1.635181	0.584421	-2.825379
F	-2.793376	0.0	0.0
