12

C	0.0	0.0	0.0
C	-0.629055	-0.288869	-1.380154
Cl	1.771195	0.0	0.0
H	-1.418649	-1.019127	-1.176895
H	-0.347369	0.978699	0.312183
H	-0.333561	-0.741367	0.718623
C	0.304923	-0.842575	-2.365863
N	0.974716	-1.337314	-3.194938
N	-1.249296	0.954806	-1.860873
H	-2.070099	0.927491	-1.212478
H	-1.614079	0.775904	-2.7935
F	-2.780538	0.0	0.0
