12

C	0.0	0.0	0.0
C	-0.489708	-0.126963	-1.461561
Cl	1.773731	0.0	0.0
H	0.38762	-0.200538	-2.115612
H	-0.357553	0.905412	0.47582
H	-0.354352	-0.862128	0.553074
C	-1.16847	1.126165	-1.873351
N	-1.574517	2.127046	-2.338098
N	-1.289661	-1.333975	-1.611854
H	-2.102461	-1.068885	-0.997411
H	-1.609483	-1.384661	-2.574791
F	-2.651916	0.0	0.0
