12

C	0.0	0.0	0.0
C	-0.484316	0.046949	-1.467357
Cl	1.776389	0.0	0.0
H	0.395614	0.044624	-2.121373
H	-0.351788	-0.922673	0.445357
H	-0.358178	0.842368	0.578769
C	-1.160821	1.337125	-1.737411
N	-1.572656	2.382086	-2.082633
N	-1.283535	-1.133747	-1.763152
H	-1.596115	-1.065384	-2.727699
H	-2.09963	-0.94506	-1.125998
F	-2.647548	0.0	0.0
