12

C	0.0	0.0	0.0
C	-0.62733	-0.352901	-1.367723
Cl	1.771144	0.0	0.0
H	-1.412963	-1.080622	-1.134614
H	-0.346806	0.992237	0.266701
H	-0.332571	-0.708601	0.751362
C	0.312336	-0.941057	-2.328079
N	0.99022	-1.467713	-3.130438
N	-1.256476	0.863786	-1.903315
H	-2.070345	0.86527	-1.24506
H	-1.634697	0.629875	-2.818444
F	-2.784047	0.0	0.0
