16
Coordinates from ORCA-job run
  C   0.41717334459946     -0.40518329336070      0.41020634581235
  C   -0.60589521530583      0.50613834724993     -0.30872512192871
  F   -0.04438061723201     -1.71231866809072      0.30762592591897
  H   -0.23423145105382      1.53141390975696     -0.30739584154570
  C   1.77720647178660     -0.33141908641514     -0.25710049236768
  H   2.45556955942267     -1.03199565539778      0.23091050333341
  H   1.68143138342731     -0.61222450706603     -1.30646840374542
  H   2.19273305813471      0.67511945491705     -0.18099521249584
  C   0.53153225262378     -0.07146869446130      1.83786246358475
  N   0.67412792209021      0.19905929771813      2.97188984307267
  N   -1.86042713162311      0.53897247123499      0.53441596823355
  O   -1.97749157547391      1.48361177234110      1.31134809895544
  O   -2.63793855523060     -0.39740483656799      0.39263177161921
  N   -0.96080293955222      0.09542671654355     -1.62291903727042
  H   -1.08455847411712     -0.90518073922103     -1.68776434134161
  H   -0.32304803249612      0.43845351081898     -2.32452246983496
