16
Coordinates from ORCA-job run
  C   0.44138278201421     -0.48940389523696      0.41789600082587
  C   -0.61107498502973      0.41756785278268     -0.22607642309344
  F   0.05008518917296     -1.80691935993020      0.31627963695928
  H   -0.27670277107322      1.45937735829195     -0.11667952189258
  C   1.79502433500227     -0.34659296674173     -0.26835854326466
  H   2.52790987256547     -0.94619596589784      0.27218760176938
  H   2.12626903368944      0.69319476699070     -0.27413872857892
  H   1.74376116168959     -0.72229858564148     -1.29104264280177
  C   0.60179847476853     -0.12617507525277      1.83805199780701
  N   0.83731393064944      0.21752672010571      2.93555750488548
  N   -1.92587964161826      0.39148050095506      0.53211774490028
  O   -2.07543994504113     -0.38970964932060      1.46315897195898
  O   -2.76001284718686      1.18054554766044      0.09835545613549
  N   -0.94033433165873      0.00887488312674     -1.56073339871520
  H   -0.13318551802873     -0.29910172483293     -2.08061179639731
  H   -1.40091473991526      0.75982959294123     -2.05596386049789
