16
Coordinates from ORCA-job run
  C   0.50057381846863     -0.37786207632153      0.41306777621335
  C   -0.55064109770555      0.45931994857220     -0.33421547975119
  F   0.12293445298364     -1.71128102657239      0.27943645207313
  H   -0.29369206169963      1.51767141603480     -0.26480826857795
  C   1.87916087133130     -0.20240992172059     -0.19276383010645
  H   2.57810660276538     -0.86664351230747      0.31708604590915
  H   2.21912227680365      0.82806528661947     -0.07350892951963
  H   1.83364948149649     -0.44964058632366     -1.25186887936074
  C   0.53266341299001     -0.06253580553193      1.85050460488852
  N   0.63423459178360      0.17556141491487      2.99581934573912
  N   -1.87329062615687      0.34460241197669      0.43685549962949
  O   -2.04896118487573      1.15563973584118      1.34198273707581
  O   -2.64099240707372     -0.54906383302405      0.09398966434037
  N   -0.64257839844057      0.02491794777340     -1.67756017394912
  H   -1.00692140163489     -0.91913505345293     -1.71294104393476
  H   -1.24136833103576      0.63179365352195     -2.22107552066909
