16
Coordinates from ORCA-job run
  C   0.43393602206251     -0.39201625525332      0.40517389724756
  C   -0.62924693989781      0.48045339931038     -0.30379436974626
  F   0.04203036786478     -1.71880536929191      0.26991159107213
  H   -0.31209434435698      1.52352934984039     -0.27547410923314
  C   1.79406805721066     -0.23303101391612     -0.24655083448124
  H   2.50382932489362     -0.90737274531410      0.23380533393167
  H   1.72289674245998     -0.49597129906360     -1.30255583104188
  H   2.15561716497575      0.79202456177780     -0.14508721755185
  C   0.51782051202994     -0.08420250685145      1.84083562128716
  N   0.63551062924253      0.16738591282974      2.98204291455382
  N   -1.89106583998303      0.42808512873562      0.52763928444656
  O   -2.61718525851244     -0.54402473494622      0.35727829625488
  O   -2.06381197351856      1.34691875766461      1.32480949573336
  N   -0.94995573418714      0.08186560590015     -1.63047642152470
  H   -0.32610880178996      0.47644971541574     -2.31730979761770
  H   -1.01623992849385     -0.92228850683770     -1.72024785333037
