16
Coordinates from ORCA-job run
  C   0.50348317175744     -0.41227011669952      0.37346831213883
  C   -0.54240032335616      0.49585206631706     -0.29424690379645
  F   0.05528008728381     -1.72178224474310      0.22315791157635
  H   -0.22664497935021      1.53750572298240     -0.21602710884737
  C   1.85600574698904     -0.28340990254365     -0.29916647350455
  H   1.74407332055358     -0.49427308568157     -1.36123529596450
  H   2.25258390546356      0.72510839979312     -0.16759174695461
  H   2.54666538469175     -0.99648806476219      0.15283597384303
  C   0.62284227682054     -0.14460427765830      1.81594706161743
  N   0.77475695797453      0.02701046193225      2.96758596290283
  N   -1.82462099470129      0.43006207853770      0.54669212767228
  O   -2.65381879747406     -0.41728705849154      0.23038695758393
  O   -1.90982983410095      1.22987682204856      1.47462898121939
  N   -0.73011833828994      0.10042747942397     -1.63968015118100
  H   -1.32816226086060      0.74851972455424     -2.13421091010832
  H   -1.14109532340103     -0.82424800500942     -1.67554469819727
