16
Coordinates from ORCA-job run
  C   0.59773509968353     -0.50830992598408      0.01879964393584
  C   -0.56858788516099      0.19707650958605     -0.71583780652468
  F   1.05094691065980     -1.45120527696390     -0.90546005582140
  H   -0.14945351476027      0.62672094677668     -1.62705803369178
  C   1.75057856903939      0.39974671477581      0.38739939823802
  H   2.06130321016645      0.97109809679762     -0.48884019799423
  H   1.46861324249006      1.09304783946365      1.18031654622732
  H   2.58567286686280     -0.21132763593440      0.73297167989636
  C   0.09159383476341     -1.24673630585948      1.18583733628197
  N   -0.31729135357142     -1.83998936170650      2.11323749949636
  N   -1.00417631723865      1.35704409123430      0.12967413698849
  O   -1.80876225376393      1.10746732843330      1.02323452287511
  O   -0.49297769153316      2.44847271565289     -0.10860054279527
  N   -1.70872109871807     -0.60036570731613     -1.02427642413400
  H   -2.09106072044404     -1.03839659152249     -0.19464496555148
  H   -1.46741289847491     -1.30534343743330     -1.70775273742663
