16
Coordinates from ORCA-job run
  C   0.67982371060511     -0.54690212146248     -0.02909007553415
  C   -0.53209692162912      0.08754015054932     -0.73925163394240
  F   1.26836090964087     -1.37419407026191     -0.97327932681956
  H   -0.17252574138870      0.51512860461398     -1.67621643029622
  C   1.71836362219844      0.45330886381843      0.43946985422814
  H   2.59928431444432     -0.09730927469938      0.77141541202235
  H   1.34840951841934      1.05672262674639      1.26842942663274
  H   1.99530473402276      1.11021298373376     -0.38616597716870
  C   0.22310989669573     -1.39097872820677      1.08836571381891
  N   -0.13773616355816     -2.05303517259899      1.98853546690545
  N   -0.96066925162534      1.29354618147587      0.09782148034922
  O   -0.51830036973490      2.39190893810924     -0.22948393975607
  O   -1.69696234920798      1.05967901779418      1.05406833529978
  N   -1.55819660903302     -0.85470104983564     -0.96256989253013
  H   -2.25355587510484     -0.51376273127441     -1.61195033762853
  H   -2.00361342474451     -1.13816421850160     -0.09809807558082
