16
Coordinates from ORCA-job run
  C   0.58962590091817     -0.51692698040316      0.02492616024554
  C   -0.55418323078402      0.21084337182647     -0.72258154055851
  F   1.04280725101608     -1.46070759884323     -0.89875139480135
  H   -0.11436574205247      0.64197855343123     -1.62325110640413
  C   1.75046543747422      0.37061802040832      0.41716903634873
  H   2.57034878328548     -0.25590226199998      0.77128108409643
  H   2.08363123013705      0.94242371760394     -0.45036741182110
  H   1.46744014662153      1.06341126035126      1.20999263631143
  C   0.05467485357639     -1.25570734090357      1.17869074299405
  N   -0.37711628374870     -1.84817555139071      2.09619711824950
  N   -0.98653495937889      1.37033669087483      0.12561178862310
  O   -1.80962267059090      1.12543700108648      1.00354988986614
  O   -0.45475273264297      2.45575741295571     -0.09476072906769
  N   -1.70052058774836     -0.56705267706014     -1.05605735212110
  H   -1.45980896375586     -1.26673278867875     -1.74506008379778
  H   -2.10108843232674     -1.00960082925872     -0.23758883816325
