16
Coordinates from ORCA-job run
  C   0.77194282098689     -0.42971754748276     -0.07313796163774
  C   -0.64782099639207     -0.19444908188817     -0.62132999866559
  F   1.66126338338205     -0.17354381713467     -1.10706350363523
  H   -0.82833505541997     -0.89264761264547     -1.43942784691862
  C   1.15310365359966      0.42992242413310      1.11554958601140
  H   1.06586904556042      1.48523547877103      0.85821211381488
  H   2.18855421878706      0.21029991519722      1.37889927563368
  H   0.52149939732537      0.20334942663272      1.97505521720260
  C   0.86844561940492     -1.85872322449879      0.26994243195582
  N   0.96325041173376     -2.99610979628157      0.54509534484464
  N   -0.65130125152529      1.17806238656128     -1.29496587241709
  O   -0.82977521075698      2.14679381303703     -0.55699108504621
  O   -0.47548378166288      1.21021884725884     -2.50719701598241
  N   -1.61139376883374     -0.33265621716775      0.40741801634183
  H   -1.60878747072249      0.47766386068575      1.01451983973515
  H   -2.54103101546671     -0.46369885517780      0.03242145876289
