16
Coordinates from ORCA-job run
  C   0.46471195657058     -0.40799197081810      0.35733021190495
  C   -0.65021078623774      0.48323892159137     -0.24066327321852
  F   0.08945731869116     -1.73238440795124      0.16341144434166
  H   -0.34866158581867      1.52888658936919     -0.16973474308185
  C   1.78470983831354     -0.18302335464294     -0.35463572505368
  H   2.13501096635994      0.84052469917328     -0.20844689668884
  H   2.52997914793972     -0.87213157525472      0.04406499847177
  H   1.66126906695573     -0.38145558600799     -1.41983402427993
  C   0.61776946578342     -0.18214483464099      1.80227367223739
  N   0.76064255020810      0.02449853382764      2.94967126113843
  N   -1.86421785145208      0.36002731292397      0.65145896538893
  O   -2.01673216552141      1.23583587968576      1.49946016480491
  O   -2.57640025119794     -0.62049757262014      0.46974039330860
  N   -1.03738679116490      0.15493469838751     -1.56942222926918
  H   -0.45302165936052      0.59466259811225     -2.26370778432275
  H   -1.09491922006894     -0.84397993113486     -1.71096643568188
