16
Coordinates from ORCA-job run
  C   0.62176630833616     -0.49330429592604      0.08328587243609
  C   -0.58804674602232      0.17742863149765     -0.59958995368401
  F   0.96134107774406     -1.53390545546387     -0.79112250030196
  H   -0.21302261343957      0.76343360517196     -1.45285300251657
  C   1.86503772309147      0.35255740046890      0.25917516479367
  H   2.68165707575593     -0.31010422167919      0.55034271228883
  H   1.72463671947524      1.11628905409676      1.01852318570395
  H   2.11723640176852      0.82821490998312     -0.69045536359958
  C   0.19182867834574     -1.09577999647683      1.35492897576735
  N   -0.10881115966147     -1.53889311577515      2.39957035954628
  N   -1.21091489466667      1.21967363779407      0.30775921166556
  O   -2.43038834238340      1.22222719436281      0.41445710749725
  O   -0.44227628672785      2.03078678519961      0.81530004532840
  N   -1.56836546275153     -0.82264319138887     -0.88192531179893
  H   -1.18912847634258     -1.50230065588382     -1.52612452894319
  H   -2.41155000252174     -0.41368028598111     -1.26027197418314
