16
Coordinates from ORCA-job run
  C   0.65935920871724     -0.57382278538264     -0.02354806510157
  C   -0.51516217871474      0.11520198452344     -0.74573897085972
  F   1.22784323874988     -1.41646695559896     -0.96622329699094
  H   -0.12346230026117      0.53867349297167     -1.67160965420111
  C   1.73048174378870      0.37930722198171      0.46916898919457
  H   2.04396291181032      1.03315621235902     -0.34582732008116
  H   2.58450948092339     -0.20931962006013      0.80641457554974
  H   1.37408637051343      0.98860106990944      1.29979312632025
  C   0.14982772250594     -1.40646434636551      1.07952987183117
  N   -0.25752627586826     -2.05446080271045      1.96986841140503
  N   -0.91209643133646      1.32785610320158      0.09780105886233
  O   -0.41723289259948      2.41064167056693     -0.20567914926147
  O   -1.68205140791859      1.11507377410159      1.03226300765501
  N   -1.57298279331706     -0.78411239119941     -0.99689781543582
  H   -2.04566173874882     -1.05600375928742     -0.14303290201354
  H   -2.24189465824433     -0.40886086901085     -1.65528186687280
