16
Coordinates from ORCA-job run
  C   0.59321653501297     -0.51154497804770     -0.04739532120518
  C   -0.60583153136654      0.24571219270291     -0.66830861095408
  F   0.98519164837290     -1.39602154442863     -1.05401120618949
  H   -0.23479436107327      0.73102773253801     -1.57238587405259
  C   1.77341485337295      0.36457701646470      0.31170620858860
  H   1.54439849480168      1.00628712758102      1.16286668554118
  H   2.62112390696269     -0.27269542972267      0.56755235959148
  H   2.03845956498433      0.99011647950311     -0.54212365820372
  C   0.14737331509220     -1.32058777353178      1.09692316741984
  N   -0.21345368567316     -1.96933533150712      2.00697279227814
  N   -0.98268906921307      1.35116105869729      0.27333079194416
  O   -0.47567737597002      2.45292639833879      0.07709226124065
  O   -1.73792577388177      1.04849521197737      1.19324266482762
  N   -1.76914192408672     -0.52328357559291     -0.96199685449130
  H   -1.57394968864820     -1.18350717654851     -1.70250539555031
  H   -2.10771490868698     -1.01232740842388     -0.14196001078501
