16
Coordinates from ORCA-job run
  C   0.50890329187269     -0.40804576938712      0.37212744073785
  C   -0.55180067768514      0.48703245877612     -0.28963317769261
  F   0.08319045335573     -1.72404496221859      0.21046712447092
  H   -0.25671277246730      1.53377517387840     -0.19960629940672
  C   1.85985472437571     -0.25135069653388     -0.29774730798929
  H   2.56304787174144     -0.95334781016948      0.15218045803878
  H   2.23722971202956      0.76386227196967     -0.16125553292567
  H   1.75284780753160     -0.45935076020546     -1.36087028966822
  C   0.62320924816023     -0.14740847845563      1.81620890957964
  N   0.78820071570061      0.05529110907702      2.96095816330124
  N   -1.83512155267081      0.38771422370081      0.54682851991835
  O   -1.93902342018742      1.17625202503456      1.48246645535425
  O   -2.64558185925212     -0.47400441156546      0.22090777518513
  N   -0.72846990118456      0.10169863148588     -1.63950094659448
  H   -1.33705632925285      0.74375496419173     -2.12906876684107
  H   -1.12271731206736     -0.82982796957855     -1.68546252546809
