16
Coordinates from ORCA-job run
  C   0.65844067905515     -0.57459656884138     -0.01997863019599
  C   -0.52195319841010      0.10372324815996     -0.74270498071134
  F   1.21686113663826     -1.43427520664198     -0.95312566590641
  H   -0.13903744896683      0.51156365766166     -1.67918753642050
  C   1.73534665779397      0.38518031785107      0.44633267486275
  H   1.38764719818452      1.00838262073300      1.27033634995380
  H   2.04179894333500      1.02525223905909     -0.38217977445215
  H   2.59191904863161     -0.19910292616263      0.78465439334268
  C   0.15772038460339     -1.38767728564427      1.10167437768546
  N   -0.24363269159348     -2.02278056576867      2.00400368743209
  N   -0.90991001496864      1.33080025634704      0.08418001353057
  O   -1.66948824334352      1.13403899995521      1.03051870534485
  O   -0.41836834366608      2.40816493434562     -0.24314740368658
  N   -1.58306504273957     -0.79809087332025     -0.96925066829945
  H   -2.04609259361715     -1.05863827946383     -0.10691942609784
  H   -2.25918647093653     -0.43194456826963     -1.62520611638193
