16
Coordinates from ORCA-job run
  C   0.52671197011606     -0.34005019711535      0.41286343744035
  C   -0.57356016153537      0.42718453016664     -0.33867690327554
  F   0.16248627065811     -1.68379278586384      0.39867867662394
  H   -0.32942604636260      1.49052942285704     -0.36168173448629
  C   1.86986401048744     -0.19575290602132     -0.27524639586788
  H   1.77371939406099     -0.52070121598077     -1.30982813882935
  H   2.60294709407508     -0.81377526553526      0.24484897532224
  H   2.20170151730231      0.84395835957069     -0.24932789718536
  C   0.62755765435545      0.08260063543614      1.81926715255146
  N   0.78117826346270      0.40429104112588      2.93813877998467
  N   -1.85269660641693      0.35613691551121      0.50724953550623
  O   -2.62167887095050     -0.57169054406600      0.27519923282045
  O   -1.99580438888779      1.23266393204253      1.35544643989748
  N   -0.72834557694699     -0.10796156053641     -1.63891161660894
  H   -1.08034129897072     -1.05571303726760     -1.58440180963426
  H   -1.36331322444722      0.45007267567642     -2.19361773425921
