16
Coordinates from ORCA-job run
  C   0.57718215031185     -0.53074620415871      0.02512730499971
  C   -0.54540900971852      0.22794180538995     -0.72429558803664
  F   1.01311091492919     -1.47957186395737     -0.90158533999205
  H   -0.09025517768476      0.65252183706288     -1.62048347046871
  C   1.75653420162623      0.32714740005789      0.42846082160109
  H   2.10820594125181      0.89472043122433     -0.43454157669993
  H   2.55918001788468     -0.32047347225042      0.78406963328319
  H   1.48542752927499      1.02284597803399      1.22288726526902
  C   0.01918813542530     -1.26351534460692      1.17175263521287
  N   -0.43111997133170     -1.85148554206073      2.08327550989489
  N   -0.95474255201995      1.39257649930091      0.12777131955536
  O   -1.78830503428603      1.16242294482542      0.99982167074318
  O   -0.39637046417258      2.46636054985653     -0.08380329088672
  N   -1.70772392753811     -0.52110248503094     -1.06775613240961
  H   -2.12452096216124     -0.95602417012959     -0.25339441155937
  H   -1.48038179179115     -1.22361836355722     -1.75830635050630
