16
Coordinates from ORCA-job run
  C   0.46526959119118     -0.38664457746530      0.44401480569863
  C   -0.49809968254204      0.48620223468154     -0.37649514389791
  F   -0.10796318399152     -1.65290044038031      0.52546368532884
  H   -0.08769817299103      1.49248303053598     -0.47547162685769
  C   1.81486456806273     -0.51002790375822     -0.23565183481605
  H   2.30511834034749      0.46385227457096     -0.28931421789496
  H   1.66915216161251     -0.89837785410949     -1.24211535227153
  H   2.44191885889918     -1.19084603810490      0.34143520663671
  C   0.63086142874878      0.11985429380717      1.81615124306363
  N   0.83619954529889      0.49643546577402      2.90920476016570
  N   -1.77312684425840      0.68352549839437      0.45516020183333
  O   -2.68089745068652     -0.12329488152506      0.28036319835622
  O   -1.77444873363526      1.63214704419743      1.23495418594813
  N   -0.73517313404282     -0.11456794781274     -1.63530219870573
  H   -1.27598397005483      0.49184421486170     -2.23704313111628
  H   -1.22999332195836     -0.98968441366712     -1.51435378147102
