16
Coordinates from ORCA-job run
  C   0.49337019145342     -0.35734016389368      0.43842112138176
  C   -0.53152028174184      0.45351559585466     -0.37163246035690
  F   0.00233448950699     -1.65780739133722      0.52182344249379
  H   -0.18581853654100      1.48351338689947     -0.47426500003705
  C   1.84149199743418     -0.39283329344191     -0.25408153829227
  H   2.51591912296602     -1.03501332064233      0.31379047772397
  H   1.71108557430298     -0.78563145036465     -1.26089640476377
  H   2.26904652019400      0.61022826625904     -0.30684596667049
  C   0.63928391444169      0.15559121461340      1.81035970503608
  N   0.83042348208840      0.54398184071540      2.90186477425969
  N   -1.80783512621607      0.57075520678132      0.47373937201085
  O   -1.85953975934967      1.51627336848840      1.25555085504270
  O   -2.66609715967252     -0.29014486269863      0.30673025333905
  N   -0.74305807719750     -0.16120454209155     -1.62814223218241
  H   -1.32618015052498      0.41064272449098     -2.22419620151174
  H   -1.18290620114411     -1.06452657963270     -1.50222019747325
