16
Coordinates from ORCA-job run
  C   0.74145454150857     -0.37595083947841     -0.18121658976222
  C   -0.67540729229533     -0.01841213550050     -0.70054496582050
  F   1.63784518385703     -0.10591380080439     -1.20508689546919
  H   -0.78686068248184     -0.48614447228456     -1.67968605099774
  C   1.20105304014697      0.35934784361401      1.06139055153523
  H   0.51569335972875      0.20333526029865      1.89502871809511
  H   1.27384384617286      1.42588563464061      0.85385445412608
  H   2.18533155499589     -0.01593584602523      1.34444150933605
  C   0.72946593475659     -1.83264396410206      0.04724557491985
  N   0.67949611881233     -2.99032650794317      0.23919059715551
  N   -0.69547477241798      1.46403028144447     -0.95867627244631
  O   -0.94243425083119      2.17693851691746      0.01157755544250
  O   -0.44054415578203      1.84262844775628     -2.09662048632465
  N   -1.78093548298008     -0.34230416524959      0.13790119600964
  H   -1.95756493975339     -1.33664285089822      0.16009860127144
  H   -1.68496200343714      0.03210859761464      1.07110250292919
