16
Coordinates from ORCA-job run
  C   0.79453843630401     -0.37981781342202     -0.10466500861321
  C   -0.62450100870821     -0.14826979374799     -0.65676798443547
  F   1.69011645475148      0.04245331020670     -1.07673988139090
  H   -0.75291693552332     -0.74850698695405     -1.55821824894231
  C   1.10780270481852      0.34687619189980      1.18801101942453
  H   0.46999862955716     -0.01018949584938      1.99715279680415
  H   2.14699230863571      0.14539203158066      1.45114949788488
  H   0.97421159054121      1.42023835332293      1.05574902054709
  C   0.95723004310582     -1.83358506767397      0.06601714248330
  N   1.10526607973829     -2.99005317356231      0.20413413141979
  N   -0.68612865607947      1.29474896809579     -1.15778955086172
  O   -0.93147629147344      2.15487302874680     -0.31217961917073
  O   -0.48633439990880      1.48492281468012     -2.35171817571787
  N   -1.59965263184786     -0.45918654278732      0.32244756704603
  H   -2.51357795968978     -0.58858196677700     -0.09001749617278
  H   -1.65156836422132      0.27068614224123      1.02243478969521
