16
Coordinates from ORCA-job run
  C   0.66111553602153     -0.57053315470192     -0.03724862035280
  C   -0.53794560932498      0.10480154416388     -0.73208055383154
  F   1.20617018151421     -1.42055571530714     -0.98688805458593
  H   -0.17476979354656      0.52029994915779     -1.67305429098060
  C   1.74076409281642      0.39385925807101      0.41344606782675
  H   1.40513396141418      1.00908573860119      1.24836034382264
  H   2.60761555427499     -0.18653163868216      0.73157880969824
  H   2.02611990315483      1.04140223860799     -0.41668915714446
  C   0.18910038492266     -1.39294292223318      1.08993129157778
  N   -0.18835839271492     -2.03238500743456      1.99966445221613
  N   -0.91610461896258      1.32375513853436      0.11050587219399
  O   -1.65124372905726      1.11506042815541      1.07336715385456
  O   -0.43926774018792      2.40653289920127     -0.22040587848685
  N   -1.59745883675551     -0.80262499367827     -0.94310832022943
  H   -2.04077246211607     -1.07179780284730     -0.07313778508605
  H   -2.28909843145302     -0.43742595960839     -1.58324133049243
