16
Coordinates from ORCA-job run
  C   0.60785049794259     -0.49348526385699     -0.04239051573236
  C   -0.59464636121304      0.24765700963515     -0.67653574775622
  F   1.04807998524847     -1.34254174519161     -1.05993636959016
  H   -0.21196438517899      0.76849551745893     -1.55573631746851
  C   1.75595631512287      0.40259192870857      0.36714985088235
  H   2.03014961675800      1.04908724099088     -0.46810664727213
  H   2.61129236982671     -0.21874519581634      0.63622504217685
  H   1.48728757187024      1.02386049160300      1.22191988523324
  C   0.15428991212400     -1.34223104889857      1.06945402456273
  N   -0.21096945171479     -2.02137567321492      1.95519566956924
  N   -1.03052766281473      1.31511669674041      0.28343033882649
  O   -0.54413738450585      2.43377008236702      0.13621450860163
  O   -1.80946847445690      0.96809351702574      1.16688774378281
  N   -1.72536965293016     -0.54618185808156     -1.02552061505044
  H   -1.48939857403584     -1.17913582699512     -1.77767404237479
  H   -2.07542432204258     -1.06597587247460     -0.22957680839074
