16
Coordinates from ORCA-job run
  C   0.51663898686346     -0.35249225110727      0.41497726648855
  C   -0.56320334030937      0.44034479640483     -0.33907877994162
  F   0.11987028401334     -1.68696833710613      0.40302636813235
  H   -0.29390677382314      1.49761003963364     -0.36099057964813
  C   1.86393329081296     -0.24216762198704     -0.27169448400951
  H   2.21799627553160      0.79028207999992     -0.25168942675575
  H   2.58264035277601     -0.87267462960776      0.25324791145972
  H   1.76240845272926     -0.57099056425904     -1.30438750663764
  C   0.62743164583246      0.07204141598996      1.82019779726559
  N   0.79677303049478      0.39998346089630      2.93487179237902
  N   -1.84615391426371      0.39895052030027      0.50299737511309
  O   -2.63577529576168     -0.51093994278807      0.26874971731236
  O   -1.97119032099604      1.27796083247549      1.35117678505156
  N   -0.72704822098042     -0.09023809932560     -1.64050185368675
  H   -1.35070388472235      0.48088699950696     -2.19479301709005
  H   -1.09871056819715     -1.03058869902646     -1.58710936543278
