16
Coordinates from ORCA-job run
  C   0.46319488055714     -0.35394734909237      0.40676625886609
  C   -0.65451749942922      0.44764942611955     -0.30213761344350
  F   0.09204655433905     -1.69347532822641      0.38782301518692
  H   -0.35739334883425      1.49496696978130     -0.36631486139772
  C   1.78256585078349     -0.21965583310872     -0.32897323280960
  H   2.53160485885290     -0.84412087076703      0.15905775676526
  H   2.12686645341206      0.81623523849516     -0.32264139335126
  H   1.66041795169876     -0.56120711795310     -1.35744163305479
  C   0.61828418039572      0.05716568295938      1.81025015051657
  N   0.79120660150789      0.38996923803557      2.92321801354513
  N   -1.86774516565750      0.43479771214183      0.59928510532099
  O   -2.58089799012536     -0.56003940121118      0.54016919645070
  O   -2.01643705637841      1.40601705513835      1.33686683990541
  N   -1.03956738614886     -0.05042198650153     -1.57753515065148
  H   -0.45313889674797      0.29528683270126     -2.32145344502952
  H   -1.09648998822545     -1.05922026851206     -1.58793900681921
