16
Coordinates from ORCA-job run
  C   0.84654741710542     -0.26409384705077      0.00175863238462
  C   -0.45760096764689     -0.06514719266420     -0.79297119371824
  F   1.84068325408129      0.45075386575656     -0.65117457079100
  H   -0.32072012120944     -0.46552416815656     -1.79811497264711
  C   0.79478056080349      0.19085137299593      1.44644333413086
  H   0.07007882769338     -0.39652206166330      2.01083583927029
  H   0.53629006447896      1.24818475675595      1.49640497628754
  H   1.78066691733397      0.04236296243498      1.88874916520487
  C   1.18480390467867     -1.69520527445287     -0.07938767157589
  N   1.47226245807320     -2.83187936690414     -0.13814017367473
  N   -0.63042425052707      1.43804246375669     -1.01043089583908
  O   -1.15455789478879      2.06493637440696     -0.09002377627758
  O   -0.23696440503090      1.90170136916148     -2.07421308239587
  N   -1.54767968084996     -0.67910083959335     -0.12867440086718
  H   -2.33486729905007     -0.81235320541829     -0.74872735998804
  H   -1.84129878514525     -0.12700720936506      0.66766615049654
