16
Coordinates from ORCA-job run
  C   0.78389117464089     -0.41327464023863     -0.03009811026893
  C   -0.55455000642700     -0.09971825910880     -0.72456190239357
  F   1.79845501349976     -0.00426197804132     -0.88398616087607
  H   -0.60958687222617     -0.66763273223192     -1.65395898642406
  C   0.98350552298890      0.25912175432043      1.31325265124080
  H   0.91004743455745      1.34079681225952      1.20533006680670
  H   1.97822273600641      0.00332545964288      1.68017373881939
  H   0.24649475451006     -0.09345241555103      2.03497908888432
  C   0.86390029409890     -1.87766498893470      0.10527036242367
  N   0.94640869373154     -3.04371894295772      0.21350945799799
  N   -0.49707943602289      1.35837036576599     -1.18117583450006
  O   -0.15655365801196      1.57198306093907     -2.33866476589885
  O   -0.79888839277747      2.20504888836586     -0.34056821797725
  N   -1.64338542455846     -0.39112195319826      0.13330184606239
  H   -2.51107280922133     -0.47102020770252     -0.37899525925960
  H   -1.74180902478863      0.32321977667113      0.84419202536314
