16
Coordinates from ORCA-job run
  C   0.65905103829606     -0.48838955369233     -0.22979844313741
  C   -0.79662352259104     -0.06370665714506     -0.55384125077721
  F   1.35863419693794     -0.51405829985241     -1.42725171532014
  H   -1.13740071328561     -0.68491660952681     -1.38331376435520
  C   1.40904415151462      0.39732695030072      0.74455796455980
  H   2.39634731858397     -0.03246857733151      0.91831871915374
  H   0.88794817025292      0.46824169765006      1.69993648552596
  H   1.52433872883539      1.39577564839508      0.32503742112355
  C   0.56986633946691     -1.86793820162933      0.28283665100051
  N   0.45929650300456     -2.95745252184009      0.70732092347649
  N   -0.74222274863373      1.33811907282082     -1.09858728990864
  O   -0.73224446047886      2.24098549076484     -0.26475063277771
  O   -0.68561936031188      1.46900209133907     -2.31629835582183
  N   -1.74105760254671     -0.09325547178055      0.51257045086881
  H   -1.43648865216278      0.43357787690021      1.31854567213964
  H   -1.99286938688177     -1.03784293537269      0.76671716424964
