16
Coordinates from ORCA-job run
  C   0.82494123330468     -0.32235876539498      0.04842824830209
  C   -0.45659173875441     -0.13386887389223     -0.78520227540719
  F   1.87310442746768      0.22850423485479     -0.67488276513979
  H   -0.34347539654846     -0.67008394329842     -1.72814651591797
  C   0.79731405727772      0.31824665335711      1.42163070049969
  H   0.03465121908609     -0.14376060469441      2.04869374594220
  H   0.60721263712280      1.38722344362004      1.33239327440741
  H   1.76997788108816      0.16622252894263      1.89074034718722
  C   1.05658741423947     -1.77281219970049      0.15678658551038
  N   1.25575834891042     -2.92615880207843      0.24709870167851
  N   -0.51629325128975      1.33704556225029     -1.19652779308672
  O   -1.00428860628777      2.11342985464833     -0.37526013465791
  O   -0.07458959569745      1.63036460614422     -2.30120618442942
  N   -1.59229476217935     -0.57660979685372     -0.06394930757800
  H   -1.84717079241713      0.09246030238021      0.65228179679395
  H   -2.38484307532270     -0.72884420028494     -0.67287842410444
