16
Coordinates from ORCA-job run
  C   0.82947450578914      0.22509527412232      0.21808898882381
  C   -0.42895658510563      0.52659418221852     -0.61682356204166
  F   1.10959076120134      1.36125773728524      0.96445931033695
  H   -0.21240828800332      1.35876464798441     -1.28810615368037
  C   0.70875478398555     -0.95465298856649      1.16167319089551
  H   1.64037478143433     -1.04503169649241      1.72159739441726
  H   0.54785442019489     -1.87888119861505      0.60605034917594
  H   -0.11246776417248     -0.79169410185928      1.85889834462568
  C   1.93560529992660      0.01759979949382     -0.73212386680015
  N   2.82863012336005     -0.14815624242021     -1.47585750691075
  N   -1.48521324470350      1.08047427376245      0.33770927437115
  O   -2.14497283942926      0.24942054497188      0.96151166998330
  O   -1.59418765490513      2.29871670755249      0.41151015166377
  N   -0.84564517621870     -0.62519067325386     -1.32935566482471
  H   -1.47249101244482     -0.38837149814559     -2.08648223194024
  H   -1.30394211090904     -1.28394476803825     -0.71174968809547
