16
Coordinates from ORCA-job run
  C   0.75994780950760     -0.35237969384057     -0.15580665029158
  C   -0.59640532501885      0.09083580766807     -0.76251072214121
  F   1.75718794614331      0.05753804942850     -1.02827333589200
  H   -0.60372268243093     -0.22898093903807     -1.80556467023437
  C   1.07937615503065      0.18673461674404      1.22390497189300
  H   0.31049239071709     -0.08810762921356      1.94688434722722
  H   1.16386797608560      1.27203499465470      1.18706121576305
  H   2.03092254401884     -0.23397783029861      1.55146216022696
  C   0.73196019914429     -1.82658850287493     -0.14575897795295
  N   0.66545157333709     -2.99921376556224     -0.13386382868159
  N   -0.59748591109733      1.59510917428417     -0.80394751602473
  O   -0.94616452575293      2.16295920104508      0.22873466391127
  O   -0.22920061165930      2.13142533620309     -1.84308558094167
  N   -1.78276983319329     -0.33961501376375     -0.10061320959135
  H   -1.95442288489858     -1.32540328690615     -0.24001752659676
  H   -1.78903481993326     -0.10337051852977      0.88139465932672
