16
Coordinates from ORCA-job run
  C   0.82760583134355      0.14054968185045      0.14397920284738
  C   -0.40468010632174      0.51420969255866     -0.71964574820815
  F   1.47396676369849      1.32210835286376      0.47593851514085
  H   -0.05942234711106      1.19578801093694     -1.49828025438375
  C   0.53870458441241     -0.62224789515251      1.42112074252010
  H   1.48554354231581     -0.86030451474324      1.90746330476776
  H   0.00826844123652     -1.55319031368480      1.21799383005046
  H   -0.06086813513061     -0.00793087989394      2.09147853714866
  C   1.71445118606007     -0.63883102727145     -0.73938732528773
  N   2.38448407345640     -1.27416476097060     -1.46534401994442
  N   -1.32690760868354      1.32936351631775      0.14585482726419
  O   -2.09815515693433      0.69352015264906      0.86110919754476
  O   -1.22029961663132      2.54948456962334      0.09174298250505
  N   -1.15476098269742     -0.55556978444530     -1.28925269074750
  H   -0.65630664660486     -1.00172095321986     -2.04642304877141
  H   -1.45162382240838     -1.23206384741825     -0.60034805244625
