12
Coordinates from ORCA-job run
  C   0.70052215326248     -0.50878983724709      0.42030577931053
  C   -0.77949415897579     -0.54248230340622      0.06248867681176
  F   1.05099674379863     -1.86316674931602      0.52721962872830
  H   -0.91893287577678     -1.02272770397625     -0.90471712826196
  H   0.84624019951295     -0.08367219188446      1.41531972458521
  H   -1.35623483053243     -1.04292960003404      0.83742277866803
  N   1.47891181533188      0.15692814779885     -0.53823508024443
  H   1.03521498577011      0.37420371622737     -1.41506271205553
  H   2.06238028186890      0.89888273738796     -0.19662610025806
  N   -1.26935642179727      0.85347816707934     -0.04514080158784
  O   -1.43905921687250      1.45887653267228      1.01096067974924
  O   -1.41118867559017      1.32239908469828     -1.17393544544526
