12
Coordinates from ORCA-job run
  C   0.55248522909370     -0.47747567869801     -0.31855811792428
  C   -0.42289643916871      0.49609666214611      0.31562389447011
  F   0.26834125275569     -0.45652597342249     -1.68511140182651
  H   -0.27977034723054      1.50168512652117     -0.07882397757534
  H   0.34979701250319     -1.49302012469165      0.02304513367952
  H   -0.32832162301135      0.48051093512255      1.40187545270537
  N   1.90224848973504     -0.13672281667179     -0.08340272878481
  H   2.08564040025691      0.83293496929114      0.11630991367776
  H   2.40267200826720     -0.76059399467417      0.52449663746056
  N   -1.82745782084007      0.10608433627939      0.00109146456418
  O   -2.15448198089133     -1.03565639284432      0.31616249196834
  O   -2.54925618146973      0.94268295164207     -0.53170876241491
