12
Coordinates from ORCA-job run
  C   0.64692305879200     -0.67583934683230     -0.15306761626433
  C   -0.56236586750915     -0.27753545560653      0.68773854875823
  F   0.11250419770926     -1.35645052320855     -1.26024530514676
  H   -0.24528339824758      0.25854789648308      1.58174436170221
  H   1.21558925168186     -1.42494376952516      0.40538143865160
  H   -1.16351680132385     -1.14964797121813      0.93303225846241
  N   1.47798896361029      0.37754605556472     -0.54933279813059
  H   2.44630348324252      0.31315648428687     -0.29932990613795
  H   1.08678223488314      1.30287921104210     -0.53401531417565
  N   -1.45207243754586      0.64152225673560     -0.07720826300791
  O   -2.53714023192887      0.21111525550940     -0.45021862522181
  O   -1.02271245336376      1.77864990676890     -0.28347877948945
