12
Coordinates from ORCA-job run
  C   0.64997818730537     -0.64184697589311      0.10395959526578
  C   -0.54266956114127      0.00041910771239      0.79176864250950
  F   0.11326719931564     -1.50136203644104     -0.88022859608527
  H   -0.21417688626206      0.79161724291813      1.46595488446883
  H   1.15077282724366     -1.29836696337164      0.81991319924965
  H   -1.13292226552566     -0.74488895499881      1.31880334711854
  N   1.57818412040012      0.28754765763886     -0.40203496724997
  H   1.14339159765504      0.92024189851167     -1.05947771959882
  H   2.36615004185789     -0.17920133095258     -0.82880086412089
  N   -1.47069724740888      0.62508064824691     -0.19798315090136
  O   -0.98751562992281      1.43944130594443     -0.98352309346786
  O   -2.65176238351702      0.30031840068473     -0.14835127718814
