12
Coordinates from ORCA-job run
  C   0.54245323614194     -0.53081353028499     -0.25209703402717
  C   -0.41520232132433      0.54823202765594      0.21745183866835
  F   0.03851094317110     -0.97323388045414     -1.47496757500819
  H   -0.44809921195620      1.37477570458511     -0.49181901768627
  H   0.51246918217634     -1.38552296845315      0.42446791118708
  H   -0.14308559158290      0.89527207123359      1.21486274417765
  N   1.87110290970827     -0.07055965715388     -0.40193772022644
  H   2.50982680791442     -0.39363118103667      0.30397685286747
  H   1.97077318260055      0.91523530638969     -0.58505515699524
  N   -1.80190022482211      0.00782630523617      0.31505071110136
  O   -2.68730753823458      0.58439262391288     -0.30807733675301
  O   -1.94854137379248     -0.97397282163059      1.03914378269443
