12
Coordinates from ORCA-job run
  C   0.64136145190837     -0.71659594719658      0.00813122978994
  C   -0.83521546410880     -0.40900080559237     -0.20336011656257
  F   0.83898405886393     -1.91398252583784     -0.69688986024384
  H   -1.45932403874809     -1.20979930486054      0.18740480258253
  H   0.83927095542370     -0.95254611171458      1.05563493127568
  H   -1.03239021671299     -0.23492566606703     -1.25994368153921
  N   1.48184281998165      0.30634478230119     -0.45358310833575
  H   1.06039020540049      1.02775424195040     -1.01436855727754
  H   2.15727371296113      0.65611556130820      0.20124223303568
  N   -1.16778076283914      0.83392168016752      0.53493579509588
  O   -1.26600242636333      0.73767857607674      1.75624689418588
  O   -1.26041029576695      1.87503551946489     -0.11445056200667
