12
Coordinates from ORCA-job run
  C   0.68783602069243     -0.65881511346092     -0.01338950538115
  C   -0.61729335494838     -0.21619531818164      0.64823950299519
  F   0.29166114380572     -1.45553233196012     -1.09116395411301
  H   -1.20652604339842     -1.07727138076690      0.95534245241383
  H   1.20996619283260     -1.31929843578241      0.68482879449793
  H   -0.41368812507234      0.44866445282866      1.48769381716871
  N   1.56152615471386      0.35762751250520     -0.44681438027678
  H   2.38396433778647      0.47121047612249      0.11924639453802
  H   1.11035952903966      1.23085070650196     -0.66790701237141
  N   -1.46192913523632      0.54420258382244     -0.31522098777604
  O   -2.51955688125130      0.03939410232339     -0.67403646027571
  O   -1.02731983896397      1.63616274604786     -0.68681866141961
