12
Coordinates from ORCA-job run
  C   0.76537917956067     -0.31223434573767      0.30477243537938
  C   -0.74585172978011     -0.43563882553333      0.36913819193074
  F   1.24698950036420     -1.61008317267429      0.57567552217395
  H   -1.11807062052789     -1.09341721135607     -0.41484201007280
  H   1.13725216611880      0.32693583810492      1.10537343420346
  H   -1.05659005414495     -0.78994526697815      1.35089685461590
  N   1.17448658208030      0.19877956135899     -0.93991929197090
  H   2.16854438073043      0.37328111451406     -0.97697816792744
  H   0.89769104004570     -0.39660746746966     -1.70920650567402
  N   -1.34744936268956      0.90695524033037      0.16153769555706
  O   -1.10409963841524      1.74638712097389      1.02514745615742
  O   -2.01828144334237      1.08458741446694     -0.85059561437273
