12
Coordinates from ORCA-job run
  C   0.65896668961838     -0.66346784532556     -0.14653639578288
  C   -0.57459343882943     -0.30213204650710      0.67382965999716
  F   0.16198556242048     -1.33589647732210     -1.27961135759455
  H   -0.28597334774111      0.21295063479918      1.58942201713680
  H   1.22755248517336     -1.41502077328140      0.40894443211553
  H   -1.17011899646794     -1.18796776211975      0.88019491648499
  N   1.47155884789612      0.41528309294852     -0.49471912570320
  H   2.45459931534025      0.34233088889442     -0.31950146692720
  H   1.07644722523578      1.33771409237968     -0.47245451096860
  N   -1.45670343925868      0.62686923120303     -0.08807457949585
  O   -1.04189326738050      1.77748480075164     -0.24334962737392
  O   -2.52182763600669      0.19085216357943     -0.50914396188828
