12
Coordinates from ORCA-job run
  C   0.79018033242621     -0.43794918104820      0.33093647402770
  C   -0.72749212114846     -0.41067459549205      0.45603326007195
  F   1.13855357403425     -1.73183678158671      0.74815131981652
  H   -1.03626411864006     -0.59559097756658      1.48264418911200
  H   1.24812950185528      0.24037842653546      1.05368947040792
  H   -1.17097620277121     -1.13478864730904     -0.22552705666087
  N   1.23347482388558     -0.17343839578668     -0.97311343512281
  H   0.53658569119509     -0.16078945535824     -1.69904919065219
  H   1.91735892813448      0.55511639701451     -1.06884688366447
  N   -1.20811176847104      0.93790748306313      0.06820424220350
  O   -1.68664392653221      1.07046463539670     -1.05778426992211
  O   -1.03479471396791      1.83920109213770      0.88566188038288
