12
Coordinates from ORCA-job run
  C   0.71137944894054     -0.57861568026959      0.06028556014774
  C   -0.65016747941533     -0.26368823029272      0.65643206524163
  F   0.45715528400721     -1.19236101649944     -1.18564005971286
  H   -0.54168097861146      0.35018974733965      1.55071865441158
  H   1.18842669285212     -1.34851307943795      0.67192970774462
  H   -1.20068363915661     -1.17626203013588      0.87041900026341
  N   1.56254636437491      0.54016409710118     -0.02361046026302
  H   2.46240305969391      0.28349431946541     -0.40514334577036
  H   1.14433104179695      1.27802337499929     -0.57369002878952
  N   -1.49799387677172      0.50439326026562     -0.30383756692704
  O   -2.61165677762079      0.05894987318994     -0.55685872224735
  O   -1.02505914008972      1.54422536427450     -0.76100480409884
