14
Coordinates from ORCA-job run
  C   -0.27531894962016     -0.15885754658943     -0.33600844986340
  C   0.97594742994196     -0.66260239421970      0.37693530124711
  F   -0.18109074783755     -0.46301287959208     -1.65696001205675
  H   0.86128426361200     -0.53430996563049      1.45447365084869
  H   1.09055251687099     -1.73047297443452      0.16717724542029
  C   -0.58252557927122      1.30584731284399     -0.16399541576999
  H   -1.50569665875815      1.54109683319403     -0.69659139083372
  H   -0.69914641387107      1.55238757289092      0.89070534131878
  H   0.23008463474371      1.89417795221077     -0.59223790189286
  N   -1.44382994729219     -0.96374882880996      0.22831174907807
  O   -2.12723027887342     -1.60895691944057     -0.55254004556811
  O   -1.59778238506010     -0.87088715753895      1.44295397525128
  C   2.15777264359974      0.05334785150954     -0.09285844582301
  N   3.09697947181546      0.64699114360646     -0.46936560135637
