14
Coordinates from ORCA-job run
  C   -0.24588143279880      0.01302334012255     -0.34359557130762
  C   1.20939167819932      0.02658993343835      0.10468257161020
  F   -0.32434936159379     -0.52130628400869     -1.59015798856280
  H   1.76340056064862      0.69160942428534     -0.56356236879231
  H   1.27328555435903      0.41998404286140      1.12030402794797
  C   -0.91596339636799      1.36357264901947     -0.31836857241062
  H   -1.94945849602065      1.25621821144768     -0.65264277695450
  H   -0.39580114911208      2.03397351628943     -1.00443313297537
  H   -0.90268053678562      1.78127471150017      0.68737867100397
  N   -1.01125541030594     -0.91530730353877      0.59515899907828
  O   -1.63220961864811     -1.84591702137489      0.10585854058589
  O   -0.94047407601249     -0.61230720812072      1.78274561669190
  C   1.80006217289004     -1.30885920650382      0.05544402850903
  N   2.27093351154847     -2.38254880541750      0.02018795557597
