14
Coordinates from ORCA-job run
  C   -0.35684548084155     -0.02830072372350     -0.46363228127780
  C   1.10981148146934     -0.42506753671175     -0.52660343625386
  F   -0.86821352692180     -0.16064645954142     -1.73249374347236
  H   1.61075885493421      0.26758147742675     -1.20811573279377
  H   1.18952195912736     -1.43285898825565     -0.93492803674222
  C   -0.62492574562060      1.35314990276862      0.05841867408859
  H   -0.29884700879593      1.44543210884811      1.09486341856666
  H   -1.69022022655683      1.56635992251821      0.00159998609556
  H   -0.07842692067008      2.07047302737237     -0.55670679792601
  N   -1.12010760345575     -1.07122275943970      0.36136504209380
  O   -2.15126917308318     -0.69902276215852      0.91052833660365
  O   -0.67672106910109     -2.21572844145371      0.35113423728617
  C   1.73477385131306     -0.36734837788678      0.78989249228873
  N   2.21871060820283     -0.30280038976302      1.85667784144287
