18

C	-0.440387	0.022441	-1.464974
C	0.0	0.0	0.0
Br	0.025567	-1.719354	-2.28778
H	1.096159	0.0	0.0
N	-1.887784	0.130301	-1.588997
H	-2.159928	1.038284	-1.223444
H	-2.138452	0.109341	-2.573103
C	0.359426	1.071592	-2.230232
H	0.178166	0.977534	-3.303789
H	0.039671	2.070973	-1.916384
H	1.425908	0.952635	-2.006378
C	-0.529191	-1.143674	0.724136
N	-0.937296	-2.03035	1.37983
C	-0.368045	1.285366	0.755915
H	0.056575	1.213789	1.760117
H	0.098313	2.149467	0.280281
H	-1.446739	1.444727	0.851746
H	2.771771	0.0	0.0
