18

C	-0.277851	-0.070567	-1.516287
C	0.0	0.0	0.0
Br	-0.132538	1.938403	-2.266521
H	1.094898	0.0	0.0
N	0.709692	-0.871054	-2.05914
H	1.637534	-0.675938	-1.650376
H	0.71245	-0.912901	-3.068723
C	-1.679326	-0.450337	-1.947958
H	-1.880334	-1.470692	-1.607686
H	-2.4167	0.229568	-1.519483
H	-1.76796	-0.410676	-3.036459
C	-0.449011	-1.260388	0.577923
N	-0.826709	-2.256232	1.07881
C	-0.546783	1.176259	0.797425
H	-1.61674	1.335452	0.632227
H	-0.3839	0.987517	1.862129
H	-0.00662	2.080875	0.523883
H	2.776023	0.0	0.0
