18

C	-0.187192	0.002653	-1.506642
C	0.0	0.0	0.0
Br	-2.140247	0.390348	-2.029741
H	1.109739	0.0	0.0
N	0.618072	1.075991	-2.010047
H	0.732114	0.978926	-3.013337
H	1.54216	0.974561	-1.557499
C	0.135384	-1.352574	-2.110752
H	-0.538678	-2.135432	-1.760547
H	1.1634	-1.58628	-1.806193
H	0.082795	-1.301478	-3.201664
C	-0.510897	-1.194182	0.640951
N	-0.913288	-2.151211	1.194483
C	-0.449434	1.266922	0.717247
H	-0.007054	1.290594	1.71706
H	-1.53763	1.319458	0.800371
H	-0.091888	2.131131	0.157319
H	2.692756	0.0	0.0
