12

C	0.0	0.0	0.0
C	-0.359927	-0.021245	-1.56835
Br	1.957439	0.0	0.0
H	0.047725	-0.944034	-1.992117
H	-0.201573	0.937768	0.477011
H	-1.411734	-0.135984	-1.737705
C	-0.418398	-1.166006	0.776629
N	-0.676763	-2.13579	1.400734
N	-0.086004	1.274614	-2.125388
H	-0.716458	1.406213	-2.908511
H	0.86968	1.320406	-2.429157
Br	-2.423868	0.0	0.0
