12

C	0.0	0.0	0.0
C	-0.460325	-0.20906	-1.441266
Br	1.958718	0.0	0.0
H	-0.085063	0.638936	-2.029874
H	-0.337838	0.955481	0.401679
H	-1.552501	-0.159813	-1.407577
C	-0.398958	-1.099503	0.874193
N	-0.642533	-2.018326	1.563651
N	-0.011121	-1.502285	-1.932668
H	-0.74815	-1.960027	-2.44692
H	0.807536	-1.421994	-2.517251
Br	-3.675696	0.0	0.0
