12

C	0.0	0.0	0.0
C	-0.549123	-0.103093	-1.416653
Br	1.959366	0.0	0.0
H	-1.632547	0.014113	-1.296979
H	-0.313614	0.932264	0.472626
H	-0.166278	0.751224	-1.986854
C	-0.390231	-1.131748	0.837918
N	-0.59877	-2.041486	1.550114
N	-0.217804	-1.387443	-2.015474
H	-1.063273	-1.85342	-2.317307
H	0.406054	-1.286668	-2.80412
Br	-3.783084	0.0	0.0
