16
Coordinates from ORCA-job run
  C   0.60439321149672      0.17680877689589      0.44916741899378
  C   -0.64973790517917     -0.02288650711865     -0.42628225177895
  Cl  0.40884110810581     -0.75156570938420      1.97601116990502
  H   -0.53904214124425      0.60629065156315     -1.31292484827023
  C   0.79946742862822      1.58380251439426      0.79920611714498
  N   1.05185504760524      2.70141436714013      1.06026735157799
  C   1.83864684233189     -0.33665925102493     -0.28634871260699
  H   2.72186984095384     -0.19104687482795      0.33603481911463
  H   1.96494077680752      0.22151677556317     -1.21765774091819
  H   1.71117267354188     -1.39244958040317     -0.51550063782287
  N   -1.86328829705280      0.58172730817991      0.29723657441840
  O   -2.62994754155641     -0.19833169619366      0.85301021391412
  O   -1.96708715173427      1.80395980434778      0.25283440928033
  N   -0.82236367340913     -1.37869157231941     -0.78397958812943
  H   -1.10077989087895     -1.92685270103002      0.02080840224761
  H   -1.52794032841615     -1.47603630578230     -1.50188269707019
