16
Coordinates from ORCA-job run
  C   0.78936650345701     -0.33717664780971      0.25844918064413
  C   -0.72999707054776     -0.54465826378990      0.05877351404439
  Cl  1.67270220069873     -1.62255622740017     -0.62649630964885
  H   -1.00667642406260     -1.52599866237859      0.44514366257465
  C   1.03883013604401     -0.52481864410742      1.68902107530092
  N   1.25263841611441     -0.66564946932330      2.83553226671803
  C   1.31067736730921      1.02444906981360     -0.18531818985782
  H   0.81825997415872      1.81385091454803      0.38534182653511
  H   2.38160583909571      1.07498756994505      0.01273882825996
  H   1.13666409011816      1.17123949492431     -1.24991543435969
  N   -1.03947204668331     -0.62815887472465     -1.43334203183819
  O   -1.03554398388424      0.43724981386008     -2.04942432260849
  O   -1.29652158129408     -1.73336459332937     -1.89809955773934
  N   -1.45154135926157      0.48943712999455      0.71047087418147
  H   -2.41354105975707      0.22494046152545      0.87536879134374
  H   -1.42545100150531      1.34622692825204      0.17175582644997
