16
Coordinates from ORCA-job run
  C   0.81848242844098     -0.29397119015512      0.21643981882355
  C   -0.69437187939661     -0.58672811815809      0.08552926204717
  Cl  1.73063346564394     -1.51644274538748     -0.72624655138914
  H   -0.89583028297546     -1.58651915391206      0.47088584779516
  C   1.14666187690169     -0.48186363180844      1.63100203981552
  N   1.42473083097304     -0.62095971234120      2.76376578552064
  C   1.23910191205937      1.10033717316404     -0.23266261408249
  H   0.72898706197984      1.85335579434547      0.37071226298454
  H   2.31334817293802      1.21087521402161     -0.08324229987581
  H   1.00730749442619      1.24796150348236     -1.28597076740331
  N   -1.06857896920520     -0.67111620952440     -1.39127433186030
  O   -1.28399506353992     -1.78417822011415     -1.85855114660346
  O   -1.15467187075860      0.39939523073519     -1.99246324647377
  N   -1.44224779891326      0.39668310246306      0.78462528391383
  H   -1.49081044965359      1.25932063723148      0.25686663518137
  H   -2.37874692892041      0.07485032595773      0.98958402160651
