16
Coordinates from ORCA-job run
  C   0.56440366280629      0.28521769326534      0.37044576256892
  C   -0.73900656509896     -0.08478280575118     -0.39743650290728
  Cl  0.33851690141706     -0.01898460712902      2.12332736083245
  H   -0.56082061670563      0.14048256223832     -1.45132302496695
  C   0.90638965533509      1.69470243528368      0.18919017933315
  N   1.25161653616055      2.80622494168813      0.02384979478056
  C   1.71508345209177     -0.58412526816225     -0.12726040123921
  H   1.49757489891882     -1.63413875005786      0.06885591139580
  H   1.86137980777347     -0.43062030109809     -1.19969992139596
  H   2.63311737139126     -0.31592739803572      0.39558233656582
  N   -1.83058941264976      0.87287958014767      0.02206943507959
  O   -2.56227080788722      0.51524377403716      0.93728137155885
  O   -1.87166016433063      1.94460448473320     -0.57726025359923
  N   -1.22126650807237     -1.41085321531543     -0.25682922351255
  H   -0.71412410465468     -2.06874196099345     -0.82859955815597
  H   -1.26834410649505     -1.71118116485051      0.70680673366202
