16
Coordinates from ORCA-job run
  C   0.73426555160554     -0.19320176863063      0.42605268940078
  C   -0.65092955370495     -0.63530114318186     -0.09666599067657
  Cl  1.46703747253208     -1.63810531015580      1.19470557122078
  H   -0.52070354966160     -1.53331890403246     -0.70135689421479
  C   0.57418045897595      0.83449246002785      1.45498485787639
  N   0.44313123910843      1.67487577302434      2.26580185178729
  C   1.66374841954334      0.29727567413755     -0.67862181428480
  H   1.29624653853560      1.23389712294946     -1.10158920319306
  H   1.73080707991846     -0.45270973514675     -1.46824300842980
  H   2.65694344152520      0.46868371726112     -0.26344824263850
  N   -1.09773257636627      0.43175017164941     -1.10251159068849
  O   -1.58286797776605      1.45793865494575     -0.63121005342013
  O   -0.91847902352974      0.19027267065932     -2.29356628498651
  N   -1.57142662924790     -0.84384983156718      0.95076693790791
  H   -2.40602509593292     -1.31816410140881      0.63484993482160
  H   -1.81919579553516      0.02446454946870      1.41005123951790
