18

C	-0.492455	-0.041527	-1.407348
C	0.0	0.0	0.0
F	0.094074	-1.051919	-2.070473
H	1.094661	0.0	0.0
N	-2.010697	-0.286557	-1.503501
O	-2.700703	0.260208	-0.654207
O	-2.400949	-1.004488	-2.417253
N	-0.250401	1.201476	-2.26932
O	-1.22886	1.833732	-2.645997
O	0.918895	1.39669	-2.554499
C	-0.364051	-1.260519	0.755954
H	-0.186125	-2.13015	0.119574
H	-1.399011	-1.251435	1.101865
H	0.303768	-1.335822	1.614827
N	-0.371269	1.198601	0.703183
O	-0.347337	2.270125	0.072416
O	-0.520297	1.121069	1.932971
H	2.421277	0.0	0.0
