18

C	-0.415942	-0.014835	-1.437445
C	0.0	0.0	0.0
F	0.362283	0.698464	-2.245079
H	1.095563	0.0	0.0
N	-0.369936	-1.456283	-1.965463
O	-1.395579	-2.123128	-1.867447
O	0.711692	-1.826962	-2.399061
N	-1.867274	0.428	-1.702518
O	-2.672327	0.268354	-0.797157
O	-2.100679	0.84857	-2.829112
C	-0.353515	-1.208543	0.832167
H	0.061284	-1.039098	1.824567
H	0.147689	-2.088035	0.421423
H	-1.428147	-1.381626	0.900332
N	-0.389192	1.248356	0.592984
O	-0.573135	2.218115	-0.168256
O	-0.373477	1.336292	1.830777
H	2.410957	0.0	0.0
