18

C	-0.434983	0.020694	-1.429831
C	0.0	0.0	0.0
F	-0.36569	-1.218587	-1.957782
H	1.092174	0.0	0.0
N	-1.88255	0.463386	-1.699229
O	-2.091324	1.341489	-2.523419
O	-2.721733	-0.187175	-1.0862
N	0.44277	0.912706	-2.312428
O	0.92471	1.904587	-1.792021
O	0.587926	0.534375	-3.469188
C	-0.292758	-1.290946	0.7406
H	0.190031	-2.114589	0.213176
H	0.178829	-1.204727	1.718846
H	-1.361719	-1.485272	0.849797
N	-0.466883	1.153721	0.73168
O	-0.20219	1.19116	1.941625
O	-1.036154	2.07426	0.11881
H	2.434419	0.0	0.0
