18

C	-0.553678	0.02527	-1.385748
C	0.0	0.0	0.0
F	-1.895218	-0.02406	-1.465228
H	1.089029	0.0	0.0
N	-0.080505	1.182756	-2.256483
O	0.937437	1.766042	-1.925752
O	-0.751884	1.366538	-3.268021
N	-0.02888	-1.204668	-2.136376
O	1.114552	-1.125839	-2.568986
O	-0.78201	-2.169684	-2.1926
C	-0.332529	-1.276833	0.749162
H	0.095464	-1.182256	1.745825
H	0.154414	-2.124226	0.262559
H	-1.408549	-1.457945	0.818309
N	-0.44685	1.169929	0.7228
O	-0.947503	2.120991	0.091604
O	-0.218401	1.195882	1.941834
H	2.436477	0.0	0.0
