18

C	-0.442969	0.111949	-1.417869
C	0.0	0.0	0.0
F	-0.338544	-1.085563	-2.034015
H	1.115626	0.0	0.0
N	-1.906794	0.52983	-1.656676
O	-2.724468	-0.188249	-1.09335
O	-2.146822	1.461618	-2.409244
N	0.40842	1.084627	-2.239851
O	0.960807	1.992142	-1.638558
O	0.484961	0.83295	-3.437278
C	-0.262071	-1.342692	0.652555
H	-1.323446	-1.593962	0.700579
H	0.28542	-2.109596	0.102692
H	0.161895	-1.292775	1.655144
N	-0.465347	1.097739	0.799377
O	-1.059671	2.043902	0.2451
O	-0.184193	1.073734	2.007933
H	2.388617	0.0	0.0
