18

C	-0.212444	0.038756	-1.479327
C	0.0	0.0	0.0
F	-0.367419	-1.221497	-1.976788
H	1.112769	0.0	0.0
N	-1.446267	0.756957	-1.996591
O	-2.451781	0.63226	-1.300045
O	-1.394091	1.263277	-3.109179
N	1.054255	0.605902	-2.079854
O	2.03311	-0.212897	-1.872563
O	1.174042	1.849598	-2.035178
C	-0.41595	-1.249339	0.730673
H	0.008888	-2.112303	0.218636
H	-0.009822	-1.213112	1.741889
H	-1.503273	-1.350551	0.775715
N	-0.380684	1.229154	0.684764
O	-0.372845	1.20481	1.921869
O	-0.560282	2.245329	0.012479
H	2.388156	0.0	0.0
