18

C	-0.57898	0.014165	-1.375647
C	0.0	0.0	0.0
F	-1.921418	-0.03971	-1.429172
H	1.08872	0.0	0.0
N	-0.129263	1.166578	-2.265715
O	-0.829614	1.347031	-3.257827
O	0.892858	1.756588	-1.96088
N	-0.070366	-1.221959	-2.124359
O	1.052918	-1.137743	-2.602668
O	-0.812232	-2.196979	-2.133773
C	-0.301248	-1.280513	0.758002
H	-1.369645	-1.499287	0.818122
H	0.224127	-2.114335	0.28766
H	0.112902	-1.159298	1.757652
N	-0.447086	1.171904	0.721148
O	-0.208185	1.200689	1.937741
O	-0.954894	2.12139	0.092266
H	2.43105	0.0	0.0
