18

C	-0.438287	0.080676	-1.424081
C	0.0	0.0	0.0
F	0.298946	0.881377	-2.186892
H	1.115198	0.0	0.0
N	-0.372415	-1.309632	-2.075987
O	0.635655	-1.557423	-2.721653
O	-1.32272	-2.058759	-1.8744
N	-1.911053	0.491084	-1.636137
O	-2.693942	0.2522	-0.729496
O	-2.178532	0.969252	-2.732031
C	-0.307793	-1.261239	0.770773
H	-1.375229	-1.474127	0.840655
H	0.114467	-1.130335	1.76625
H	0.215558	-2.101483	0.307821
N	-0.38229	1.202172	0.680472
O	-0.622599	2.212646	-0.01249
O	-0.30778	1.218532	1.92042
H	2.380641	0.0	0.0
