18

C	-0.445702	0.274512	-1.401197
C	0.0	0.0	0.0
F	0.301092	1.179378	-2.045953
H	1.104709	0.0	0.0
N	-0.365703	-0.972357	-2.287483
O	-1.266399	-1.146357	-3.104172
O	0.65658	-1.635609	-2.178035
N	-1.910459	0.719214	-1.520775
O	-2.700087	0.059435	-0.855271
O	-2.173243	1.643081	-2.272676
C	-0.378477	-1.313338	0.651851
H	0.339872	-1.488479	1.455546
H	-1.387473	-1.285344	1.063836
H	-0.292311	-2.141098	-0.05015
N	-0.361189	1.115406	0.832453
O	-0.258044	0.959735	2.060379
O	-0.616612	2.209167	0.287945
H	2.387399	0.0	0.0
