18

C	-0.483149	-0.127735	-1.402705
C	0.0	0.0	0.0
F	-0.03181	-1.274386	-1.943838
H	1.113554	0.0	0.0
N	-2.023727	-0.178247	-1.530017
O	-2.475015	-0.848604	-2.45307
O	-2.664644	0.454502	-0.702123
N	-0.066656	0.973311	-2.383457
O	1.113343	0.951055	-2.690719
O	-0.937512	1.719782	-2.807364
C	-0.40174	-1.175732	0.859274
H	0.222334	-1.159058	1.752938
H	-1.451885	-1.132283	1.155795
H	-0.197476	-2.105195	0.325186
N	-0.325541	1.267694	0.590014
O	-0.183002	2.277487	-0.122058
O	-0.550022	1.305797	1.810636
H	2.39736	0.0	0.0
