17

C	0.0	0.0	0.0
C	-0.206435	0.17628	-1.522177
Br	2.060054	0.0	0.0
H	0.379213	-0.606953	-2.015124
H	0.271074	1.122296	-1.801181
C	-0.667437	1.066695	0.816399
H	-0.397605	0.983974	1.874288
H	-1.75876	0.848123	0.664555
H	-0.397694	2.062683	0.457275
N	-0.42471	-1.273734	0.414506
H	0.124868	-2.028016	0.0331
H	-0.545079	-1.355887	1.413626
C	-1.639364	0.126375	-2.033499
H	-1.598949	0.160384	-3.131713
H	-2.264909	0.922465	-1.641718
H	-2.157963	-0.759093	-1.677428
F	-3.324544	0.0	0.0
