17

C	0.0	0.0	0.0
C	-0.456565	0.216493	-1.443196
Br	1.983698	0.0	0.0
H	-0.039636	1.162697	-1.8067
H	-1.545123	0.312692	-1.324906
C	-0.419999	1.191381	0.855236
H	-0.027651	2.135742	0.466188
H	-0.071285	1.06437	1.885651
H	-1.515753	1.159498	0.809281
N	-0.552003	-1.240931	0.470784
H	-1.577006	-1.028789	0.350543
H	-0.378582	-1.302217	1.47077
C	-0.121211	-0.922077	-2.396655
H	-0.511584	-1.860923	-2.00301
H	0.958103	-1.032319	-2.534679
H	-0.575275	-0.740251	-3.377143
F	-2.923822	0.0	0.0
