17

C	0.0	0.0	0.0
C	-0.517488	-0.174121	-1.41278
Br	2.065132	0.0	0.0
H	-1.607233	-0.032329	-1.226621
H	-0.111398	0.625181	-2.0431
C	-0.527312	1.274492	0.605046
H	-0.157516	1.41461	1.62628
H	-1.625719	1.086767	0.56945
H	-0.244724	2.140549	0.002556
N	-0.367455	-1.104097	0.804634
H	-0.240541	-0.911133	1.788204
H	0.125209	-1.947463	0.548504
C	-0.272334	-1.544118	-2.026198
H	0.784207	-1.833223	-1.99689
H	-0.594467	-1.552956	-3.072403
H	-0.868792	-2.29071	-1.497183
F	-3.009055	0.0	0.0
