17

C	0.0	0.0	0.0
C	-0.202953	-0.127111	-1.545571
Br	1.978617	0.0	0.0
H	0.399477	0.668615	-1.998008
H	0.281441	-1.071499	-1.814582
C	-0.462201	1.345566	0.537619
H	-0.055762	2.182973	-0.037199
H	-0.16087	1.460196	1.584764
H	-1.557559	1.289442	0.46515
N	-0.601154	-1.118196	0.659113
H	-1.621656	-0.907466	0.470344
H	-0.47517	-0.994307	1.661467
C	-1.586223	-0.09221	-2.18962
H	-1.430512	-0.204432	-3.272939
H	-2.112146	0.839145	-1.993379
H	-2.243812	-0.869219	-1.815653
F	-2.992141	0.0	0.0
