17

C	0.0	0.0	0.0
C	-0.458889	0.108343	-1.454622
Br	1.983093	0.0	0.0
H	-1.550439	0.02413	-1.355699
H	-0.073206	-0.768779	-1.98395
C	-0.430912	1.208174	0.82426
H	-0.121518	1.074825	1.866182
H	-1.525948	1.18628	0.744501
H	-0.010738	2.148432	0.459309
N	-0.535292	-1.233931	0.512908
H	-1.560455	-1.038012	0.400018
H	-0.350777	-1.264129	1.5131
C	-0.094603	1.390189	-2.191182
H	-0.602948	2.253077	-1.754386
H	-0.417932	1.320326	-3.235255
H	0.982444	1.582476	-2.185619
F	-2.922449	0.0	0.0
