16

C	0.0	0.0	0.0
C	-0.268601	-0.074716	-1.560724
Cl	1.785791	0.0	0.0
H	0.394336	-0.870291	-1.89931
C	-0.401385	1.247976	0.674274
N	-0.656427	2.166408	1.362328
N	-0.598663	-1.167765	0.568582
H	-1.623123	-0.937738	0.467984
H	-0.382016	-1.186084	1.561546
N	0.319379	1.169511	-2.21391
O	-0.135493	2.256611	-1.870925
O	1.154781	0.999417	-3.102111
N	-1.573755	-0.236214	-2.06659
H	-1.714504	-1.215437	-2.271975
H	-2.28225	0.02678	-1.327267
F	-2.935067	0.0	0.0
