16

C	0.0	0.0	0.0
C	-0.409142	-0.300419	-1.507088
Cl	1.791059	0.0	0.0
H	0.502112	-0.499645	-2.075559
C	-0.411298	1.32581	0.490667
N	-0.613803	2.375017	0.975387
N	-0.47797	-0.963744	0.945396
H	-0.342625	-1.877624	0.522705
H	-1.500121	-0.769205	0.90998
N	-0.902636	0.976091	-2.222947
O	-0.214546	1.985919	-2.08704
O	-1.859014	0.870726	-2.983656
N	-1.299368	-1.385067	-1.592102
H	-1.515445	-1.568424	-2.562721
H	-2.143767	-1.052105	-1.070093
F	-2.704327	0.0	0.0
