16

C	0.0	0.0	0.0
C	-0.535759	-0.120888	-1.454008
Cl	1.792512	0.0	0.0
H	-1.624738	-0.197748	-1.284266
C	-0.365343	1.362461	0.462594
N	-0.570584	2.45602	0.842617
N	-0.532626	-1.057957	0.788724
H	-1.568526	-0.888306	0.658082
H	-0.288159	-0.897838	1.760809
N	-0.051404	-1.411755	-2.043237
O	-0.760944	-2.404708	-1.90028
O	1.02211	-1.39318	-2.64725
N	-0.198503	0.941205	-2.348375
H	-0.797309	1.730361	-2.146522
H	0.77189	1.212853	-2.251347
F	-2.761776	0.0	0.0
