16

C	0.0	0.0	0.0
C	-0.306406	0.285317	-1.547971
Cl	1.782628	0.0	0.0
H	0.563827	-0.035757	-2.122724
C	-0.425438	1.103998	0.872728
N	-0.621924	1.968681	1.64308
N	-0.570086	-1.210872	0.489104
H	-1.59264	-0.979997	0.489523
H	-0.436958	-1.916901	-0.228927
N	-0.242075	1.81406	-1.776518
O	0.830877	2.266015	-2.194903
O	-1.258093	2.475712	-1.580607
N	-1.476738	-0.330459	-1.992798
H	-2.268613	-0.134096	-1.309383
H	-1.673583	-0.079558	-2.952555
F	-2.904173	0.0	0.0
