17

C	-0.433731	0.036449	-1.463894
C	0.0	0.0	0.0
F	0.054407	1.169993	-2.08928
H	1.097095	0.0	0.0
C	0.035908	-1.141927	-2.218674
N	0.398776	-2.072028	-2.83637
C	-1.912323	0.081295	-1.573754
N	-3.085411	0.110052	-1.627495
C	-0.484474	-1.278234	0.674207
H	-0.087281	-2.167718	0.18012
H	-1.578617	-1.342407	0.701634
H	-0.115186	-1.28933	1.702256
C	-0.483419	1.250809	0.723095
H	-1.57466	1.272817	0.826854
H	-0.154296	2.152799	0.20494
H	-0.040383	1.266903	1.721788
Br	3.53407	0.0	0.0
