17

C	-0.433264	-0.000423	-1.463306
C	0.0	0.0	0.0
F	0.050965	-1.120787	-2.1156
H	1.097095	0.0	0.0
C	-1.912075	-0.037838	-1.575002
N	-3.085412	-0.068852	-1.622245
C	0.040429	1.19383	-2.191415
N	0.37922	2.136086	-2.804935
C	-0.484237	-1.267343	0.694337
H	-1.574646	-1.288507	0.801899
H	-0.036626	-1.308657	1.689656
H	-0.160243	-2.157108	0.152675
C	-0.482802	1.262479	0.705183
H	-0.105799	1.252284	1.730075
H	-1.576527	1.323544	0.741235
H	-0.091128	2.163896	0.227852
Br	3.52846	0.0	0.0
