17

C	-0.433129	0.008755	-1.463456
C	0.0	0.0	0.0
F	0.050323	-1.107752	-2.122489
H	1.097091	0.0	0.0
C	-1.911861	-0.026906	-1.574986
N	-3.085286	-0.058244	-1.619332
C	0.041614	1.207023	-2.184286
N	0.382818	2.150301	-2.794843
C	-0.484316	-1.272012	0.68531
H	-0.157973	-2.15806	0.139006
H	-1.575051	-1.29535	0.790236
H	-0.039086	-1.318924	1.681603
C	-0.48322	1.257915	0.712793
H	-0.091249	2.162372	0.241438
H	-1.576978	1.318453	0.748445
H	-0.107129	1.241341	1.737885
Br	3.531823	0.0	0.0
