17

C	0.222422	-0.159805	-0.047606
C	-0.117082	0.33123	-1.48115
F	1.291145	-1.073592	-0.133911
H	0.862847	0.428592	-1.97128
C	0.756614	0.975007	0.736617
N	1.210045	1.864268	1.35606
C	-0.93827	-0.819363	0.662611
H	-0.740981	-0.914152	1.733328
H	-1.868778	-0.275824	0.44507
H	-1.044101	-1.81044	0.219745
N	-0.824203	1.599954	-1.536396
H	-1.789583	1.393326	-1.219676
H	-0.389655	2.301485	-0.947864
N	-0.88374	-0.71721	-2.131994
H	-0.89633	-0.48052	-3.118995
H	-1.851074	-0.558928	-1.79388
F	-3.092046	0.335393	-0.873947
