16

C	0.0	0.0	0.0
C	-0.490167	0.33089	-1.429737
F	1.393511	0.0	0.0
H	0.389619	0.161806	-2.065802
H	-0.289617	-1.036025	0.208893
C	-0.513547	0.891619	1.100385
H	-0.11443	0.558433	2.063501
H	-1.606377	0.816752	1.112044
H	-0.207281	1.922116	0.916909
N	-0.852163	1.742711	-1.534001
H	-1.13051	1.873277	-2.502384
H	-1.719301	1.838105	-1.005895
N	-1.578954	-0.506137	-1.920383
H	-2.384911	-0.380897	-1.273254
H	-1.305017	-1.483622	-1.856235
H	-3.557474	0.0	0.0
