16

C	0.0	0.0	0.0
C	-0.535451	-0.010676	-1.424677
F	1.396453	0.0	0.0
H	-1.595389	-0.286409	-1.318943
H	-0.303093	-0.94848	0.459923
C	-0.507234	1.152459	0.826224
H	-1.604155	1.111786	0.796844
H	-0.160329	1.064256	1.86022
H	-0.135939	2.091826	0.409641
N	0.14403	-0.982765	-2.27938
H	1.136355	-0.925909	-2.075004
H	-0.167624	-1.910073	-2.014813
N	-0.369408	1.307252	-2.051286
H	-1.125339	1.892305	-1.705936
H	-0.556175	1.154142	-3.037317
H	-3.431327	0.0	0.0
