16

C	0.0	0.0	0.0
C	-0.355791	-0.073854	-1.497726
F	1.403559	0.0	0.0
H	-0.036893	0.900454	-1.908927
H	-0.315793	-0.927021	0.491107
C	-0.547234	1.207517	0.709045
H	-1.639235	1.124147	0.728611
H	-0.259623	2.119883	0.17844
H	-0.167838	1.259943	1.732983
N	-1.736518	-0.380897	-1.728201
H	-2.08328	0.109087	-2.542206
H	-2.420189	-0.213054	-0.953494
N	0.441608	-1.095872	-2.208387
H	1.349069	-1.191648	-1.767648
H	-0.081624	-1.954841	-2.083285
H	-3.711569	0.0	0.0
