16

C	0.0	0.0	0.0
C	-0.375314	-0.083921	-1.487068
F	1.406301	0.0	0.0
H	0.218046	-0.936574	-1.866021
H	-0.309018	-0.928603	0.491777
C	-0.532942	1.196283	0.739378
H	-1.625159	1.11642	0.772647
H	-0.251313	2.1129	0.222602
H	-0.140541	1.209466	1.760994
N	0.033616	1.170896	-2.128162
H	1.046126	1.215515	-2.157799
H	-0.325879	1.132265	-3.073691
N	-1.754801	-0.339362	-1.821537
H	-1.930932	-1.335146	-1.747711
H	-2.444916	0.054636	-1.14978
H	-3.775815	0.0	0.0
