14

C	-0.399752	-0.026605	-1.460398
C	0.0	0.0	0.0
Cl	-0.189915	-1.602684	-2.222104
H	1.101663	0.0	0.0
H	0.19049	0.707405	-2.00363
N	-1.837392	0.389866	-1.650212
O	-2.643731	0.068292	-0.782151
O	-2.098053	1.011008	-2.676725
C	-0.493004	-1.143034	0.77295
N	-0.881003	-2.018044	1.454017
N	-0.397579	1.300247	0.531807
H	0.3253	1.620287	1.162986
H	-1.276928	1.238493	1.027643
Cl	3.237672	0.0	0.0
