14

C	-0.52663	0.081086	-1.439565
C	0.0	0.0	0.0
Cl	0.22701	1.403998	-2.320571
H	1.094151	0.0	0.0
H	-1.606652	0.227728	-1.454914
N	-0.316996	-1.217791	-2.178446
O	0.815067	-1.506335	-2.534257
O	-1.332509	-1.900445	-2.323175
C	-0.524564	-1.221408	0.621021
N	-0.976978	-2.188907	1.110284
N	-0.383623	1.158441	0.794133
H	0.34265	1.856224	0.701952
H	-1.270381	1.550486	0.503828
Cl	3.258156	0.0	0.0
