19
Coordinates from ORCA-job run
  C   0.73966648962959      0.05316370611408     -0.40571945001198
  C   -0.63473057887283      0.19885412682272      0.26737997956217
  Cl  0.57628205482610     -0.90756289238194     -1.93135905817036
  H   -0.44921230104285      0.88302845089096      1.11063148181920
  C   1.74689259363859     -0.68995671259715      0.46558697665959
  H   1.45993137090081     -1.72649034151777      0.64155901559123
  H   1.83654848062552     -0.17797790282378      1.42981301889675
  H   2.72496730068316     -0.68737423079913     -0.02074847314320
  N   1.19391171455728      1.37225140436744     -0.81283635480114
  H   1.31652946495649      1.94325123068509      0.01789108461132
  H   2.09286660150082      1.29655074761896     -1.27656554846666
  C   -1.17103380723985     -1.11081391082222      0.83924178195069
  H   -0.55029384512707     -1.50336849561056      1.64650901516231
  H   -2.17356768484363     -0.95119350572394      1.24380670655437
  H   -1.24456499177955     -1.87047677831353      0.05708457412357
  C   -1.66790326266272      0.85190046972353     -0.64831101848146
  H   -2.00069847880802      0.14762286353785     -1.41356475123740
  H   -1.25467955490594      1.72850471696090     -1.14549324953056
  H   -2.54191156603591      1.15208705386850     -0.06390573108845
