19
Coordinates from ORCA-job run
  C   0.80812625955857      0.29591160253127     -0.33823638096794
  C   -0.71592927346083      0.38977685824997     -0.15908564481584
  Cl  1.14404678732041      0.58988264562296     -2.15566659567267
  H   -1.00370433303380      1.36920114908775     -0.56489404080278
  C   1.40350593741417     -1.06443942027969     -0.02912777889538
  H   1.21289326179476     -1.31883452433365      1.01540451865024
  H   2.48423204741343     -1.04061169834605     -0.18666432835888
  H   0.99006045332877     -1.83578517539543     -0.67670526475692
  N   1.45149877659420      1.29369982509762      0.44458633652123
  H   1.10352691297376      2.21672909631763      0.21135440054336
  H   2.45310840819345      1.28271329299011      0.29463266062104
  C   -1.10441388717615      0.35272547687700      1.32125539002456
  H   -2.18344425684200      0.50091310627578      1.41798758583133
  H   -0.59332978885408      1.12296324689589      1.89694306449092
  H   -0.86622845020992     -0.61726369321180      1.76569761716793
  C   -1.48825829092525     -0.68124175053253     -0.92500902285236
  H   -2.55922588889921     -0.47201802863611     -0.86417068001852
  H   -1.21106331534067     -0.71550169483053     -1.97850054361372
  H   -1.32540135984960     -1.66982031438018     -0.48780129309561
