19
Coordinates from ORCA-job run
  C   0.76402886617741     -0.00928307237630     -0.49555406712525
  C   -0.69872158238881     -0.37093682697093     -0.18337066622895
  Cl  1.07022791839152     -0.38775919584422     -2.24268220055135
  H   -0.82156949829091     -1.41351869424581     -0.50055851013399
  C   1.75885843004850     -0.85996705932818      0.28875150879597
  H   2.77229339289575     -0.67341889649898     -0.07278917576231
  H   1.54595576515827     -1.92608922327543      0.17939118053112
  H   1.72282815671008     -0.59704780633054      1.34855742982124
  N   0.96938972483228      1.42016253509876     -0.35309079315861
  H   1.92249067618645      1.65372700367632     -0.60971517987190
  H   0.84127631887859      1.67426157320897      0.62097088113954
  C   -1.69273096853770      0.49288349217002     -0.95579516390100
  H   -1.63862454895736      1.53153429570117     -0.62703480547132
  H   -1.49606819280380      0.47107054967095     -2.02737297354573
  H   -2.70873869593261      0.12573149117782     -0.78666992066022
  C   -1.00221183491634     -0.29809582377089      1.31640492927596
  H   -0.39768394190308     -0.98852200775586      1.90646779590465
  H   -2.05036565339926     -0.55733854991039      1.48454137867394
  H   -0.86063433214899      0.71360621560353      1.70954835226822
