19
Coordinates from ORCA-job run
  C   0.81531301246867     -0.02267483921276     -0.38936739848543
  C   -0.56848339480521      0.18172365387303      0.26722577371082
  Cl  0.61270608218656     -1.03985364836896     -1.87260179978675
  H   -0.35263270944731      0.83479423338348      1.12699241220726
  C   1.79001079153610     -0.74291098308879      0.52829232132732
  H   1.46879192441986     -1.76041383933678      0.74356279925755
  H   2.76583805871424     -0.77424772379650      0.04402880936963
  H   1.87994871793890     -0.19540165108479      1.47307269005456
  N   1.45697610754971      1.20141760266536     -0.83523036040471
  H   1.60895041233324      1.80539678403320     -0.03361672831303
  H   0.87236572105544      1.69216393509464     -1.50008261063668
  C   -1.19359802213958     -1.10485449366585      0.80419610651416
  H   -1.35489158711854     -1.82336439898352     -0.00241986184401
  H   -2.16394247318528     -0.88421161938503      1.25651269773832
  H   -0.57748777269895     -1.57845866184120      1.56977923372337
  C   -1.56506647595096      0.91374019217598     -0.62945835016005
  H   -1.82293852158871      0.30952280889328     -1.50145463720043
  H   -1.18752498010953      1.87751612069925     -0.97676418656038
  H   -2.48433489115866      1.11111652794596     -0.07266691051152
