12

C	0.0	0.0	0.0
C	-0.560085	-0.011848	-1.408514
Br	1.915943	0.0	0.0
H	-1.659743	0.019032	-1.290706
H	-0.366042	-0.823457	0.607641
H	-0.225742	0.877162	-1.946454
N	-0.422552	1.260697	0.716694
O	-0.564577	1.166282	1.928908
O	-0.527817	2.279899	0.045324
C	-0.163978	-1.215743	-2.125101
N	0.150127	-2.182203	-2.713797
Br	-3.626349	0.0	0.0
