12

C	0.0	0.0	0.0
C	-0.555451	0.094126	-1.406654
Br	1.92551	0.0	0.0
H	-1.655902	0.115038	-1.295122
H	-0.359473	-0.868559	0.546133
H	-0.219684	1.021843	-1.873108
N	-0.41146	1.204281	0.813331
O	-0.537361	1.020535	2.0167
O	-0.516081	2.271631	0.221644
C	-0.151402	-1.049377	-2.212163
N	0.169985	-1.965028	-2.8732
Br	-3.620905	0.0	0.0
