12

C	0.0	0.0	0.0
C	-0.5697	-0.00935	-1.405167
Br	1.915985	0.0	0.0
H	-1.654364	0.168732	-1.294879
H	-0.37096	-0.839291	0.582718
H	-0.451514	-1.020486	-1.805392
N	-0.410157	1.237049	0.766683
O	-0.611095	2.256477	0.120687
O	-0.449281	1.120224	1.985189
C	0.040728	0.934819	-2.332329
N	0.525132	1.652074	-3.12536
Br	-3.626565	0.0	0.0
