12

C	0.0	0.0	0.0
C	-0.538714	0.263325	-1.390835
Br	1.936924	0.0	0.0
H	-1.639548	0.308771	-1.28932
H	-0.352634	-0.933005	0.431988
H	-0.165227	1.222164	-1.753208
N	-0.412959	1.09119	0.952121
O	-0.543339	0.759421	2.122344
O	-0.524888	2.22095	0.49312
C	-0.175438	-0.81104	-2.304721
N	0.070486	-1.687021	-3.045874
Br	-3.577887	0.0	0.0
