12

C	0.0	0.0	0.0
C	-0.500831	0.124104	-1.427335
Br	1.914272	0.0	0.0
H	-1.59547	0.242564	-1.366562
H	-0.380152	-0.871614	0.525957
H	-0.051929	1.002458	-1.895267
N	-0.421032	1.206117	0.807256
O	-0.511715	2.271278	0.210237
O	-0.551752	1.029725	2.010359
C	-0.162263	-1.068348	-2.19482
N	0.125034	-2.018508	-2.821935
Br	-3.519262	0.0	0.0
