12

C	0.0	0.0	0.0
C	-0.259769	0.004558	-1.522337
Br	1.925244	0.0	0.0
H	0.326195	-0.833032	-1.911935
H	-0.418666	-0.823523	0.567297
H	0.218756	0.911867	-1.89642
N	-0.398519	1.277827	0.69272
O	-0.467572	2.291787	0.011532
O	-0.516183	1.20616	1.908523
C	-1.553601	-0.091464	-2.214199
N	-2.180516	-0.20412	-3.208007
Br	-3.224019	0.0	0.0
