12

C	0.0	0.0	0.0
C	-0.545856	0.083409	-1.411287
Br	1.925602	0.0	0.0
H	-1.646372	0.111191	-1.309667
H	-0.363831	-0.86338	0.551264
H	-0.199982	1.004155	-1.884086
N	-0.412083	1.211886	0.800789
O	-0.516421	2.27339	0.198604
O	-0.537645	1.040287	2.00598
C	-0.139576	-1.069796	-2.201937
N	0.185566	-1.992782	-2.850784
Br	-3.603031	0.0	0.0
