15

C	-0.444756	0.053936	-1.447467
C	0.0	0.0	0.0
Br	-2.422576	0.223724	-1.527666
H	1.093755	0.0	0.0
H	-0.35371	0.884232	0.52831
C	0.185664	1.293906	-2.079464
H	1.272812	1.197057	-1.98925
H	-0.139428	2.187974	-1.544332
H	-0.101495	1.37793	-3.128466
C	-0.099138	-1.118125	-2.248703
N	0.16757	-1.96964	-3.013144
N	-0.500553	-1.164528	0.762949
O	-0.591056	-2.243912	0.183654
O	-0.766714	-0.970441	1.94788
Br	3.413062	0.0	0.0
