15

C	0.0	0.0	0.0
C	-0.443581	-0.045191	-1.449444
Cl	1.884884	0.0	0.0
H	-1.541214	0.008612	-1.361978
H	-0.078318	0.875826	-1.933199
N	-0.366425	1.280671	0.526705
H	0.183421	2.023067	0.114298
H	-0.256945	1.299324	1.532575
N	-0.533352	-1.086542	0.726395
H	-0.399903	-0.921711	1.721025
H	-1.559539	-1.000932	0.544293
N	-0.05017	-1.270312	-2.12914
H	0.95516	-1.27949	-2.257298
H	-0.488466	-1.286867	-3.042272
H	-3.237531	0.0	0.0
