15

C	0.0	0.0	0.0
C	-0.440589	0.005373	-1.462995
Cl	1.791876	0.0	0.0
H	-0.010197	-0.878456	-1.949401
H	-1.532483	-0.104713	-1.398332
N	-0.509979	1.192748	0.619185
H	-0.310458	1.117176	1.612221
H	-1.53716	1.083993	0.512114
N	-0.458394	-1.174434	0.710675
H	-1.486391	-1.086726	0.661708
H	-0.194497	-2.001975	0.184209
N	-0.012986	1.22089	-2.169148
H	-0.715986	1.42906	-2.872471
H	-0.066282	1.965853	-1.478862
H	-3.091299	0.0	0.0
