17

C	-0.274045	0.061334	-1.494089
C	0.0	0.0	0.0
Br	-2.19412	0.351634	-1.937866
H	1.096769	0.0	0.0
N	0.504424	1.042643	-2.170041
H	1.464773	0.928304	-1.813443
H	0.171454	1.957584	-1.886051
N	0.10365	-1.30951	-2.08226
O	-0.670403	-2.244728	-1.897422
O	1.195672	-1.377814	-2.631918
C	-0.507828	-1.186626	0.805254
H	-1.593056	-1.299236	0.741116
H	-0.219633	-1.039473	1.849662
H	-0.03236	-2.104458	0.458183
C	-0.405961	1.262745	0.588199
N	-0.728217	2.284987	1.07359
H	2.631397	0.0	0.0
