17

C	-0.471471	0.031777	-1.438349
C	0.0	0.0	0.0
Br	0.08641	1.674041	-2.339517
H	1.095228	0.0	0.0
N	-0.011074	-1.066399	-2.180708
H	-0.401485	-1.071908	-3.113174
H	-0.221474	-1.935932	-1.71291
N	-2.052689	0.083922	-1.424072
O	-2.62805	1.134983	-1.174484
O	-2.606581	-1.00901	-1.581991
C	-0.340501	-1.309794	0.720337
H	-1.40103	-1.574907	0.688519
H	0.267906	-2.116582	0.302213
H	-0.029715	-1.206198	1.761859
C	-0.471606	1.138129	0.764652
N	-0.796323	2.029015	1.46158
H	2.592123	0.0	0.0
