17

C	-0.538848	-0.013869	-1.412399
C	0.0	0.0	0.0
Br	0.358275	-1.397347	-2.497386
H	1.092194	0.0	0.0
N	-1.935546	-0.235522	-1.502931
H	-2.239499	-0.104764	-2.461417
H	-2.40806	0.437239	-0.905553
N	-0.14184	1.305396	-2.13621
O	0.780831	1.96285	-1.676673
O	-0.792084	1.574773	-3.148007
C	-0.381663	-1.261175	0.779245
H	-1.460454	-1.394852	0.878898
H	0.078107	-1.195097	1.768245
H	0.046426	-2.129006	0.27563
C	-0.519367	1.177955	0.6723
N	-0.985172	2.113325	1.215866
H	2.625509	0.0	0.0
