17

C	-0.199311	-0.041194	-1.504344
C	0.0	0.0	0.0
Br	-0.133108	1.861837	-2.266109
H	1.098114	0.0	0.0
N	0.752519	-0.888138	-2.036191
H	0.784911	-0.887769	-3.043851
H	1.669048	-0.690412	-1.586862
N	-1.604209	-0.463347	-1.959077
O	-1.694304	-1.039471	-3.040516
O	-2.538429	-0.194736	-1.209876
C	-0.40443	-1.314002	0.674439
H	-1.486624	-1.405164	0.783618
H	-0.018363	-2.149709	0.090196
H	0.064817	-1.348169	1.661161
C	-0.551545	1.138271	0.69968
N	-0.943347	2.023549	1.367121
H	2.671303	0.0	0.0
