17

C	-0.523977	0.002427	-1.410512
C	0.0	0.0	0.0
Br	0.544364	-1.381544	-2.490594
H	1.092241	0.0	0.0
N	-1.907311	-0.199274	-1.551537
H	-2.183512	-1.060899	-1.101288
H	-2.168681	-0.21139	-2.530055
N	-0.190059	1.297204	-2.137107
O	0.675975	2.013027	-1.652954
O	-0.800371	1.500231	-3.186066
C	-0.386261	-1.265164	0.770609
H	0.182616	-1.266797	1.703643
H	-0.084243	-2.148161	0.204374
H	-1.452744	-1.317535	1.012374
C	-0.489707	1.169593	0.709432
N	-0.886824	2.076337	1.345692
H	2.608488	0.0	0.0
