12

C	-0.462951	-0.015666	-1.460845
C	0.0	0.0	0.0
Br	-2.445935	0.119275	-1.558471
H	1.095014	0.0	0.0
H	-0.334778	0.933672	0.460171
C	0.059861	1.143304	-2.183432
N	0.463491	2.069337	-2.784496
C	-0.094446	-1.252274	-2.147944
N	0.178667	-2.240391	-2.723011
C	-0.529382	-1.135343	0.739495
N	-0.968292	-2.043923	1.340163
Cl	3.204159	0.0	0.0
