12

C	-0.502257	-0.030426	-1.454186
C	0.0	0.0	0.0
Br	0.162308	-1.639246	-2.360816
H	1.093169	0.0	0.0
H	-0.329601	0.94387	0.449645
C	-1.965753	-0.062293	-1.522896
N	-3.141196	-0.077244	-1.548166
C	-0.02043	1.14348	-2.184698
N	0.344097	2.086635	-2.785573
C	-0.536889	-1.115153	0.767164
N	-0.98465	-2.003379	1.392753
Cl	3.236901	0.0	0.0
