12

C	-0.462359	0.007812	-1.460926
C	0.0	0.0	0.0
Br	-2.444252	-0.125494	-1.561987
H	1.095205	0.0	0.0
H	-0.334464	-0.93126	0.465543
C	-0.091056	1.240497	-2.153767
N	0.18687	2.225782	-2.730486
C	0.061477	-1.155737	-2.176109
N	0.469783	-2.086114	-2.766984
C	-0.528361	1.139887	0.733302
N	-0.959483	2.055205	1.32958
Cl	3.205048	0.0	0.0
