12

C	-0.50069	-0.014835	-1.456881
C	0.0	0.0	0.0
Br	0.242473	1.548655	-2.381323
H	1.093154	0.0	0.0
H	-0.338199	0.929174	0.467317
C	-0.080996	-1.220642	-2.172826
N	0.22883	-2.180433	-2.777586
C	-1.960458	0.098013	-1.522919
N	-3.132168	0.196316	-1.537093
C	-0.538249	-1.143316	0.726637
N	-0.987277	-2.060053	1.308037
Cl	3.236986	0.0	0.0
