12

C	-0.491669	0.027516	-1.459565
C	0.0	0.0	0.0
Br	0.245919	1.629543	-2.322991
H	1.093082	0.0	0.0
H	-0.336554	0.918556	0.489797
C	-0.052207	-1.148466	-2.212367
N	0.255869	-2.093605	-2.840015
C	-1.952088	0.124474	-1.537925
N	-3.125716	0.192154	-1.57084
C	-0.55417	-1.154172	0.696578
N	-1.036712	-2.071134	1.250766
Cl	3.232594	0.0	0.0
