12

C	-0.503356	-0.075717	-1.453053
C	0.0	0.0	0.0
Br	0.250076	-1.687304	-2.282544
H	1.093082	0.0	0.0
H	-0.33621	-0.898979	0.524282
C	-1.962699	-0.199354	-1.509818
N	-3.133831	-0.302768	-1.525676
C	-0.091815	1.086266	-2.241629
N	0.208026	2.009341	-2.904216
C	-0.539678	1.184475	0.655781
N	-0.995105	2.133558	1.176892
Cl	3.23507	0.0	0.0
