12

C	-0.496066	-0.025169	-1.456582
C	0.0	0.0	0.0
Br	0.192643	-1.617221	-2.376352
H	1.093151	0.0	0.0
H	-0.331441	0.941558	0.453462
C	-1.958846	-0.073447	-1.528764
N	-3.133463	-0.101478	-1.568151
C	-0.022669	1.157489	-2.177415
N	0.297075	2.12021	-2.76972
C	-0.538547	-1.11988	0.758554
N	-0.989175	-2.013916	1.373334
Cl	3.228594	0.0	0.0
