12

C	-0.463622	-0.004745	-1.460266
C	0.0	0.0	0.0
Br	-2.44574	0.128248	-1.559399
H	1.095131	0.0	0.0
H	-0.334325	0.930292	0.46734
C	0.060293	1.15966	-2.174036
N	0.466002	2.090443	-2.76628
C	-0.09439	-1.236467	-2.156283
N	0.178096	-2.221687	-2.736925
C	-0.529251	-1.141182	0.730507
N	-0.965653	-2.055859	1.323858
Cl	3.202639	0.0	0.0
