13
Coordinates from ORCA-job run
  C   -0.30509760786969     -0.14688501433780     -0.01049398970677
  C   0.96666335037039      0.14289086910842      0.33167473858517
  H   1.46585049619506     -0.42257875309338      1.11668018539862
  N   -0.92863771746004      0.48626854776733     -1.08865378775029
  H   -1.91331787201846      0.65314314925268     -0.93680039244992
  H   -0.42753935311265      1.33392270395533     -1.32910566557808
  C   -1.09371142419717     -1.23551724835156      0.64762865406795
  H   -2.02022728719652     -0.83839244140127      1.07696810777287
  H   -1.37318482183349     -2.00038118273360     -0.08223426245873
  H   -0.52286786106187     -1.70630584469776      1.44894516675892
  N   1.65606308158675      1.18672952384095     -0.37132072553967
  H   2.28342379390955      0.80498647971280     -1.06999380057458
  H   2.21058322268814      1.74211921097784      0.26670577147451
