13
Coordinates from ORCA-job run
  C   -0.31585260687194     -0.12064408013495      0.01617902608853
  C   1.00361118419502      0.04997854449842      0.23608952982355
  H   1.53307991662310     -0.60255853376711      0.92817192713530
  N   -1.03998104821014      0.77154488511726     -0.77870423648559
  H   -1.76555383618400      0.32363589229126     -1.32033198467341
  H   -0.40656063622466      1.31198924265955     -1.35674701600597
  C   -1.11900000368828     -1.18753409134994      0.69203921860262
  H   -0.48855308810823     -1.81491485703659      1.32332176953713
  H   -1.60935534275539     -1.83109733265091     -0.04676968016331
  H   -1.90388253535136     -0.74225300002393      1.30969261797997
  N   1.68896560849732      1.11692814262617     -0.43528957336930
  H   2.60280034387790      0.81550029251663     -0.74670510326865
  H   1.82128204420067      1.91142489525416      0.18005350479913
