13
Coordinates from ORCA-job run
  C   -0.30327828806459     -0.15045171040878     -0.00438999277077
  C   0.97289425749853      0.15175873314224      0.30933299906333
  H   1.49914076960310     -0.41574054101392      1.07491402127369
  N   -0.96185478325251      0.48835325975396     -1.05836752863894
  H   -1.94463768333958      0.63932886855784     -0.87974020575818
  H   -0.47886801788282      1.34671683239859     -1.29811095632148
  C   -1.06036653237127     -1.25870387988401      0.65805479400906
  H   -0.46372522738693     -1.73173354337170      1.43900994285667
  H   -1.98162564467086     -0.88066828016014      1.11506066261857
  H   -1.34676676886410     -2.01778800753235     -0.07515562336773
  N   1.63048403344898      1.21409768512004     -0.39646917568450
  H   2.19572773093566      1.76679642008753      0.23439915738254
  H   2.24287615434640      0.85003416331072     -1.11753809466224
