13
Coordinates from ORCA-job run
  C   -0.37155210241963      0.11275272408431     -0.23217012693010
  C   0.86911894759424      0.62196297524741     -0.36910969785632
  H   1.04786962232929      1.38254854639707     -1.12725864748712
  N   -1.47630457731099      0.60208313247799     -0.98342852313277
  H   -1.17873117493876      1.25286258663295     -1.69949804732713
  H   -1.98149840746552     -0.15578858054376     -1.42776875057092
  C   -0.75701320837892     -0.94481872291321      0.75857171570696
  H   -0.89306958374369     -1.92017904799216      0.27719180146158
  H   -0.01561130939096     -1.07144046733495      1.54971814304644
  H   -1.70546773781035     -0.67084977634526      1.22717871275603
  N   2.04604716126594      0.21843972929942      0.30356127522412
  H   2.55520434125127      1.00947475896788      0.67491192819010
  H   1.86100802901809     -0.43704785797770      1.04910021691913
