13
Coordinates from ORCA-job run
  C   -0.30815884992696     -0.14067222881309      0.00099620450408
  C   0.98638273602451      0.11183588024634      0.28169913047386
  H   1.51705826028113     -0.49282599226969      1.01509004708474
  N   -0.97714937703487      0.54516489620725     -1.01589633969005
  H   -1.94835410268884      0.72422539709462     -0.80344082570318
  H   -0.47260986810737      1.39194698582967     -1.25209894636947
  C   -1.08175358570316     -1.23816289407038      0.66212307910980
  H   -1.97251901768650     -0.83972226805156      1.16034125124673
  H   -1.42037034779845     -1.96779259456870     -0.07870138217525
  H   -0.47607403187538     -1.75204918335962      1.40956851177809
  N   1.65771111557739      1.16853262240537     -0.41979888942560
  H   2.25867417997488      1.68816913850112      0.20616166045839
  H   2.23716288896362      0.80135024084867     -1.16604350129214
