13
Coordinates from ORCA-job run
  C   -0.22372798236186     -0.15299330693834      0.01284643571687
  C   1.03226171656537      0.10998893532716      0.42599857650828
  H   1.43732573968434     -0.41789460884395      1.28385223861401
  N   -0.77688944538472      0.48165515863868     -1.12719567442370
  H   -1.78206215575547      0.38743342410089     -1.15844320538363
  H   -0.53299813853248      1.46350185988016     -1.16466616982856
  C   -1.06615209821722     -1.22715566261187      0.62703094499964
  H   -2.02017824778192     -0.82418608664940      0.98578441461231
  H   -1.29453623544187     -2.00853237580552     -0.10557725186662
  H   -0.55228098282174     -1.69418379568701      1.46818779585188
  N   1.94233890472872      0.94333772504842     -0.26677575577080
  H   2.19873825590049      1.78796690529921      0.22463060327194
  H   1.63816066941835      1.15106182824159     -1.20667295230163
