13
Coordinates from ORCA-job run
  C   -0.41694166393081      0.16716615219212     -0.13073885998541
  C   0.80194941798070      0.71538406112727      0.04733014812061
  H   0.92198540437971      1.79420397847563     -0.09320830539396
  N   -1.51166755486328      0.91249859048868     -0.60058974487011
  H   -1.36954001406429      1.91123717520824     -0.53387467920302
  H   -2.38020330100916      0.64848019067290     -0.15707361990017
  C   -0.69400657717062     -1.29402356275060      0.03787737232017
  H   0.20574149295704     -1.80452449461685      0.37316390561688
  H   -1.49241247984972     -1.45140885307717      0.77200333974779
  H   -1.03197038238069     -1.72394341212016     -0.90919146813056
  N   1.94288951202333     -0.08549898169928      0.37986689662302
  H   2.41141078134145      0.29261033645251      1.19363488071756
  H   2.61276536458634     -0.08318118035330     -0.38019986566278
