13
Coordinates from ORCA-job run
  C   -0.41100103080321      0.13902633298177     -0.17540671121989
  C   0.80292255786666      0.71353601446370     -0.05523874450464
  H   0.95563774930231      1.71758392215428     -0.46337153891133
  N   -1.51518569260649      0.82731476871667     -0.70549064283860
  H   -2.10624810870287      0.23691620349924     -1.27357570488390
  H   -1.25601476362838      1.66263821733056     -1.21254544997451
  C   -0.72786477861837     -1.22894926235792      0.34241125553013
  H   -1.50574604750221     -1.17004811634759      1.10886102232911
  H   0.16775566487689     -1.68170946221847      0.76132174511446
  H   -1.11024444577509     -1.86574435721314     -0.46347821009130
  N   1.87974181825693      0.05580708565589      0.62425938277052
  H   2.12111216628037      0.55288312216892      1.47344292969658
  H   2.70613491105346      0.04174553116608      0.03981066698337
