13
Coordinates from ORCA-job run
  C   -0.30885617546410     -0.13916450769074      0.00549209407974
  C   1.00692109252069      0.06842800173886      0.21519756712738
  H   1.59199056819238     -0.65093200205096      0.78561362568242
  N   -1.10329679101210      0.82240518127134     -0.62439519685559
  H   -1.82248651299060      0.42231396983367     -1.21015231270875
  H   -0.51764674685551      1.47869438187795     -1.12804334245961
  C   -1.03383488398267     -1.33929761586475      0.52902907827960
  H   -1.51902010112952     -1.88651380365668     -0.28677129532152
  H   -1.81626635757671     -1.03753444952957      1.23084453645306
  H   -0.35074910829025     -2.02168620534817      1.03629853168820
  N   1.61435835432999      1.26184304242333     -0.30038728448048
  H   1.72814606876111      1.95827655578745      0.42718731346770
  H   2.53074059349729      1.06216745120825     -0.67891331495216
