13
Coordinates from ORCA-job run
  C   -0.40104085359674      0.17020853644418     -0.13446288556503
  C   0.77306467389571      0.82749708030406     -0.04517046038378
  H   0.79583565581927      1.90043286389011     -0.23156168638431
  N   -1.57645363287463      0.79691974628419     -0.62727742652967
  H   -2.36048792640495      0.66915980061685      0.00144452318466
  H   -1.43659101313369      1.78572594708820     -0.79190283831008
  C   -0.57007876996701     -1.30073103059188      0.10539407770410
  H   -1.51630339426442     -1.49271353035022      0.62183169080079
  H   -0.60190807238018     -1.85444906979363     -0.83773856688371
  H   0.22604406990815     -1.71448405446209      0.72745603058497
  N   2.05708708082789      0.25368367844984      0.10397497787915
  H   2.02050489475387     -0.74139259449972      0.27081388577893
  H   2.59132728741673      0.70014262662011      0.83719867812399
