13
Coordinates from ORCA-job run
  C   -0.41130184619472      0.10168289099475     -0.19842852690016
  C   0.80946351419331      0.67375663274778     -0.21935794252416
  H   0.96782729449906      1.55988839735383     -0.84198466973767
  N   -1.51520774684484      0.66972886436238     -0.85670578521973
  H   -2.11965700387451     -0.02474082879770     -1.27270098730793
  H   -1.25393850707103      1.36719034817237     -1.54036168119961
  C   -0.73671660823086     -1.11286649631734      0.61347330170869
  H   -1.50664239375063     -0.87476377185271      1.35273346746324
  H   -1.13296759551130     -1.90874086064537     -0.02741499766153
  H   0.15822270790847     -1.47175884480940      1.11635280335845
  N   1.88782407313790      0.16830820537915      0.57798969245629
  H   2.14576839048576      0.83853617928264      1.29270386384788
  H   2.70632572125341      0.01377928412963      0.00270146171626
