13
Coordinates from ORCA-job run
  C   -0.24633716781432     -0.12394173769186      0.02538193966539
  C   1.00988557615376      0.15751375488439      0.41762887711167
  H   1.44217065788867     -0.29842347772747      1.30175719292582
  N   -0.70613994805106      0.45598141801159     -1.19300236601369
  H   -1.66424921712084      0.20665436656312     -1.39204809039695
  H   -0.12176672175805      0.17890539030621     -1.97416913325250
  C   -1.19509861015501     -0.97134395283167      0.81264596721978
  H   -1.52673297226781     -1.84113763750404      0.23379724264317
  H   -2.09120047905004     -0.40647765973743      1.09506360446647
  H   -0.72771096711402     -1.33078035673226      1.73155751428921
  N   1.87295783399179      0.94487728286510     -0.37265260371109
  H   1.34304363801895      1.66133093704169     -0.85714600963305
  H   2.61017837727800      1.36684167255263      0.17218586468578
