13
Coordinates from ORCA-job run
  C   -0.26015411062592     -0.11969557397852      0.07857791252438
  C   1.05972701168693      0.08081454664615      0.27714810677596
  H   1.56692739751313     -0.50229441368579      1.03996910491965
  N   -1.06867966329671      0.67043574722272     -0.76438403203873
  H   -1.65681820999679      0.12502524397010     -1.37944934073922
  H   -0.55460391548820      1.36270012212303     -1.28836943349997
  C   -1.01972018253227     -1.17326853419580      0.82491275070547
  H   -1.85427222554913     -0.72413013804698      1.37010267216938
  H   -0.37340663151025     -1.69980164536026      1.52853504149342
  H   -1.43973543509263     -1.91853709042551      0.13912335093988
  N   1.90767150148201      0.93576963178977     -0.47737649244238
  H   1.50924650176304      1.19084783701945     -1.36980690430333
  H   2.18181796164677      1.77213426692164      0.02101726349548
