13
Coordinates from ORCA-job run
  C   -0.36043385935855      0.02481720022352     -0.29779257862775
  C   0.90645129300521      0.48621483310203     -0.31486748920459
  H   1.23840723594612      1.09030389687959     -1.16510285409827
  N   -1.23452539812777      0.19751420602326     -1.38412295420244
  H   -2.18519117859780      0.37827599926682     -1.09396874687720
  H   -0.92257776641109      0.90344367151760     -2.03706936017625
  C   -0.91744691129452     -0.80689889987276      0.81493857789617
  H   -1.81427937319645     -0.33675231715722      1.23429673078806
  H   -1.21042622061045     -1.79091724804070      0.43836206876059
  H   -0.17312232899982     -0.91976480416773      1.59968916398085
  N   1.83264102422661      0.17211113523295      0.73285610787546
  H   2.57977391644174     -0.41568726799986      0.38248362464669
  H   2.25872956697678      1.01833959499250      1.08929770923868
