13
Coordinates from ORCA-job run
  C   -0.26423596452521     -0.13014820940543      0.04545144720705
  C   1.01585529364739      0.11183108440522      0.39848105780664
  H   1.45391722465783     -0.46756614819096      1.20559190255365
  N   -1.00112312170011      0.64787621920177     -0.87188721147808
  H   -0.46144651739669      1.37775373331120     -1.31257095185027
  H   -1.48158390231643      0.09414633521845     -1.56795439968500
  C   -1.06244842538359     -1.22918591624181      0.67729684719264
  H   -1.97121483170558     -0.82470197426244      1.13116028846851
  H   -1.37171867843642     -1.97217339097613     -0.06740528186595
  H   -0.48112754268115     -1.74901303934108      1.44018046086902
  N   1.91160546119239      1.01290317678662     -0.23653815762026
  H   1.59841126378871      1.29178115224048     -1.15533392853999
  H   2.11510974085887      1.83549697725411      0.31552792694203
