13
Coordinates from ORCA-job run
  C   -0.30144299193536     -0.19247547570386      0.04074422824159
  C   1.00592830216616      0.07539516879946      0.22864368989138
  H   1.63861119127724     -0.64255656268078      0.74344145293274
  N   -1.18767468233574      0.70868148728471     -0.65270788594777
  H   -1.37279887373228      1.54566159738407     -0.11183800586262
  H   -0.81105239444848      0.98649904461249     -1.55142919267825
  C   -0.94808470860515     -1.44833565667097      0.54140590635744
  H   -1.40692603686274     -1.99798210319081     -0.28568222780253
  H   -1.75015241722706     -1.21456024416857      1.24924876713494
  H   -0.22894751909414     -2.10091588444098      1.04343172462298
  N   1.64600124469606      1.27979499835270     -0.09342092691101
  H   1.12027879390948      1.84198391184057     -0.74600125114165
  H   2.59726009219201      1.15880971858197     -0.40583627883724
