13
Coordinates from ORCA-job run
  C   -0.29703222499731      0.12291132382598     -0.30218810119943
  C   0.95976492433638      0.60489329317570     -0.32239003672168
  H   1.22046570277954      1.26888321477965     -1.14093793093683
  N   -1.16007146563086      0.52956303276186     -1.38063047377545
  H   -1.54413414104737     -0.28607574597938     -1.84562122064225
  H   -1.94777099401937      1.05681850115760     -1.01852852006884
  C   -0.85644907586094     -0.77725489434403      0.76452191792948
  H   -0.14180796250183     -1.00756788016520      1.55868508058647
  H   -1.19811399929941     -1.72728903322560      0.33695896978542
  H   -1.72678343586655     -0.31196527918940      1.24107361819738
  N   1.95646640501079      0.43849616140939      0.64760628528862
  H   2.88487047464095      0.48490779622612      0.25741825100952
  H   1.85159579245599     -0.39632049043270      1.20403216054757
