13
Coordinates from ORCA-job run
  C   -0.31511337261615      0.21136862477788     -0.22497266192813
  C   0.89934815865331      0.76244158152005     -0.04062853640702
  H   1.05096709531767      1.76437603435435     -0.43046201671248
  N   -1.29038743219721      1.01839619956489     -0.91117115456316
  H   -1.56873818040766      0.56969903208412     -1.77764760192058
  H   -2.12846375714105      1.10728583535576     -0.34660897720926
  C   -0.70649114009351     -1.17469973467064      0.20692790075773
  H   0.09815754618812     -1.71879759473406      0.70791694239401
  H   -1.00945617197963     -1.77532142331960     -0.65842540060112
  H   -1.56419437813237     -1.14488915792423      0.88906515290356
  N   2.03930180655852      0.15996055089505      0.50535933244037
  H   2.65515821949663      0.82494072396740      0.94657260616824
  H   1.83991160635332     -0.60476067187095      1.13207441467784
