13
Coordinates from ORCA-job run
  C   -0.38289584219153      0.19105018213617     -0.14478502969329
  C   0.78597383943400      0.79871556112179      0.14115415934116
  H   0.85828154731844      1.88045931245108      0.04262275427559
  N   -1.49811609399853      0.90676321111662     -0.66407974051770
  H   -2.33824690826074      0.70881605252656     -0.13292636231936
  H   -1.33655332679726      1.90596342208659     -0.64769770642550
  C   -0.62934120796826     -1.28417006259172     -0.04149534419899
  H   0.29224407543036     -1.86209958459734      0.04760363145182
  H   -1.25359074140713     -1.52823234587645      0.82582560653658
  H   -1.15616144104218     -1.62609881452036     -0.93584615617017
  N   1.95885256745715      0.20947973850609      0.66845677699240
  H   2.78336223522572      0.49958724968743      0.15984758131057
  H   1.91419129679995     -0.79923392204646      0.67931982941688
