13
Coordinates from ORCA-job run
  C   -0.22330187317392     -0.19026632456423     -0.00203025335537
  C   0.96841354707890      0.21076751373917      0.48918089794515
  H   1.35724695332508     -0.27198597866617      1.38079727959902
  N   -0.76313858521587      0.24402911734167     -1.22761577724494
  H   -1.73968427356705      0.49718490495767     -1.16775387181657
  H   -0.23018760723596      0.97778472133219     -1.66980744596662
  C   -1.05941934095404     -1.22020664038134      0.69397968711699
  H   -1.26450940129875     -2.05872515538847      0.02291153092036
  H   -0.55891774166246     -1.59232490485146      1.58890461337220
  H   -2.02533580779780     -0.80302873594164      1.00204847344992
  N   1.76563696910423      1.27957419383193     -0.00920428700619
  H   2.54958714981911      0.97200718613442     -0.56981308655136
  H   1.22461001157851      1.95519010245626     -0.53059776046259
