13
Coordinates from ORCA-job run
  C   -0.29982898105366     -0.15766940063138     -0.00793803257353
  C   0.95152949170249      0.19892117545572      0.34614433829817
  H   1.44789779457843     -0.29483662682928      1.17977150617494
  N   -0.91399859883727      0.38100641410940     -1.14151804601037
  H   -1.90778147625678      0.52132817259236     -1.02695393631693
  H   -0.43575262908659      1.22888679367448     -1.42399631608177
  C   -1.06804667364363     -1.22921495580747      0.70034881567069
  H   -1.29733161649769     -2.05143233997393      0.01677250413163
  H   -0.50487619001527     -1.62302595028712      1.54733414555710
  H   -2.02107600293838     -0.84041355172325      1.07587398563559
  N   1.62425693542040      1.21825598442042     -0.40716597383716
  H   2.28128010516944      0.81355015874612     -1.06440641779044
  H   2.14372784145853      1.83264412625393      0.20573342714209
