16

C	-0.458108	0.005782	-1.448718
C	0.0	0.0	0.0
Cl	0.347851	1.247568	-2.382242
H	1.092705	0.0	0.0
H	-0.273457	-0.962208	-1.907316
N	-1.964201	0.201162	-1.479513
O	-2.44381	1.280553	-1.799661
O	-2.59618	-0.782064	-1.096694
N	-0.372809	-1.328459	0.60052
O	-0.883219	-1.335127	1.719891
O	-0.095607	-2.331887	-0.050799
C	-0.530307	1.151947	0.81999
H	-0.278001	2.086156	0.315496
H	-0.049083	1.150509	1.796506
H	-1.611346	1.094772	0.962844
Cl	3.247741	0.0	0.0
