16

C	-0.450934	0.004393	-1.451916
C	0.0	0.0	0.0
Cl	0.363616	1.241834	-2.382822
H	1.092751	0.0	0.0
H	-0.265055	-0.965095	-1.907264
N	-1.955903	0.201756	-1.489784
O	-2.4333	1.278552	-1.821825
O	-2.589202	-0.777209	-1.098081
N	-0.376775	-1.328117	0.59857
O	-0.921485	-1.333927	1.702056
O	-0.070304	-2.331315	-0.040647
C	-0.535149	1.153373	0.814796
H	-1.61709	1.096569	0.949775
H	-0.061257	1.153234	1.7949
H	-0.278685	2.086699	0.310844
Cl	3.244043	0.0	0.0
