15
Coordinates from ORCA-job run
  C   0.30253218790823      0.14599270871955     -0.46607655456699
  C   -1.13046604640867     -0.10569501619944     -0.00311980214517
  H   0.59180466375734     -0.68948389806204     -1.11929051091090
  H   -1.44264205780267      0.64724087480076      0.71787885548448
  H   -1.81639495562227     -0.13987136727238     -0.85133893028881
  C   1.25677876291440      0.21016313127312      0.71473659937400
  H   2.27933620657686      0.38098572468923      0.36689193383598
  H   0.97485713647338      1.03254171238503      1.37665930304881
  H   1.25468391200700     -0.71855965664902      1.28774992708453
  N   0.28574053539987      1.43827607210643     -1.15082986026782
  H   -0.13651921519143      1.34209852636079     -2.06754578638123
  H   1.23534889066483      1.76167824546940     -1.29170582560850
  N   -1.21324602992158     -1.43179239876599      0.66274886067147
  O   -1.36818356733972     -1.45510816588450      1.88283801551391
  O   -1.07263042341554     -2.41846649297094     -0.05859622484376
