15
Coordinates from ORCA-job run
  C   0.45884125088794     -0.01493157168847     -0.34434202931039
  C   -0.58883130338461     -0.61408014527302      0.60302850902656
  H   0.59337492548480     -0.72515623708008     -1.16588932687873
  H   -0.75163241477831      0.01865409534555      1.47597404136578
  H   -0.32842051135182     -1.63099413858652      0.90234819281995
  C   1.77301189028516      0.15078086555728      0.40489170107400
  H   2.53486068117657      0.52642444286672     -0.27850514479522
  H   1.66221865632300      0.87457589147364      1.21852303723171
  H   2.11497805906147     -0.79435817974651      0.83397994612189
  N   0.06926353392837      1.25420097065661     -0.93759567063953
  H   -0.19610130603194      1.91959905093935     -0.22015521698351
  H   -0.71722777818758      1.14231799867882     -1.56553436595185
  N   -1.88854642019617     -0.69459714333730     -0.11174924676604
  O   -2.78308536335587      0.07729754640606      0.23112745887505
  O   -1.95170389986102     -1.48973344621212     -1.04810188518966
