15
Coordinates from ORCA-job run
  C   0.27046434992683      0.08862839232742     -0.55243778280376
  C   -1.15641355279167     -0.15859328209085     -0.07224004877009
  H   0.54232805664645     -0.75203595389423     -1.19763869495679
  H   -1.52985916907656      0.67209424821874      0.52708229503406
  H   -1.81010631672463     -0.34697948473924     -0.92283634498464
  C   1.25557026443007      0.16919933404259      0.61075642275917
  H   0.96029459579044      0.95784361664652      1.31031485458002
  H   1.31724159415781     -0.76982193212709      1.16617885325586
  H   2.25522382346062      0.40133846531992      0.23551853670002
  N   0.21052150705873      1.28459687898579     -1.39170033352545
  H   1.04856828142265      1.34919065344397     -1.95658195791496
  H   0.18419633781975      2.11086556287789     -0.80337560828693
  N   -1.19064036056886     -1.36392850086059      0.79707401208879
  O   -1.41926791579250     -1.20687161892845      1.99537127701752
  O   -0.93812149575914     -2.43752637922237      0.25251451980717
