15
Coordinates from ORCA-job run
  C   0.75162161957141      0.15803224111323      0.44514468458984
  C   -0.44202730090547      0.32484535985496     -0.52577305516679
  Br  1.49332812339738      1.98383301647651      0.81355214338956
  H   -0.03905989376857      0.85334709015085     -1.40530778626732
  N   1.72738613294604     -0.71843400350317     -0.11540675020368
  H   2.45263634906630     -0.94614748434677      0.55374312137527
  H   2.15910571535457     -0.28371576851563     -0.92384068196509
  C   0.28253072201152     -0.35884119717436      1.72904000458035
  N   -0.09261366676239     -0.77633892641206      2.76098027323685
  N   -1.45435881547201      1.15608084934760      0.06863321372642
  H   -2.08724024215910      0.57181054666370      0.60288776913733
  H   -1.97635723171437      1.66606152273408     -0.62929613882043
  N   -0.93757384894580     -1.01632224981794     -0.78900478048575
  H   -1.64964213318802     -0.98382770828688     -1.50822895472654
  H   -0.18673552943149     -1.63038328828408     -1.07912306240001
