15
Coordinates from ORCA-job run
  C   0.63340285487809      0.31381502060013      0.63711494710134
  C   -0.76571603834913      0.23670932060323     -0.01612353200899
  Br  0.88043100307773      2.03600343682801      1.52009445617943
  H   -1.51221075343765      0.43055540562601      0.76500279199658
  N   1.62524550795214      0.16331378557824     -0.39762117551859
  H   1.46347211021093     -0.73775997148872     -0.83908852307757
  H   2.56104136626943      0.19765837216870     -0.01186110271008
  C   0.71132449837601     -0.70599985959121      1.69773525162102
  N   0.76244397971208     -1.57275507904313      2.49130193351791
  N   -0.85046069223995     -1.12517527763019     -0.57117321659482
  H   -1.10696628304475     -1.79427125218331      0.14770909688134
  H   -1.56718908226829     -1.14683844672497     -1.28607262291075
  N   -0.87206476455947      1.26727445069635     -1.00456184188060
  H   -1.79568123676681      1.29277452574527     -1.41485239696273
  H   -0.16607246981037      1.14369556881560     -1.71860406563350
