15
Coordinates from ORCA-job run
  C   0.72829091933896      0.14991543312946      0.38184890969862
  C   -0.67020581856836     -0.07736098429222     -0.22227200043120
  Br  1.41810138206450      1.90837084751753     -0.13031276891381
  H   -0.96949840527026     -1.06766402506258      0.16773082576669
  N   1.64627266477062     -0.84731724079451     -0.13919765563072
  H   1.39508364670417     -1.75373496201024      0.24732331675502
  H   2.59453048314574     -0.63755818093600      0.15205836430964
  C   0.63012337099668      0.14416417055351      1.84812853218082
  N   0.61846611152350      0.02694354197761      3.01793892077984
  N   -0.56838028163433     -0.02210158132864     -1.66691374057019
  H   -1.39621535819907     -0.42908485045839     -2.08468157954344
  H   0.24710758788749     -0.54112480772673     -1.97391023793075
  N   -1.59355252606016      0.88104820951177      0.33127748023328
  H   -2.54232215827292      0.53326341569346      0.28894882686632
  H   -1.53780161842656      1.73224101422597     -0.21696719357012
