15
Coordinates from ORCA-job run
  C   0.78493591554651      0.08390861575084      0.51440905886668
  C   -0.52442503715313     -0.07075811865076     -0.30586519485641
  Br  1.62531790114759      1.81646509584761      0.03613668175461
  H   -0.90859254008526     -1.05240135967050      0.02119013051014
  N   1.72694651540557     -0.96407282201809      0.27187912253749
  H   1.66732717345185     -1.20650440735517     -0.71264040628094
  H   1.53331709721010     -1.77241173058875      0.85035598105513
  C   0.45703906422883      0.15520877499378      1.93770671988942
  N   0.12054025352015      0.16943365672808      3.06383806752665
  N   -0.16579299000956     -0.20752037829145     -1.69825745120211
  H   -0.05447973347224      0.71865583658210     -2.09652976263853
  H   -0.88875536095339     -0.69744168541183     -2.20883819863363
  N   -1.43568119083590      1.02986051483971     -0.06825656937118
  H   -2.31961218090027      0.84060071181266     -0.52557008887849
  H   -1.61808488710086      1.15797729543176      0.92144190972116
