15

C	-0.261084	0.048289	-1.502745
C	0.0	0.0	0.0
Br	-2.187437	0.349725	-1.931114
H	1.100016	0.0	0.0
H	-0.091118	-0.942549	-1.936402
N	0.520847	1.109405	-2.068817
H	1.468383	1.033123	-1.693493
H	0.562799	1.015819	-3.075436
C	-0.510697	-1.231616	0.584338
N	-0.956736	-2.206164	1.065138
C	-0.474533	1.232983	0.765067
H	-1.562865	1.257518	0.847282
H	-0.036905	1.227825	1.76522
H	-0.134972	2.125891	0.239979
Cl	3.319866	0.0	0.0
