15

C	-0.386045	-0.011379	-1.468697
C	0.0	0.0	0.0
Br	-2.474797	-0.293395	-1.609872
H	1.097467	0.0	0.0
H	-0.046588	-0.919814	-1.961157
N	0.030126	1.117833	-2.153227
H	-0.135043	1.079274	-3.147139
H	-0.289264	1.988607	-1.757922
C	-0.449639	-1.216888	0.668741
N	-0.788417	-2.191248	1.230388
C	-0.456721	1.244832	0.761812
H	0.063841	2.124131	0.376543
H	-1.538254	1.385413	0.694549
H	-0.175538	1.148866	1.811376
Cl	3.335845	0.0	0.0
