15

C	-0.246383	0.023466	-1.516586
C	0.0	0.0	0.0
Br	-2.162154	0.275609	-1.939148
H	1.099389	0.0	0.0
H	-0.007972	-0.960772	-1.923445
N	0.527754	1.005358	-2.233354
H	0.326803	1.9297	-1.867797
H	1.508427	0.807913	-2.022956
C	-0.517896	-1.221577	0.599896
N	-0.969611	-2.192786	1.083271
C	-0.472664	1.232797	0.764341
H	-0.066762	2.13598	0.304182
H	-0.090497	1.190605	1.785807
H	-1.561806	1.301285	0.789385
Cl	3.320692	0.0	0.0
