15

C	-0.387109	-0.11858	-1.491733
C	0.0	0.0	0.0
Br	-0.256484	1.644267	-2.372842
H	1.096828	0.0	0.0
H	-1.440088	-0.389593	-1.604489
N	0.428873	-1.051544	-2.214972
H	0.160664	-1.994214	-1.952435
H	1.402137	-0.912724	-1.948011
C	-0.444535	-1.261279	0.596973
N	-0.858973	-2.270655	1.034785
C	-0.556942	1.182728	0.784985
H	-0.096062	2.103756	0.432614
H	-1.642886	1.262145	0.67547
H	-0.317972	1.064659	1.843788
Cl	3.342643	0.0	0.0
