15

C	-0.336301	0.02911	-1.48434
C	0.0	0.0	0.0
Br	-2.292199	0.206077	-1.818875
H	1.100004	0.0	0.0
H	-0.121101	-0.948316	-1.927526
N	0.33588	1.144917	-2.090378
H	0.228416	1.114057	-3.09706
H	1.327269	1.068538	-1.85751
C	-0.467928	-1.236011	0.617799
N	-0.847755	-2.22308	1.129759
C	-0.466639	1.228158	0.779576
H	-1.550639	1.234166	0.909485
H	-0.163971	2.125308	0.240013
H	0.014434	1.230425	1.759533
Cl	3.321131	0.0	0.0
