16
Coordinates from ORCA-job run
  C   -0.89560445334742      0.17860583052064      0.31873142686974
  C   0.61862132587999     -0.00589099497002      0.09310034306697
  Cl  -1.75181454024664     -1.34687269402664      0.39091243213881
  H   1.07429575075598      0.98002896660564      0.20567775925784
  N   -1.35976647371230      1.00499006961007     -0.91985125647504
  O   -0.89921392576372      2.13832071222397     -0.94036800512958
  O   -2.06212830671885      0.46400879532217     -1.75230416239699
  C   -1.20757728834243      0.98697796869460      1.48985379527316
  N   -1.49882358415957      1.64142471727236      2.42228761210796
  C   0.96512823283125     -0.64294883772734     -1.23318512476309
  H   0.44365218433435     -1.58760254062149     -1.37535674580701
  H   0.71721066168935      0.03827414784496     -2.04884933414989
  H   2.03775106635554     -0.83509418628713     -1.26952495277133
  N   1.14682138206834     -0.81294038835424      1.25186133337201
  O   1.26979014150823     -0.20423473650583      2.31230495941731
  O   1.39965782686790     -1.99704682960172      1.05670991998913
