16
Coordinates from ORCA-job run
  C   -0.91122308759112      0.16884786966329      0.27642689448044
  C   0.61135337511493     -0.02455505487178      0.12972478119981
  Cl  -1.79073344123266     -1.34126488105505      0.17094448110392
  H   1.07221538615045      0.94076268215320      0.34903991399620
  N   -1.28574496785711      1.10134546366013     -0.91635553727609
  O   -1.94202585075781      0.64260261217642     -1.83176337472017
  O   -0.80925724023102      2.22381057798421     -0.81604350158548
  C   -1.28518009981552      0.88570877293257      1.48839804208461
  N   -1.62663593258767      1.46714472033081      2.45169505705213
  C   1.03175253235780     -0.56031554937193     -1.21984918616193
  H   0.50873416597404     -1.48173291321588     -1.46860859851207
  H   2.10221525582381     -0.76697912396416     -1.20579235134686
  H   0.84340974248713      0.18732850712104     -1.99214102486963
  N   1.05606564629017     -0.93080229190477      1.24966924429697
  O   1.30517313851817     -2.09995649745985      0.97530738868984
  O   1.12088137735640     -0.41094489417824      2.36134777156833
