18

C	0.0	0.0	0.0
C	-0.297939	0.052607	-1.540054
F	1.36483	0.0	0.0
H	0.500826	-0.578863	-1.948458
N	-0.626856	1.116829	0.701629
O	-1.806721	1.372445	0.168287
O	-0.334644	1.287238	1.916492
C	-0.491292	-1.260162	0.664433
H	-0.167051	-2.144724	0.109581
H	-1.587299	-1.22373	0.702442
H	-0.091187	-1.280407	1.680216
N	-0.047895	1.410597	-2.00447
H	-0.788516	1.974407	-1.598242
H	-0.218755	1.388464	-3.005163
N	-1.551242	-0.484368	-2.042179
H	-2.299369	-0.17191	-1.408438
H	-1.531405	-1.497174	-1.964038
H	-3.043355	0.0	0.0
