18

C	0.0	0.0	0.0
C	-0.419733	0.231106	-1.472082
F	1.367022	0.0	0.0
H	0.239955	-0.481677	-1.986539
N	-0.373232	1.163161	0.90632
O	-1.239552	1.947361	0.533161
O	0.213413	1.208536	1.987303
C	-0.576731	-1.240621	0.616345
H	-1.666182	-1.117721	0.680577
H	-0.140628	-1.392336	1.605502
H	-0.345945	-2.098372	-0.020879
N	0.035711	1.562966	-1.882672
H	-0.013697	1.556602	-2.895954
H	-0.686238	2.209215	-1.582219
N	-1.778484	-0.061424	-1.844669
H	-2.497343	0.163366	-1.108998
H	-1.890721	-1.059299	-1.98816
H	-3.696303	0.0	0.0
