17

C	-0.367158	-0.044926	-1.488383
C	0.0	0.0	0.0
Cl	-2.182685	-0.201533	-1.703315
H	1.092009	0.0	0.0
C	-0.027232	1.267272	-2.048438
N	0.216767	2.317982	-2.514892
C	0.341422	-1.128718	-2.282208
H	0.187766	-0.970822	-3.351899
H	-0.028007	-2.109506	-1.994889
H	1.405302	-1.060737	-2.025235
N	-0.474436	-1.254285	0.653633
O	0.073839	-2.301793	0.296041
O	-1.357667	-1.188095	1.50919
N	-0.431307	1.139145	0.723874
H	-1.313831	1.522391	0.417917
H	0.304157	1.833418	0.705941
H	2.632598	0.0	0.0
