17

C	-0.439295	-0.054061	-1.458827
C	0.0	0.0	0.0
Cl	-2.25781	-0.269368	-1.566335
H	1.092586	0.0	0.0
C	-0.160895	1.263039	-2.040065
N	0.096331	2.266786	-2.592226
C	0.250323	-1.110927	-2.309137
H	0.049877	-0.925839	-3.366614
H	-0.092714	-2.103384	-2.032801
H	1.323823	-1.034394	-2.100739
N	-0.38405	-1.246593	0.717589
O	-0.994932	-1.144721	1.788341
O	0.000243	-2.319982	0.247361
N	-0.446898	1.180076	0.653885
H	-1.30734	1.012591	1.157106
H	0.269621	1.462109	1.311818
H	2.580748	0.0	0.0
