17

C	-0.371265	-0.045376	-1.487945
C	0.0	0.0	0.0
Cl	-2.186635	-0.219674	-1.69543
H	1.092017	0.0	0.0
C	-0.045097	1.27114	-2.045002
N	0.200886	2.323787	-2.506903
C	0.344572	-1.118766	-2.288945
H	0.189853	-0.955605	-3.357613
H	-0.015873	-2.103528	-2.006525
H	1.407792	-1.043941	-2.03161
N	-0.467507	-1.254264	0.655963
O	-1.324633	-1.189299	1.536914
O	0.064735	-2.302462	0.277158
N	-0.429722	1.137733	0.726545
H	-1.317715	1.515088	0.42791
H	0.302808	1.835841	0.70092
H	2.628915	0.0	0.0
