17

C	-0.443379	-0.055528	-1.457094
C	0.0	0.0	0.0
Cl	-2.256809	-0.313421	-1.559133
H	1.092562	0.0	0.0
C	-0.202416	1.271368	-2.035162
N	-0.001218	2.282392	-2.598416
C	0.268957	-1.090729	-2.315072
H	-0.049332	-2.092546	-2.043744
H	1.340512	-0.990397	-2.109129
H	0.061863	-0.903187	-3.370554
N	-0.378388	-1.238437	0.726984
O	-0.907978	-1.124326	1.840375
O	-0.060619	-2.321232	0.227251
N	-0.436057	1.186397	0.65187
H	0.282933	1.457742	1.31398
H	-1.298946	1.027356	1.155587
H	2.570009	0.0	0.0
