17

C	-0.368705	-0.040495	-1.487619
C	0.0	0.0	0.0
Cl	-2.185697	-0.188838	-1.699235
H	1.09205	0.0	0.0
C	-0.022765	1.271821	-2.044074
N	0.230473	2.321507	-2.508135
C	0.333098	-1.12446	-2.287299
H	0.178679	-0.960748	-3.356077
H	1.397926	-1.062868	-2.032128
H	-0.040205	-2.104769	-2.004382
N	-0.472441	-1.25413	0.653232
O	0.065699	-2.302856	0.283382
O	-1.340424	-1.187426	1.523495
N	-0.427803	1.138646	0.726137
H	0.307151	1.833527	0.704269
H	-1.313793	1.520325	0.42643
H	2.630363	0.0	0.0
