17

C	-0.496995	-0.187311	-1.441097
C	0.0	0.0	0.0
Cl	0.02082	1.275951	-2.370082
H	1.095121	0.0	0.0
C	0.11849	-1.320292	-2.141384
N	0.559697	-2.185816	-2.803097
C	-2.015249	-0.268049	-1.514289
H	-2.34954	-0.282968	-2.552749
H	-2.346855	-1.179666	-1.015354
H	-2.422129	0.610175	-1.010203
N	-0.394801	-1.098887	0.824114
O	-0.47669	-2.230196	0.297407
O	-0.488373	-0.911743	2.058232
N	-0.408253	1.268485	0.551566
H	-0.789266	1.071399	1.470596
H	0.452345	1.791321	0.707129
H	2.398137	0.0	0.0
