17

C	-0.516049	-0.002836	-1.450493
C	0.0	0.0	0.0
Cl	-0.257009	-1.578529	-2.279215
H	1.090919	0.0	0.0
C	-1.95945	0.262433	-1.480476
N	-3.107041	0.512602	-1.523305
C	0.260529	1.066633	-2.212582
H	0.039136	2.039352	-1.774214
H	1.325108	0.851372	-2.085385
H	-0.01601	1.053458	-3.268235
N	-0.491438	-1.212639	0.747252
O	0.127076	-2.261705	0.599065
O	-1.488473	-1.080111	1.472864
N	-0.418695	1.215256	0.62493
H	-1.29865	1.086462	1.108503
H	0.303663	1.488284	1.283018
H	2.7158	0.0	0.0
