15

C	0.0	0.0	0.0
C	-0.482797	-0.300887	-1.420917
Cl	1.805351	0.0	0.0
H	-0.143053	0.510886	-2.077325
H	-1.575998	-0.272744	-1.360784
C	-0.387118	1.35989	0.385434
N	-0.61302	2.468558	0.700887
C	-0.483696	-1.03082	1.003298
H	-0.109973	-0.795124	2.001608
H	-0.115148	-2.006721	0.688613
H	-1.577046	-1.015274	0.995673
N	-0.025756	-1.620337	-1.84089
H	-0.731306	-2.056666	-2.4168
H	0.829593	-1.548822	-2.374116
Cl	-3.73373	0.0	0.0
