15

C	0.0	0.0	0.0
C	-0.522135	0.479259	-1.351203
Cl	1.804383	0.0	0.0
H	-0.2075	-0.266603	-2.09717
H	-1.613327	0.435574	-1.25999
C	-0.366361	0.949458	1.056925
N	-0.610494	1.683052	1.939692
C	-0.518922	-1.390002	0.318856
H	-0.140729	-1.733688	1.283097
H	-1.611947	-1.330645	0.3423
H	-0.194454	-2.086408	-0.458643
N	-0.097213	1.837971	-1.650126
H	0.744611	1.83799	-2.209365
H	-0.826637	2.31314	-2.165697
Cl	-3.807474	0.0	0.0
