15

C	0.0	0.0	0.0
C	-0.395485	-0.239407	-1.488635
Cl	1.798054	0.0	0.0
H	0.015315	-1.221404	-1.751171
H	0.150117	0.504507	-2.078765
C	-0.39875	1.351873	0.397218
N	-0.668151	2.464293	0.662758
C	-0.574241	-1.041946	0.938767
H	-1.665851	-0.959837	0.91725
H	-0.224584	-0.883989	1.960674
H	-0.269346	-2.037629	0.605451
N	-1.784419	-0.188858	-1.830064
H	-2.346027	-0.885978	-1.356447
H	-2.222919	0.687129	-1.571718
Cl	-4.398122	0.0	0.0
