15

C	0.0	0.0	0.0
C	-0.502944	0.328984	-1.416597
Cl	1.801424	0.0	0.0
H	-0.06077	-0.415481	-2.087897
H	-1.587257	0.183122	-1.384358
C	-0.368602	1.071003	0.933279
N	-0.58406	1.947908	1.684607
C	-0.504087	-1.35173	0.471974
H	-1.596747	-1.303083	0.493221
H	-0.178043	-2.121342	-0.233287
H	-0.113334	-1.589703	1.462891
N	-0.222195	1.663397	-1.907979
H	-0.817447	2.322718	-1.421111
H	0.742062	1.914258	-1.726045
Cl	-3.738103	0.0	0.0
