15

C	0.0	0.0	0.0
C	-0.505347	0.377126	-1.403319
Cl	1.801275	0.0	0.0
H	-1.590871	0.237635	-1.37188
H	-0.071526	-0.348324	-2.100085
C	-0.374202	1.036371	0.968364
N	-0.604452	1.885495	1.746733
C	-0.506219	-1.366668	0.425479
H	-0.188388	-2.109817	-0.309996
H	-1.599016	-1.31445	0.458065
H	-0.109671	-1.640211	1.405274
N	-0.214853	1.723312	-1.855931
H	-0.79353	2.375952	-1.340623
H	0.756686	1.954536	-1.683252
Cl	-3.749805	0.0	0.0
