15

C	0.0	0.0	0.0
C	-0.505586	0.354906	-1.409856
Cl	1.801324	0.0	0.0
H	-0.02722	-0.34628	-2.10197
H	-1.583469	0.164726	-1.393384
C	-0.37901	1.044427	0.957915
N	-0.608538	1.895731	1.733987
C	-0.499766	-1.366322	0.435676
H	-1.593598	-1.324577	0.472958
H	-0.176391	-2.111439	-0.295199
H	-0.097755	-1.631613	1.415991
N	-0.277023	1.716842	-1.852317
H	0.66539	2.010593	-1.628038
H	-0.923065	2.326566	-1.366639
Cl	-3.732535	0.0	0.0
