16

C	-0.349829	0.159543	-1.455129
C	0.0	0.0	0.0
F	0.097831	1.361425	-1.911571
H	1.098487	0.0	0.0
H	0.048968	-0.646196	-2.066728
N	-1.851647	0.152653	-1.654844
O	-2.37332	-0.950251	-1.809431
O	-2.446149	1.227056	-1.601514
N	-0.344061	-1.339374	0.449934
O	-0.74522	-1.487597	1.615921
O	-0.074871	-2.280882	-0.312002
C	-0.518639	1.086219	0.904072
H	-0.029263	0.996094	1.873942
H	-0.254247	2.053126	0.472671
H	-1.600537	1.03934	1.049188
H	2.510032	0.0	0.0
