16

C	-0.510964	-0.18691	-1.411498
C	0.0	0.0	0.0
F	0.389308	-0.78075	-2.235438
H	1.092994	0.0	0.0
H	-1.443282	-0.748823	-1.453589
N	-0.845567	1.157877	-2.018984
O	-1.972074	1.585049	-1.765773
O	0.006811	1.731322	-2.686605
N	-0.394138	-1.147871	0.776927
O	-0.382989	-1.051416	2.017358
O	-0.57397	-2.227191	0.174491
C	-0.324842	1.304307	0.696927
H	0.193683	1.299495	1.653906
H	-1.394506	1.45707	0.856969
H	0.081612	2.131173	0.110034
H	2.445656	0.0	0.0
