16

C	-0.460925	-0.028866	-1.428314
C	0.0	0.0	0.0
F	-1.763185	0.391267	-1.572112
H	1.090875	0.0	0.0
H	0.183745	0.63636	-2.008252
N	-0.356999	-1.363257	-2.133992
O	0.76716	-1.671702	-2.505623
O	-1.388685	-1.995017	-2.318696
N	-0.418071	-1.1398	0.796609
O	-0.290661	-2.267266	0.296366
O	-0.735973	-0.944481	1.98051
C	-0.383067	1.317213	0.644085
H	-0.07104	2.133084	-0.014019
H	-1.453766	1.395163	0.836346
H	0.164724	1.417064	1.580795
H	2.52061	0.0	0.0
