16

C	-0.423862	0.104749	-1.436725
C	0.0	0.0	0.0
F	-1.690499	0.625544	-1.581093
H	1.099278	0.0	0.0
H	0.280277	0.763448	-1.952806
N	-0.397008	-1.179999	-2.232557
O	0.702898	-1.52507	-2.642311
O	-1.464945	-1.738221	-2.444994
N	-0.429857	-1.199494	0.687943
O	-0.778798	-1.104245	1.87624
O	-0.279188	-2.283879	0.102498
C	-0.375919	1.260966	0.750077
H	0.1479	1.264607	1.70555
H	-0.029864	2.125303	0.175794
H	-1.449604	1.345123	0.921549
H	2.499072	0.0	0.0
