16

C	-0.401922	-0.111924	-1.44284
C	0.0	0.0	0.0
F	0.159863	0.891206	-2.168733
H	1.099177	0.0	0.0
H	-0.150331	-1.077762	-1.873932
N	-1.905165	0.04282	-1.581741
O	-2.570275	-0.968526	-1.365066
O	-2.355091	1.155298	-1.842211
N	-0.341521	-1.211551	0.722866
O	-0.169388	-2.296186	0.144304
O	-0.628062	-1.11075	1.926821
C	-0.472786	1.256889	0.684993
H	-0.26644	2.10738	0.032237
H	0.093707	1.386287	1.607639
H	-1.53904	1.234842	0.924304
H	2.498797	0.0	0.0
