16

C	-0.512226	-0.089751	-1.420014
C	0.0	0.0	0.0
F	0.358894	-0.694594	-2.266867
H	1.092399	0.0	0.0
H	-1.475932	-0.593198	-1.494376
N	-0.763159	1.300628	-1.96203
O	-1.874576	1.769735	-1.716458
O	0.134948	1.864371	-2.574934
N	-0.406554	-1.191381	0.701914
O	-0.626566	-2.221487	0.030102
O	-0.371731	-1.181692	1.945667
C	-0.320141	1.260321	0.775967
H	0.115744	2.115996	0.2549
H	-1.390768	1.423161	0.922036
H	0.175895	1.181017	1.742174
H	2.451831	0.0	0.0
