16
Coordinates from ORCA-job run
  C   0.62696364040242     -0.51111049297005      0.37115602752445
  C   -0.83386975254214     -0.04728680382770      0.27279411692686
  Br  0.71821202301845     -2.19413090068587      1.27008050741091
  H   -1.18295271262204      0.06131720932768      1.30271827877671
  N   1.47987081593167      0.47845735705524      1.18423676054747
  O   1.05249594517422      0.70640547167798      2.30235918341118
  O   2.48373936773673      0.91938115048318      0.65227235800151
  N   1.26385871135453     -0.62777598315551     -1.00806070231976
  O   2.28183807677316     -1.28825541495398     -1.11320263740111
  O   0.69043712933026      0.00107970673529     -1.89521941665510
  N   -1.62167332219712     -0.97242548782543     -0.43977070342868
  H   -1.50038537058962     -0.86232923878487     -1.43807136940729
  H   -2.60028450880491     -0.87438156177766     -0.21305638781827
  N   -0.91907012137384      1.39350926393494     -0.29592250492832
  O   -1.86775458413129      1.62404964207326     -1.03019941919425
  O   -0.07242533746048      2.19449608269352      0.07788590855368
