13

C	-0.207363	-0.006635	-1.457096
C	-0.010308	0.069074	0.059847
F	-0.048651	1.328919	-1.946757
H	1.061535	0.243841	0.19671
H	-0.238719	-0.905747	0.495675
N	0.69664	-0.926809	-1.964933
H	0.711581	-0.912928	-2.978104
H	1.682538	-0.752359	-1.536255
C	-1.610016	-0.342506	-1.824685
N	-2.71001	-0.644009	-2.106304
C	-0.818783	1.102023	0.693923
N	-1.46627	1.919478	1.233219
H	2.877941	-0.414043	-0.756999
