17
Coordinates from ORCA-job run
  C   -0.57814089114537      0.12586930514031      0.63830516448846
  C   0.88736529451224     -0.20755238121031      0.28275868827544
  H   -0.62540808817101      0.50273679865158      1.66209995881769
  H   1.08644395323017     -1.19312344938577      0.72102804176019
  C   -1.52033647597617     -1.04337877524756      0.44380362832188
  H   -1.45736860645632     -1.45267646340249     -0.56313024182639
  H   -1.27000270355336     -1.82466617638184      1.16525605236047
  H   -2.55249391413877     -0.73613245818770      0.61686865233628
  N   -0.98860638151704      1.29605551450373     -0.21101256051780
  O   -1.63370851487869      1.06652720713239     -1.23211371274213
  O   -0.59124371029504      2.39998336519290      0.15506361257187
  C   1.81232577069758      0.73328508667579      0.92147103677624
  N   2.57979824661209      1.46589660427838      1.42448830653996
  C   1.15728537120533     -0.27129316564992     -1.22552226724350
  H   0.45534721558505     -0.94351808857000     -1.72026188430390
  H   2.17015990604442     -0.63635214210397     -1.40178536880265
  H   1.06958352824487      0.71733921856449     -1.67831710681212
