17
Coordinates from ORCA-job run
  C   -0.56868113588942      0.10011364504772      0.65603119448592
  C   0.90568875250322     -0.17728889033993      0.29885765607965
  H   -0.62945333539124      0.33146120523789      1.72103962977926
  H   1.17650870362401     -1.07478592216510      0.86963206742820
  C   -1.50819071057246     -1.03069702278095      0.28749346972807
  H   -1.53985116667319     -1.18655330436711     -0.78888579570009
  H   -1.18338774852568     -1.95163993903329      0.77737621588077
  H   -2.52023116563254     -0.80267742578218      0.62764408147015
  N   -1.00435214220619      1.36989214269438     -0.01968318312964
  O   -1.34263567440535      1.29412979737164     -1.20038875682323
  O   -0.96745432657318      2.39875803636642      0.65187670169763
  C   1.75693660139976      0.91039498635909      0.79256986901289
  N   2.45586039759446      1.77603455165093      1.16833487382861
  C   1.18443689831394     -0.43741250677261     -1.18567971619588
  H   2.24282078948856     -0.66701230744018     -1.32013445864015
  H   0.60301825271298     -1.28710002605537     -1.54462132620067
  H   0.93896701023230      0.43338298000867     -1.79246252270150
