20

C	0.0	0.0	0.0
C	-0.481181	-0.02782	-1.462754
Br	1.983851	0.0	0.0
H	-1.571819	0.009467	-1.303521
N	-0.540788	1.189811	0.606605
H	-0.34749	1.148	1.604131
H	-1.566604	0.996343	0.485077
C	-0.418594	-1.260094	0.754034
H	-1.513355	-1.252487	0.674283
H	-0.115565	-1.174161	1.802874
H	0.019756	-2.173205	0.346337
C	-0.141449	-1.306843	-2.218902
H	-0.626388	-2.180794	-1.779328
H	-0.500028	-1.221311	-3.250605
H	0.938968	-1.484189	-2.253637
C	-0.031175	1.198859	-2.250493
H	-0.162366	2.101011	-1.652982
H	-0.630074	1.290058	-3.163615
H	1.022145	1.12293	-2.54162
F	-2.926056	0.0	0.0
