20

C	0.0	0.0	0.0
C	-0.315197	-0.048191	-1.55373
Br	1.990264	0.0	0.0
H	0.60256	-0.388041	-2.040041
N	-0.591484	1.146241	0.613904
H	-1.61253	0.933299	0.447808
H	-0.442508	1.067823	1.617414
C	-0.389354	-1.297972	0.705757
H	-0.048358	-1.264105	1.746473
H	0.037471	-2.185357	0.232476
H	-1.484137	-1.307798	0.67114
C	-0.619532	1.349452	-2.087751
H	-1.587642	1.682955	-1.711555
H	-0.662075	1.315563	-3.183534
H	0.144234	2.070543	-1.785472
C	-1.407331	-1.032177	-1.99216
H	-1.120352	-2.066246	-1.77615
H	-2.340216	-0.78953	-1.47164
H	-1.520256	-0.94615	-3.081029
F	-2.975721	0.0	0.0
