20

C	0.0	0.0	0.0
C	-0.471204	-0.05048	-1.473896
Br	1.983589	0.0	0.0
H	-1.562069	-0.0153	-1.309308
N	-0.532266	1.125116	0.725071
H	-0.346356	1.975244	0.202927
H	-1.557908	0.921918	0.63855
C	-0.438414	-1.245174	0.75808
H	0.010704	-2.156553	0.36216
H	-0.154563	-1.131091	1.806235
H	-1.531237	-1.244203	0.657527
C	-0.119413	-1.33762	-2.214669
H	-0.583164	-2.208849	-1.749203
H	0.962968	-1.49835	-2.258724
H	-0.49345	-1.282748	-3.243112
C	-0.038604	1.153188	-2.306432
H	1.037694	1.14107	-2.50645
H	-0.563656	1.137912	-3.267351
H	-0.286553	2.102455	-1.825383
F	-2.925334	0.0	0.0
