20

C	0.0	0.0	0.0
C	-0.391832	-0.121193	-1.530664
Br	1.982976	0.0	0.0
H	0.542996	-0.182271	-2.09438
N	-0.529453	1.213003	0.563289
H	-1.554075	1.028624	0.455983
H	-0.332252	1.196417	1.561109
C	-0.392237	-1.214058	0.84265
H	-1.487091	-1.214193	0.832122
H	0.016209	-2.154965	0.468916
H	-0.028968	-1.067455	1.865496
C	-1.149809	1.107127	-2.043323
H	-2.141134	1.101738	-1.586851
H	-0.632705	2.035765	-1.797237
H	-1.243089	1.031955	-3.134148
C	-1.210759	-1.372817	-1.85805
H	-1.415157	-1.382868	-2.935544
H	-0.675636	-2.297821	-1.620018
H	-2.150473	-1.303767	-1.307162
F	-2.935221	0.0	0.0
