20

C	0.0	0.0	0.0
C	-0.239357	-0.020571	-1.577249
Br	1.995472	0.0	0.0
H	0.631249	-0.516219	-2.014994
N	-0.601353	1.066797	0.726274
H	-0.426471	1.947006	0.255018
H	-1.62293	0.838577	0.619521
C	-0.444391	-1.301004	0.642996
H	-0.030669	-2.16942	0.126919
H	-1.539103	-1.281081	0.5801
H	-0.128764	-1.314094	1.688313
C	-0.277031	1.402881	-2.127188
H	-1.207417	1.893235	-1.829281
H	0.576125	1.998981	-1.786858
H	-0.2496	1.378306	-3.222169
C	-1.465958	-0.79494	-2.068645
H	-2.365502	-0.450794	-1.545664
H	-1.540997	-0.663529	-3.155702
H	-1.350691	-1.865822	-1.874395
F	-3.039786	0.0	0.0
