20

C	0.0	0.0	0.0
C	-0.516635	0.002345	-1.434881
Br	2.062489	0.0	0.0
H	-1.611385	-0.078626	-1.199328
N	-0.366719	1.205379	0.657028
H	-0.25353	1.126554	1.65408
H	0.129401	1.999176	0.301808
C	-0.518055	-1.176145	0.789545
H	-1.620161	-1.029494	0.699157
H	-0.183997	-2.128452	0.376328
H	-0.18522	-1.117303	1.830906
C	-0.021927	-1.165626	-2.274886
H	-0.552656	-1.179717	-3.232085
H	1.052023	-1.080635	-2.48319
H	-0.196769	-2.129664	-1.792418
C	-0.271049	1.323667	-2.15268
H	-0.84777	2.123991	-1.686378
H	0.794812	1.591197	-2.157708
H	-0.597907	1.248257	-3.194035
F	-2.998038	0.0	0.0
