15
Coordinates from ORCA-job run
  C   1.13260848554335     -0.19188444909113      0.18312557931042
  C   -0.31983363279485     -0.46704481813048     -0.21086303273138
  Br  1.35877146936025      0.17657029165390      2.05900790611212
  H   -0.26410177089404     -0.70891428332010     -1.27855637224192
  H   1.75126767724314     -1.05343876430810     -0.05789126749483
  N   1.64843924681327      0.94420183594808     -0.66894255695204
  O   1.72722171237111      2.07492880712101     -0.21107639439662
  O   1.88722840088654      0.60690689926223     -1.82703582910706
  C   -1.23460823757309      0.73833799898394     -0.01843403146101
  H   -2.24373954461001      0.47559442603373     -0.34446893070940
  H   -1.27919788026336      1.02779020145848      1.03371755812297
  H   -0.91068870016005      1.60636327656452     -0.59721646126254
  N   -0.72732741271455     -1.68549966399933      0.47728382394154
  H   -0.97755293456911     -1.47249038028393      1.43648289695567
  H   -1.54748687863858     -2.07042137789283      0.02486711191408
