15
Coordinates from ORCA-job run
  C   0.88778456626118      0.46949719931530     -0.38819561776917
  C   -0.33397939507876     -0.36806394020347     -0.03500183353840
  Br  1.47290024411816      0.27264780780585     -2.22346738757157
  H   -0.07029301627009     -1.41023202363421     -0.23157953223764
  H   0.73016833481389      1.52984352653281     -0.19781362479500
  N   2.03247746536889      0.06638280172649      0.49990746952186
  O   2.23854651680837     -1.13371393460401      0.63516408774314
  O   2.66779986540684      0.97697378097839      1.01890267198680
  C   -1.55786260155447      0.03028998387857     -0.84794538087454
  H   -2.40892751378413     -0.58232203088497     -0.54269453715353
  H   -1.80969043513880      1.07944828074915     -0.66087538674382
  H   -1.40768652645727     -0.09828980301471     -1.91975273615605
  N   -0.51395532779874     -0.17307291264459      1.40219665290407
  H   -0.59963990736744     -1.05214919772791      1.89093982948841
  H   -1.32764226932764      0.39376046172731      1.59921532519543
