15
Coordinates from ORCA-job run
  C   0.84571125293362      0.39394891341096     -0.39976391585692
  C   -0.42064695523793     -0.40857695032513     -0.08020937824209
  Br  1.48823542947932      0.13861628830885     -2.20438405800337
  H   -0.21858648023251     -1.44754578883266     -0.35505881605068
  H   0.71081705967331      1.46411521878990     -0.24358309479785
  N   1.93258046433271     -0.01677791043924      0.55238361227155
  O   2.40008095267555      0.86913408801572      1.26413209888952
  O   2.22425612234555     -1.20694713855076      0.58958601900280
  C   -1.60557605015973      0.12471387706534     -0.87128233982581
  H   -1.44090275809191      0.06739861966225     -1.94706926054987
  H   -1.80232685156595      1.16897037997694     -0.60730002934142
  H   -2.48833796436974     -0.46037715698122     -0.61295380429648
  N   -0.73815966477616     -0.38495642376347      1.33736517995231
  H   -0.84645691678200      0.56114282535506      1.68303957997768
  H   -0.04068764022413     -0.86385884169254      1.89209820687062
