15
Coordinates from ORCA-job run
  C   1.04014846860463     -0.13580890379952     -0.60224733026872
  C   -0.37187290928930     -0.60957792025615     -0.26529913089439
  Br  2.37996468392217     -1.50824971341697     -0.47274420554208
  H   -0.62968153267046     -1.29701326812928     -1.07982540712143
  H   1.08382258207121      0.26671779553183     -1.61211690422754
  N   1.41810081817707      1.02098149487570      0.28336633710915
  O   1.45353624751500      0.82588725389203      1.49456355383932
  O   1.60435418562271      2.09721054479523     -0.27950538411959
  C   -1.32498154033691      0.59161122182516     -0.31920233221177
  H   -1.13940202163494      1.27167553927052      0.51623195932945
  H   -1.23389560042518      1.15608204456087     -1.25193771002120
  H   -2.35518923891606      0.23786321689889     -0.23719900560853
  N   -0.41031821437676     -1.37829071525601      0.96436182335473
  H   -0.17029873650414     -0.79439901030681      1.75583201380048
  H   -1.34328719175904     -1.74468958048552      1.10472172258213
