15
Coordinates from ORCA-job run
  C   1.02080306069054     -0.12831665486169     -0.63664345694445
  C   -0.37755595232138     -0.61045314221386     -0.25620823662833
  Br  2.36975154613590     -1.49525576014344     -0.55614212541273
  H   -0.65866628097731     -1.29689131911475     -1.06371494625863
  H   1.02966743426346      0.27878692073046     -1.64552527816577
  N   1.42064302396714      1.02639117918905      0.24165895621613
  O   1.57597794217172      2.10760048070034     -0.32135041938347
  O   1.50102947766532      0.82494895485667      1.44961603988607
  C   -1.33725421820417      0.58675883141368     -0.27371382504897
  H   -1.12623127780399      1.26382549556169      0.55807278108290
  H   -1.27930514509021      1.15545733589208     -1.20644478011923
  H   -2.36296493491445      0.22904441264351     -0.15905115041232
  N   -0.37121892117360     -1.38392276619826      0.97101829355103
  H   -0.10783450055661     -0.80253805753358      1.75688333313153
  H   -1.29684125385235     -1.75643591092189      1.14054481450624
