17

C	-0.450812	-0.015019	-1.466211
C	0.0	0.0	0.0
F	-0.24408	1.301174	-1.91369
H	1.099364	0.0	0.0
C	0.390257	-0.912458	-2.354436
H	0.160378	-0.687082	-3.398281
H	0.183426	-1.961498	-2.149406
H	1.44245	-0.698935	-2.147913
C	-1.898979	-0.26536	-1.598598
N	-3.048578	-0.442507	-1.754584
N	-0.414521	-1.247955	0.715492
O	-0.392793	-1.199854	1.939756
O	-0.708888	-2.245964	0.058374
N	-0.606352	1.114159	0.698429
H	-0.286961	1.954011	0.226048
H	-0.202713	1.132499	1.630199
Cl	3.308474	0.0	0.0
