17

C	-0.512118	0.000366	-1.449424
C	0.0	0.0	0.0
F	-0.084382	-1.161474	-2.075066
H	1.090413	0.0	0.0
C	-2.024913	0.060165	-1.582946
H	-2.481299	-0.791462	-1.076595
H	-2.406522	0.988661	-1.158599
H	-2.278723	0.023504	-2.643559
C	0.082352	1.153893	-2.15109
N	0.461631	2.074221	-2.773376
N	-0.474099	-1.315591	0.603926
O	0.231659	-2.305506	0.462834
O	-1.567647	-1.298618	1.184692
N	-0.499395	1.13982	0.693703
H	-1.410799	0.94299	1.08761
H	0.146573	1.389649	1.431557
Cl	3.278787	0.0	0.0
