17

C	-0.501397	0.008979	-1.443628
C	0.0	0.0	0.0
F	-1.903307	0.116211	-1.410527
H	1.091306	0.0	0.0
C	0.06945	1.20697	-2.174923
H	-0.298714	1.219218	-3.202663
H	1.160295	1.143197	-2.163815
H	-0.243389	2.106329	-1.647225
C	-0.199949	-1.217759	-2.203181
N	0.021574	-2.116421	-2.925812
N	-0.459201	-1.29855	0.660043
O	0.076671	-2.334294	0.282655
O	-1.339379	-1.227009	1.519903
N	-0.4775	1.152553	0.68294
H	-1.422572	1.001975	1.009322
H	0.125425	1.338278	1.473162
Cl	3.262451	0.0	0.0
