17

C	-0.511897	-0.011253	-1.457168
C	0.0	0.0	0.0
F	0.157899	-0.967669	-2.196528
H	1.090892	0.0	0.0
C	-1.999474	-0.305551	-1.592575
H	-2.605582	0.372278	-0.989704
H	-2.18691	-1.329105	-1.266523
H	-2.29166	-0.209538	-2.639555
C	-0.20908	1.31112	-2.041143
N	-0.040625	2.363581	-2.533977
N	-0.512726	-1.278686	0.615806
O	-1.532274	-1.209897	1.304328
O	0.070175	-2.316511	0.317293
N	-0.419289	1.114821	0.780346
H	-1.323533	1.494813	0.545395
H	0.297564	1.826169	0.768104
Cl	3.280105	0.0	0.0
