17

C	-0.501473	0.005898	-1.443576
C	0.0	0.0	0.0
F	-1.897215	0.17991	-1.412275
H	1.091266	0.0	0.0
C	0.129589	1.161542	-2.193441
H	-0.136346	2.083108	-1.678334
H	1.215835	1.042314	-2.177892
H	-0.23525	1.179043	-3.222166
C	-0.269269	-1.24452	-2.188534
N	-0.144652	-2.15842	-2.914984
N	-0.466077	-1.281598	0.681865
O	-1.312259	-1.186832	1.572887
O	0.03109	-2.33165	0.289771
N	-0.455814	1.169814	0.670411
H	0.16512	1.366255	1.441829
H	-1.394598	1.036906	1.01847
Cl	3.262587	0.0	0.0
