17

C	-0.406985	-0.031165	-1.492327
C	0.0	0.0	0.0
F	-0.047762	1.22075	-1.993313
H	1.091142	0.0	0.0
C	0.325538	-1.08537	-2.294592
H	1.391417	-0.992477	-2.072396
H	-0.007376	-2.086599	-2.024187
H	0.140822	-0.913104	-3.357227
C	-1.87363	-0.124757	-1.647713
N	-3.039709	-0.185532	-1.777836
N	-0.504511	-1.277564	0.61669
O	-1.578717	-1.224531	1.216194
O	0.15905	-2.297616	0.440691
N	-0.47726	1.109682	0.749702
H	-1.41905	1.383769	0.504679
H	0.164474	1.880566	0.631382
Cl	3.314803	0.0	0.0
