18

C	-0.3316	-0.072176	-1.472584
C	0.0	0.0	0.0
Br	-2.437835	0.078898	-1.797533
H	1.117297	0.0	0.0
N	0.304065	0.935172	-2.197544
H	0.029632	0.91949	-3.169652
H	0.184541	1.847389	-1.780146
C	0.062684	-1.440018	-1.99382
H	-0.054185	-1.470644	-3.077876
H	1.115311	-1.562661	-1.724436
H	-0.544422	-2.231241	-1.556549
N	-0.459111	-1.211833	0.74237
O	0.417836	-1.89509	1.271568
O	-1.663249	-1.468073	0.771812
N	-0.484497	1.17504	0.721283
O	-0.420737	2.259369	0.137109
O	-0.840772	1.037607	1.889792
F	2.456511	0.0	0.0
