18

C	-0.38917	0.044234	-1.480598
C	0.0	0.0	0.0
Br	0.06613	-1.866172	-2.144407
H	1.087275	0.0	0.0
N	-1.737148	0.370777	-1.710093
H	-2.352233	-0.272213	-1.22819
H	-1.946557	0.398205	-2.699563
C	0.589477	0.916865	-2.248171
H	1.590788	0.704456	-1.864431
H	0.345077	1.962508	-2.060344
H	0.52182	0.707522	-3.317453
N	-0.60383	-1.130032	0.752404
O	-1.751	-1.480933	0.462522
O	0.069926	-1.621507	1.65074
N	-0.469501	1.235222	0.693376
O	-0.039064	2.298415	0.260274
O	-1.219474	1.123168	1.664288
F	2.525178	0.0	0.0
