13

C	0.0	0.0	0.0
C	-0.364449	0.024989	-1.494189
F	1.385719	0.0	0.0
H	0.030212	-0.920896	-1.904058
H	-1.454413	0.036406	-1.515273
C	-0.461499	1.188224	0.722798
N	-0.649383	2.235854	1.214471
C	-0.420335	-1.249836	0.666269
N	-0.699802	-2.20975	1.279682
N	0.230077	1.208013	-2.102246
H	1.143678	1.020345	-2.481562
H	-0.367484	1.556915	-2.836746
F	-2.438966	0.0	0.0
