13

C	0.0	0.0	0.0
C	-0.373201	0.046281	-1.49071
F	1.385579	0.0	0.0
H	-1.459448	-0.038862	-1.495955
H	-0.063016	1.041268	-1.847679
C	-0.48065	1.177645	0.732515
N	-0.550304	2.192833	1.323116
C	-0.43731	-1.248825	0.643675
N	-0.570179	-2.295167	1.160382
N	0.287859	-1.058049	-2.174757
H	-0.269456	-1.346824	-2.965834
H	1.206166	-0.79387	-2.503161
F	-2.426356	0.0	0.0
