13

C	0.0	0.0	0.0
C	-0.158422	0.04208	-1.587775
F	1.382209	0.0	0.0
H	0.509069	-0.765841	-1.903398
H	0.33523	1.00055	-1.82742
C	-0.470595	1.232174	0.634204
N	-0.619084	2.318761	1.058051
C	-0.494102	-1.22303	0.628024
N	-0.66938	-2.292985	1.07718
N	-1.406548	-0.079512	-2.285117
H	-1.649578	-1.064723	-2.273147
H	-2.088969	0.29613	-1.598177
F	-2.380584	0.0	0.0
