13

C	0.0	0.0	0.0
C	-0.368459	0.14231	-1.485308
F	1.385605	0.0	0.0
H	-1.454531	0.225211	-1.486527
H	-0.05274	-0.79751	-1.964343
C	-0.445911	1.151092	0.800199
N	-0.558325	2.105646	1.476711
C	-0.472446	-1.268912	0.56797
N	-0.5656	-2.358513	1.001596
N	0.293048	1.3265	-2.01898
H	-0.251579	1.703783	-2.779847
H	1.220911	1.110974	-2.355465
F	-2.422572	0.0	0.0
