17

C	-0.366733	-0.032071	-1.477567
C	0.0	0.0	0.0
Br	-2.327184	-0.158043	-1.737058
H	1.094216	0.0	0.0
H	-0.120743	0.961677	-1.858177
C	0.336144	-1.081367	-2.316368
H	0.171347	-0.878382	-3.377266
H	-0.016986	-2.083967	-2.084578
H	1.405728	-1.026862	-2.089066
N	-0.444537	-1.250509	0.688058
O	0.024552	-2.313712	0.285684
O	-1.256589	-1.154742	1.610851
C	-0.491447	1.226001	0.737201
H	-1.578755	1.300518	0.737908
H	-0.137757	1.205	1.76804
H	-0.060468	2.106058	0.253698
Br	3.479971	0.0	0.0
