14

C	-0.161518	-0.181094	-1.513941
C	0.0	0.0	0.0
F	-0.254263	-1.567798	-1.762883
H	1.09852	0.0	0.0
H	-0.347071	1.00778	0.255281
C	-1.407507	0.393797	-2.072119
N	-2.398313	0.870379	-2.485441
N	0.98771	0.320312	-2.195093
H	0.841334	1.244977	-2.570369
H	1.799736	0.294818	-1.538516
N	-0.732137	-0.992431	0.789834
H	-0.46284	-0.843429	1.755596
H	-0.34434	-1.893675	0.536391
F	2.76059	0.0	0.0
