14

C	-0.123056	0.037908	-1.522772
C	0.0	0.0	0.0
F	-0.03927	-1.322079	-1.980398
H	1.102407	0.0	0.0
H	-0.378841	0.942555	0.403934
C	-1.423983	0.49578	-2.065494
N	-2.452586	0.864013	-2.496406
N	0.945216	0.823907	-1.987938
H	1.802778	0.586495	-1.439439
H	1.073914	0.737436	-2.98681
N	-0.718842	-1.130175	0.589299
H	-0.527233	-1.107713	1.58505
H	-0.263825	-1.966357	0.241495
F	2.767297	0.0	0.0
