14

C	-0.149099	0.092766	-1.52518
C	0.0	0.0	0.0
F	-0.15242	-1.2561	-2.023379
H	1.094717	0.0	0.0
H	-0.444871	-0.935353	0.347493
C	-1.442081	0.643718	-1.997435
N	-2.485827	1.045881	-2.358428
N	0.940116	0.838869	-2.005074
H	1.796007	0.584915	-1.467356
H	1.053402	0.760858	-3.004717
N	-0.501466	1.201057	0.66022
H	-1.2407	0.97992	1.310845
H	0.265268	1.621521	1.168607
F	2.740982	0.0	0.0
