14

C	-0.601248	0.121186	-1.388717
C	0.0	0.0	0.0
F	-0.045026	1.240973	-2.000852
H	1.096838	0.0	0.0
H	-0.384338	-0.932372	0.433069
C	-0.273069	-1.057496	-2.221338
N	-0.052972	-2.016134	-2.860364
N	-2.03768	0.314655	-1.416616
H	-2.220838	0.870592	-0.58173
H	-2.491702	-0.582948	-1.302833
N	-0.526323	1.148349	0.781745
H	-0.495399	0.884729	1.759971
H	0.177008	1.875083	0.679693
F	2.673789	0.0	0.0
