11

C	-0.415205	0.009017	-1.460956
C	0.0	0.0	0.0
Cl	0.197946	-1.483715	-2.272029
H	1.090195	0.0	0.0
H	-0.424491	-0.885839	0.477802
H	-0.393648	0.904791	0.474782
C	-1.872587	0.022195	-1.661223
N	-3.043213	0.037795	-1.765072
C	0.150504	1.166413	-2.167313
N	0.583211	2.087893	-2.752542
F	2.602577	0.0	0.0
