11

C	-0.393614	0.001057	-1.468479
C	0.0	0.0	0.0
Cl	0.218435	-1.501949	-2.258215
H	1.090058	0.0	0.0
H	-0.396984	0.908573	0.463583
H	-0.428693	-0.884173	0.477202
C	-1.84561	0.029177	-1.694184
N	-3.014316	0.057012	-1.817465
C	0.195795	1.152124	-2.166075
N	0.602381	2.100587	-2.726424
F	2.60582	0.0	0.0
