11

C	-0.409022	0.007005	-1.467787
C	0.0	0.0	0.0
Cl	0.206443	1.510582	-2.256401
H	1.090192	0.0	0.0
H	-0.395031	-0.91069	0.461761
H	-0.426497	0.882056	0.483279
C	0.161786	-1.141677	-2.181933
N	0.596432	-2.087273	-2.726439
C	-1.86325	-0.009088	-1.682973
N	-3.029137	-0.049187	-1.82977
F	2.605604	0.0	0.0
