14

C	0.0	0.0	0.0
C	-0.636167	-0.041817	-1.34943
F	1.403208	0.0	0.0
H	-0.470525	-1.012413	-1.817608
H	-1.790652	0.092687	-1.01765
C	-0.370385	1.187415	0.805062
N	-0.596931	2.107865	1.497292
N	-0.410956	-1.189627	0.690165
H	0.220276	-1.929903	0.418373
H	-0.359593	-1.062649	1.691328
N	-0.078227	0.973916	-2.224063
O	0.363024	0.608877	-3.337172
O	-0.078105	2.149596	-1.822067
H	-2.990159	0.0	0.0
