14

C	0.0	0.0	0.0
C	-0.504354	0.043589	-1.438699
F	1.376117	0.0	0.0
H	-1.604768	-0.005147	-1.359567
H	-0.087485	-0.80277	-1.992115
C	-0.388575	1.245565	0.714872
N	-0.533668	2.254438	1.296943
N	-0.542884	-1.116539	0.699886
H	-1.57697	-0.907438	0.677283
H	-0.400404	-1.944619	0.126023
N	-0.154385	1.268407	-2.216729
O	0.891424	1.864056	-1.959439
O	-0.941736	1.588413	-3.106676
H	-2.931244	0.0	0.0
