14

C	0.0	0.0	0.0
C	-0.565681	-0.061073	-1.410334
F	1.377464	0.0	0.0
H	-1.679487	-0.000617	-1.214074
H	-0.229754	0.751825	-2.054953
C	-0.379444	1.34731	0.520641
N	-0.485017	2.456153	0.892723
N	-0.505637	-0.980815	0.907178
H	-0.329644	-1.889665	0.492834
H	-1.533206	-0.816624	0.876947
N	-0.305305	-1.315836	-2.13854
O	-0.749133	-1.373844	-3.28694
O	0.291906	-2.242714	-1.580231
H	-2.932773	0.0	0.0
