14

C	0.0	0.0	0.0
C	-0.530496	0.00572	-1.413235
F	1.398984	0.0	0.0
H	-0.334193	-0.959174	-1.872678
H	-1.632235	0.1742	-1.282821
C	-0.326861	1.245155	0.761462
N	-0.457514	2.149157	1.501378
N	-0.530741	-1.168417	0.61548
H	-0.322212	-1.127521	1.609063
H	-1.569174	-1.015046	0.517233
N	0.073616	1.034217	-2.273945
O	0.394603	0.697536	-3.418041
O	0.18034	2.177307	-1.827726
H	-2.906244	0.0	0.0
