14

C	0.0	0.0	0.0
C	-0.601989	-0.017665	-1.365299
F	1.381496	0.0	0.0
H	-0.37484	-0.951867	-1.869941
H	-1.825487	0.054971	-0.8956
C	-0.416481	1.140593	0.865759
N	-0.46313	1.930509	1.74193
N	-0.39798	-1.225966	0.653498
H	-0.1176	-1.19338	1.628301
H	0.075585	-1.982546	0.195145
N	-0.192119	1.062429	-2.203129
O	-0.383115	2.240798	-1.775907
O	0.356183	0.810038	-3.285435
H	-2.732445	0.0	0.0
