14

C	0.0	0.0	0.0
C	-0.513262	-0.061789	-1.423446
F	1.376038	0.0	0.0
H	-0.306027	-1.051152	-1.823181
H	-1.607144	0.129308	-1.339788
C	-0.3349	1.289433	0.684374
N	-0.467276	2.245137	1.355527
N	-0.550733	-1.130818	0.666136
H	-0.365697	-1.040503	1.661632
H	-1.588702	-0.970669	0.542685
N	0.145984	0.916822	-2.306347
O	0.085517	2.105749	-1.995708
O	0.70089	0.48894	-3.321405
H	-2.919154	0.0	0.0
