14

C	-0.432141	0.074844	-1.462647
C	0.0	0.0	0.0
F	-1.824362	0.218321	-1.539058
H	1.09373	0.0	0.0
H	-0.35804	-0.922466	0.463442
C	0.224004	1.235657	-2.18044
H	-0.079803	1.249282	-3.228792
H	-0.090407	2.166034	-1.703009
H	1.309642	1.139756	-2.097792
C	-0.117781	-1.204168	-2.129626
N	0.088734	-2.230214	-2.662183
C	-0.509695	1.147438	0.740748
N	-0.941808	2.067313	1.327967
Br	3.462146	0.0	0.0
