14

C	-0.443637	0.084191	-1.455609
C	0.0	0.0	0.0
F	-1.813636	0.383985	-1.505143
H	1.093636	0.0	0.0
H	-0.317225	0.929136	0.484723
C	0.324967	1.176218	-2.172148
H	0.121192	2.129469	-1.678276
H	1.395965	0.969969	-2.105409
H	0.008153	1.237088	-3.214444
C	-0.278496	-1.208553	-2.147405
N	-0.152962	-2.239724	-2.694925
C	-0.574139	-1.129879	0.715525
N	-1.070101	-2.020597	1.297081
Br	3.473232	0.0	0.0
