14

C	-0.434439	-0.058068	-1.465569
C	0.0	0.0	0.0
F	-0.208337	1.184957	-2.044741
H	1.094263	0.0	0.0
H	-0.317835	-0.917633	0.505375
C	0.380651	-1.092232	-2.219139
H	1.438484	-0.85893	-2.074892
H	0.182908	-2.09231	-1.827617
H	0.123087	-1.063261	-3.279534
C	-1.88474	-0.325945	-1.586791
N	-3.027688	-0.578051	-1.684986
C	-0.557595	1.150529	0.697006
N	-1.027239	2.061357	1.269139
Br	3.503527	0.0	0.0
