14

C	-0.444569	0.071235	-1.455589
C	0.0	0.0	0.0
F	-1.813534	0.375191	-1.506106
H	1.093609	0.0	0.0
H	-0.316746	0.933149	0.477191
C	0.326565	1.153285	-2.185446
H	0.129707	2.111182	-1.698671
H	1.397115	0.942452	-2.122333
H	0.004948	1.206812	-3.227055
C	-0.28767	-1.226769	-2.138332
N	-0.195182	-2.240315	-2.723416
C	-0.572074	-1.124815	0.725601
N	-1.056211	-2.019296	1.311768
Br	3.474455	0.0	0.0
