14

C	-0.542421	0.005189	-1.429313
C	0.0	0.0	0.0
F	-0.051254	-1.133963	-2.054751
H	1.093143	0.0	0.0
H	-0.323574	-0.937826	0.463793
C	-2.060037	-0.057672	-1.495636
H	-2.504571	0.831051	-1.046347
H	-2.378239	-0.133071	-2.536814
H	-2.398474	-0.94397	-0.954113
C	-0.070817	1.181649	-2.186406
N	0.201416	2.130525	-2.821701
C	-0.528665	1.123317	0.761507
N	-0.983753	2.032949	1.348133
Br	3.476622	0.0	0.0
