18

C	0.0	0.0	0.0
C	-0.369116	-0.180503	-1.482406
F	1.415671	0.0	0.0
H	-0.046312	0.70375	-2.036448
C	-0.50196	1.330361	0.506485
H	-1.592425	1.347214	0.445714
H	-0.199411	1.462641	1.548894
H	-0.074266	2.145337	-0.080582
N	-0.519516	-1.054212	0.772389
H	-0.425017	-0.901221	1.764361
H	-0.171696	-1.955831	0.481278
N	-1.702028	-0.5504	-1.719345
H	-2.255173	-0.723482	-0.881734
H	-2.213401	0.094539	-2.298542
N	0.574706	-1.257132	-2.060912
O	1.279894	-0.933119	-3.014959
O	0.540212	-2.381355	-1.566854
Cl	-4.384324	0.0	0.0
