18

C	0.0	0.0	0.0
C	-0.408224	0.065233	-1.490316
F	1.414663	0.0	0.0
H	-0.242895	1.073778	-1.867284
C	-0.532774	1.191932	0.750066
H	-0.214571	1.141406	1.795232
H	-0.147861	2.117541	0.31801
H	-1.62488	1.172286	0.705485
N	-0.470379	-1.203951	0.572802
H	-0.414078	-1.206832	1.58019
H	-0.021075	-2.00986	0.162099
N	-1.70327	-0.411699	-1.798067
H	-2.014505	-1.050451	-1.073274
H	-2.396332	0.326608	-1.795506
N	0.598075	-0.768638	-2.269896
O	0.637185	-1.971191	-2.024142
O	1.288308	-0.201963	-3.111781
Cl	-4.346547	0.0	0.0
