13

C	0.0	0.0	0.0
C	-0.517159	-0.290817	-1.402124
Cl	1.767684	0.0	0.0
H	-1.619976	-0.240799	-1.337227
H	-0.147732	0.487788	-2.071459
N	-0.413246	1.420788	0.421449
O	-0.49054	2.244166	-0.477461
O	-0.5239	1.618598	1.62009
C	-0.446743	-0.95846	1.0056
N	-0.621439	-1.799656	1.808006
C	-0.079632	-1.600734	-1.860438
N	0.270563	-2.648547	-2.258186
Br	-3.509709	0.0	0.0
