16

C	-0.363056	-0.020409	-1.468283
C	0.0	0.0	0.0
F	-1.761552	-0.141554	-1.644843
H	1.09721	0.0	0.0
H	0.073142	-0.929651	-1.89569
C	0.129014	1.194801	-2.213444
H	-0.33823	2.098494	-1.81664
H	1.212845	1.260482	-2.077024
H	-0.109403	1.112748	-3.277626
C	-0.465512	-1.250555	0.742009
H	-0.106588	-1.225382	1.773331
H	-1.553732	-1.348998	0.739696
H	-0.024949	-2.128743	0.260973
C	-0.489414	1.208316	0.64783
N	-0.882255	2.180053	1.181342
H	2.802636	0.0	0.0
