16

C	-0.472071	-0.076402	-1.447472
C	0.0	0.0	0.0
F	-0.2103	1.144076	-2.075662
H	1.096497	0.0	0.0
H	-1.56385	-0.202653	-1.494194
C	0.244819	-1.164505	-2.218977
H	1.31888	-1.076988	-2.037932
H	0.031283	-1.052288	-3.285181
H	-0.09359	-2.154377	-1.903526
C	-0.417615	-1.242061	0.79305
H	0.140676	-2.107105	0.430355
H	-1.49245	-1.444028	0.7216
H	-0.157208	-1.109505	1.844843
C	-0.525406	1.200372	0.634551
N	-0.98154	2.142769	1.169293
H	2.84808	0.0	0.0
