16

C	-0.437801	-0.006227	-1.46553
C	0.0	0.0	0.0
F	-0.151406	-1.268272	-2.000451
H	1.096132	0.0	0.0
H	0.19196	0.707011	-2.00859
C	-1.908271	0.262096	-1.720032
H	-2.119838	0.173426	-2.788477
H	-2.180377	1.265383	-1.388354
H	-2.526443	-0.463639	-1.187529
C	-0.466793	-1.221544	0.788692
H	-0.039015	-1.179482	1.792549
H	-1.555977	-1.2928	0.87284
H	-0.083024	-2.116725	0.298998
C	-0.449925	1.235711	0.622447
N	-0.82177	2.234096	1.121579
H	2.803082	0.0	0.0
