16

C	-0.373337	-0.02123	-1.465872
C	0.0	0.0	0.0
F	-1.772214	-0.167184	-1.631761
H	1.097166	0.0	0.0
H	0.075874	-0.921876	-1.900168
C	0.085674	1.205245	-2.213481
H	1.169716	1.295703	-2.083657
H	-0.400349	2.097272	-1.811168
H	-0.159086	1.119382	-3.277152
C	-0.462802	-1.249046	0.747162
H	-1.552168	-1.342239	0.758067
H	-0.090676	-1.226299	1.773936
H	-0.03233	-2.12986	0.260571
C	-0.485376	1.208939	0.651946
N	-0.872522	2.181902	1.187736
H	2.802241	0.0	0.0
