16

C	-0.437863	-0.004629	-1.465648
C	0.0	0.0	0.0
F	-0.158457	-1.268185	-1.999855
H	1.096063	0.0	0.0
H	0.196098	0.704595	-2.009223
C	-1.906018	0.27232	-1.720513
H	-2.116507	0.186677	-2.790165
H	-2.173644	1.277035	-1.387263
H	-2.528688	-0.451777	-1.188876
C	-0.466753	-1.222154	0.787538
H	-0.04327	-1.178524	1.793503
H	-0.078411	-2.117032	0.300359
H	-1.556224	-1.29637	0.866887
C	-0.449561	1.235111	0.62432
N	-0.824033	2.23238	1.12373
H	2.803535	0.0	0.0
