16

C	-0.439348	-0.004707	-1.465019
C	0.0	0.0	0.0
F	-0.151532	-1.265363	-2.002674
H	1.096179	0.0	0.0
H	0.189038	0.710288	-2.007854
C	-1.909866	0.263098	-1.716867
H	-2.122303	0.179735	-2.785858
H	-2.183417	1.264521	-1.380276
H	-2.526938	-0.466226	-1.187125
C	-0.46556	-1.222494	0.788057
H	-0.081837	-2.117372	0.297258
H	-0.036299	-1.181418	1.791724
H	-1.554589	-1.294576	0.873334
C	-0.449588	1.234795	0.624963
N	-0.820906	2.23073	1.129445
H	2.803194	0.0	0.0
