12

C	0.0	0.0	0.0
C	-0.469045	0.054208	-1.436368
F	1.386506	0.0	0.0
H	0.001497	0.896041	-1.950157
H	-1.561264	0.151728	-1.414006
H	-0.180362	-0.885701	-1.912337
C	-0.309918	1.295796	0.691801
N	-0.450374	2.336069	1.219882
N	-0.554631	-1.136321	0.6472
H	-0.386414	-1.06397	1.64705
H	-1.588403	-0.993122	0.507752
H	-3.05569	0.0	0.0
