12

C	0.0	0.0	0.0
C	-0.416997	-0.279386	-1.432267
F	1.411593	0.0	0.0
H	-1.511243	-0.218579	-1.450983
H	0.04217	0.435025	-2.121123
H	-0.089253	-1.291741	-1.690885
C	-0.346876	1.397543	0.375048
N	-0.456993	2.536254	0.637108
N	-0.540056	-0.885404	0.975694
H	-0.438788	-1.82932	0.609782
H	-1.568203	-0.672768	0.908209
H	-3.01666	0.0	0.0
