12

C	0.0	0.0	0.0
C	-0.46559	0.102679	-1.435162
F	1.386579	0.0	0.0
H	-0.17939	-0.822619	-1.940107
H	0.01016	0.95853	-1.919779
H	-1.557274	0.202811	-1.413527
C	-0.313043	1.272215	0.73494
N	-0.461776	2.289444	1.30337
N	-0.556728	-1.157153	0.607028
H	-0.38668	-1.122581	1.608901
H	-1.588515	-1.003597	0.474502
H	-3.050772	0.0	0.0
