12

C	0.0	0.0	0.0
C	-0.37725	-0.106084	-1.472568
F	1.411807	0.0	0.0
H	-1.473299	-0.156033	-1.472628
H	-0.001731	0.761183	-2.002881
H	0.092541	-1.01606	-1.887094
C	-0.536995	1.201135	0.659185
N	-0.491867	2.238146	1.223203
N	-0.365346	-1.208437	0.694765
H	0.351425	-1.903661	0.490382
H	-0.337024	-1.058919	1.692161
H	-2.724273	0.0	0.0
