12

C	0.0	0.0	0.0
C	-0.467115	0.055346	-1.435797
F	1.386419	0.0	0.0
H	-0.177463	-0.884029	-1.912169
H	-1.559174	0.15263	-1.413538
H	0.003929	0.89718	-1.948777
C	-0.305725	1.296681	0.692387
N	-0.402889	2.33216	1.239299
N	-0.55695	-1.134274	0.646256
H	-1.592102	-0.990316	0.506268
H	-0.389793	-1.062299	1.646581
H	-3.037426	0.0	0.0
