16

C	0.0	0.0	0.0
C	-0.428738	0.040965	-1.491367
Cl	1.77729	0.0	0.0
H	-0.221514	-0.973996	-1.856707
H	0.269708	0.70777	-2.002367
N	-0.338275	1.338787	0.660525
O	-0.29498	2.3378	-0.051683
O	-0.564051	1.339698	1.865698
C	-0.610959	-1.120253	0.789368
H	-0.255444	-1.126723	1.818886
H	-0.359099	-2.06655	0.305646
H	-1.702075	-0.971141	0.766642
N	-1.772096	0.430693	-1.815089
H	-2.50248	0.05891	-1.164847
H	-1.847676	1.434591	-1.702735
H	-3.671539	0.0	0.0
