16

C	0.0	0.0	0.0
C	-0.438207	-0.057454	-1.489597
Cl	1.780557	0.0	0.0
H	-0.286798	-1.107347	-1.774398
H	0.28647	0.532264	-2.055771
N	-0.327572	1.384838	0.564779
O	-0.239617	2.334334	-0.208926
O	-0.590398	1.469698	1.75912
C	-0.612772	-1.058894	0.867456
H	-0.263676	-0.98779	1.896702
H	-1.703773	-0.912139	0.826257
H	-0.357374	-2.0384	0.457684
N	-1.76452	0.370038	-1.8344
H	-1.799232	1.380292	-1.776013
H	-2.507954	0.048172	-1.170522
H	-3.662886	0.0	0.0
