17

C	-0.447552	0.021708	-1.454976
C	0.0	0.0	0.0
F	0.015204	1.147141	-2.062052
H	1.101318	0.0	0.0
N	0.134	-1.165776	-2.222425
O	1.155275	-0.968143	-2.858845
O	-0.476295	-2.225469	-2.099433
C	-1.909313	-0.027592	-1.613494
N	-3.07581	-0.053005	-1.743704
C	-0.520446	-1.205251	0.760531
H	-0.141759	-1.150336	1.783846
H	-0.161448	-2.138582	0.330222
H	-1.613945	-1.217266	0.785634
N	-0.545883	1.239636	0.56862
H	-0.531907	1.148031	1.577747
H	0.099399	1.989628	0.342571
Br	3.549081	0.0	0.0
