17

C	-0.474806	-0.011063	-1.455774
C	0.0	0.0	0.0
F	-1.847191	-0.056444	-1.502167
H	1.093897	0.0	0.0
N	-0.074077	1.291867	-2.139888
O	1.048411	1.327793	-2.623879
O	-0.892416	2.203785	-2.092725
C	0.053089	-1.116947	-2.258619
N	0.417548	-2.039936	-2.887226
C	-0.489138	-1.266389	0.691621
H	-0.137711	-2.167099	0.182429
H	-0.07728	-1.259768	1.700519
H	-1.580326	-1.288207	0.756816
N	-0.449629	1.183256	0.710488
H	-1.364986	1.484926	0.401699
H	0.211339	1.937089	0.576642
Br	3.49915	0.0	0.0
