17

C	-0.424035	0.113165	-1.458465
C	0.0	0.0	0.0
F	0.19936	-0.811562	-2.223935
H	1.108088	0.0	0.0
N	-1.928267	-0.200899	-1.557519
O	-2.681115	0.628712	-1.055303
O	-2.250557	-1.269347	-2.056818
C	-0.242958	1.449242	-2.035302
N	-0.11627	2.476488	-2.588104
C	-0.460311	-1.326165	0.594147
H	-1.544745	-1.342258	0.759527
H	-0.187894	-2.166604	-0.047856
H	0.04038	-1.459654	1.55524
N	-0.418614	1.190611	0.715405
H	-1.314325	1.062874	1.169076
H	0.285037	1.422667	1.404961
Br	3.482577	0.0	0.0
