17

C	-0.420988	0.014632	-1.480556
C	0.0	0.0	0.0
F	0.079387	1.119127	-2.094887
H	1.09655	0.0	0.0
N	0.101801	-1.198441	-2.248494
O	-0.533743	-2.235972	-2.080387
O	1.094791	-1.040488	-2.937753
C	-1.885685	0.021454	-1.637878
N	-3.056987	0.092261	-1.698509
C	-0.521505	-1.208438	0.754645
H	-0.129158	-2.141946	0.353689
H	-1.616325	-1.254175	0.746406
H	-0.184437	-1.103009	1.786168
N	-0.427228	1.226956	0.648321
H	-1.416857	1.406788	0.51721
H	0.110064	2.007742	0.295111
Br	3.514595	0.0	0.0
