17

C	-0.424236	0.046435	-1.464079
C	0.0	0.0	0.0
F	0.189339	-0.92241	-2.18226
H	1.096417	0.0	0.0
N	-1.932581	-0.254238	-1.544106
O	-2.264185	-1.36798	-1.926953
O	-2.679376	0.629503	-1.13699
C	-0.2222	1.350886	-2.102902
N	-0.071703	2.353993	-2.693972
C	-0.46372	-1.295386	0.65644
H	-1.545957	-1.29599	0.83259
H	0.047272	-1.391497	1.616086
H	-0.206239	-2.164798	0.048157
N	-0.421652	1.222684	0.65826
H	0.302685	1.514223	1.301771
H	-1.295259	1.104684	1.15524
Br	3.475115	0.0	0.0
