17

C	-0.425974	0.026848	-1.464791
C	0.0	0.0	0.0
F	0.187849	-0.952617	-2.169421
H	1.096347	0.0	0.0
N	-1.932973	-0.276242	-1.541619
O	-2.681926	0.615085	-1.154488
O	-2.262989	-1.397707	-1.903671
C	-0.220824	1.321939	-2.120836
N	-0.028305	2.324487	-2.700685
C	-0.464016	-1.285979	0.673356
H	-1.546966	-1.28529	0.846844
H	0.044611	-1.367031	1.635877
H	-0.204449	-2.163795	0.078405
N	-0.423265	1.229202	0.644349
H	0.3158	1.552813	1.253803
H	-1.27582	1.107063	1.173255
Br	3.472559	0.0	0.0
