16

C	0.0	0.0	0.0
C	-0.514777	-0.10836	-1.427453
F	1.369065	0.0	0.0
H	-0.406298	0.896035	-1.853059
H	-1.590918	-0.298287	-1.304832
C	-0.541351	1.19495	0.725855
H	-0.178506	1.213759	1.753311
H	-0.202075	2.092255	0.199946
H	-1.639688	1.066781	0.6559
N	-0.348061	-1.26243	0.797084
O	-0.239103	-1.19601	2.019006
O	-0.611598	-2.294838	0.185418
N	0.16942	-1.056425	-2.304343
H	1.169719	-0.945879	-2.179206
H	-0.063045	-1.98501	-1.978208
F	-2.881451	0.0	0.0
