16

C	0.0	0.0	0.0
C	-0.472328	-0.11613	-1.474648
F	1.366303	0.0	0.0
H	0.45146	-0.031053	-2.060709
H	-0.860945	-1.122507	-1.614702
C	-0.524806	1.185348	0.747562
H	-0.110012	1.209288	1.754682
H	-0.222059	2.088852	0.21151
H	-1.616922	1.064996	0.744914
N	-0.324829	-1.281368	0.785129
O	-0.451858	-1.189496	2.001867
O	-0.301283	-2.345512	0.172523
N	-1.473138	0.810998	-1.959714
H	-1.14803	1.760347	-1.814305
H	-2.278609	0.63621	-1.315295
F	-2.946712	0.0	0.0
