13
Coordinates from ORCA-job run
  C   -0.55972150823866     -0.45138900862644      0.50066624483966
  C   0.93301599240871     -0.16133597038085      0.42946940660021
  Cl  -1.06555056559877     -0.38938602698094      2.22468147426290
  H   1.45891035985557     -0.90241089488484      1.03577815678873
  H   -0.73391637612117     -1.47614225822613      0.16896094585630
  H   1.12227996944424      0.82128238161417      0.88406451373491
  C   -1.39326270694120      0.51695935638516     -0.31160188148595
  H   -2.45697443524759      0.29720464086749     -0.21193157859564
  H   -1.22364447712067      1.54371382412529      0.02336819989058
  H   -1.12152915087456      0.42960621765470     -1.36581863434629
  N   1.37799793023401     -0.27530380783180     -0.95877653277812
  H   2.34326413709077     -0.57296740093202     -0.99552556180436
  H   1.32113083110934      0.62116894721623     -1.42333475296293
