15
Coordinates from ORCA-job run
  C   0.81680445665585     -0.13463860143738      0.68619119398345
  C   -0.19939460092297      0.06651712360779     -0.46836029439530
  Br  0.01120802339018     -0.28989282768812      2.46788508444661
  H   0.39213675959701      0.32628264534080     -1.35028731531961
  C   1.63286175753122     -1.32301464545504      0.44100199903030
  N   2.28148515900083     -2.27539592243188      0.20593469502346
  C   1.66988923492517      1.05452603290711      0.71399493419648
  N   2.32463402882350      2.03118259634463      0.69625567253236
  C   -1.26942592732123      1.10512538820946     -0.19941151541904
  H   -1.85116301503862      1.25894370231491     -1.11021470190780
  H   -1.93332435724695      0.77417153580578      0.59839750791404
  H   -0.81163860096562      2.05494114284436      0.08310526301402
  N   -0.85044140916134     -1.23792462476705     -0.82802841800567
  O   -0.89134798580327     -1.50696688156597     -2.02514074426979
  O   -1.32228352346374     -1.90285666402942      0.08867663917650
