15
Coordinates from ORCA-job run
  C   0.87642116738016     -0.41504586210473      0.53292125033774
  C   -0.27366117597723     -0.33562563933914     -0.49476486666195
  Br  1.12517933733362     -2.27306675929374      1.11304694026367
  H   0.00496467560642     -0.94791835481930     -1.35409710780697
  C   2.10212706913146      0.00616527380292     -0.14613155444224
  N   3.05943513986247      0.35867052112530     -0.73112145238914
  C   0.66848862234832      0.42787894031187      1.70931613411163
  N   0.56019887145696      1.14535948914746      2.63464699703856
  C   -0.60620423435449      1.09346911637659     -0.88620521211116
  H   -1.40768560586265      1.08528432946313     -1.62766358590515
  H   0.26519436132143      1.57860284300056     -1.32970466157803
  H   -0.93408843021588      1.66329189837642     -0.01538521346233
  N   -1.50535092881653     -0.98066119906929      0.06741655923522
  O   -1.87979059110581     -0.58876423176261      1.16829534500897
  O   -2.05622827810826     -1.81864036521544     -0.63956957163883
