16

C	-0.56347	-0.018476	-1.416916
C	0.0	0.0	0.0
Br	-0.026828	-1.846438	-2.194995
H	1.091581	0.0	0.0
H	-0.372849	-0.886955	0.531732
C	-2.083161	-0.03654	-1.476006
H	-2.489782	-0.900707	-0.94697
H	-2.441421	0.88714	-1.009545
H	-2.431024	-0.076671	-2.513299
N	0.007709	1.010676	-2.198383
H	0.493	1.684733	-1.58598
H	-0.670952	1.460651	-2.807207
N	-0.393809	1.27026	0.64593
H	-1.125079	1.137272	1.330329
H	0.4335	1.588132	1.13332
F	2.666808	0.0	0.0
