14

C	-0.299613	0.01135	-1.492843
C	0.0	0.0	0.0
F	-1.674565	0.116971	-1.743899
H	1.097288	0.0	0.0
H	0.164492	0.916889	-1.89636
C	0.253416	-1.21808	-2.168021
H	-0.264005	-2.111357	-1.810535
H	0.124529	-1.143756	-3.250573
H	1.317277	-1.288642	-1.920524
C	-0.487847	-1.199355	0.657934
N	-0.859635	-2.195407	1.160802
C	-0.486111	1.199272	0.660487
N	-0.856732	2.19428	1.165632
H	2.567617	0.0	0.0
