14

C	-0.416079	0.055479	-1.481028
C	0.0	0.0	0.0
F	-0.083648	-1.169374	-2.053989
H	1.096873	0.0	0.0
H	-1.504203	0.151245	-1.582629
C	0.325992	1.156401	-2.202351
H	0.124402	1.092059	-3.274062
H	1.393982	1.037809	-2.007112
H	0.004813	2.136223	-1.840879
C	-0.508717	-1.192562	0.657712
N	-0.895255	-2.168071	1.188118
C	-0.461155	1.196315	0.685442
N	-0.835872	2.180829	1.20871
H	2.604661	0.0	0.0
