14

C	-0.397589	-0.00147	-1.482548
C	0.0	0.0	0.0
F	0.019413	1.207133	-2.029955
H	1.096261	0.0	0.0
H	0.187587	-0.792444	-1.96556
C	-1.880241	-0.141156	-1.749188
H	-2.262643	-1.081933	-1.347308
H	-2.415177	0.688421	-1.279924
H	-2.068903	-0.112145	-2.825688
C	-0.467263	-1.218607	0.640108
N	-0.817826	-2.230185	1.128431
C	-0.517803	1.171755	0.68491
N	-0.915256	2.13591	1.229194
H	2.554779	0.0	0.0
