14

C	-0.379047	0.007852	-1.48698
C	0.0	0.0	0.0
F	-0.036995	1.255238	-1.997476
H	1.096206	0.0	0.0
H	0.267292	-0.728584	-1.978065
C	-1.843603	-0.229457	-1.783733
H	-2.017551	-0.165835	-2.860897
H	-2.448596	0.532047	-1.287592
H	-2.154034	-1.214451	-1.433091
C	-0.440769	-1.234251	0.626265
N	-0.790255	-2.253652	1.098111
C	-0.536136	1.153997	0.697325
N	-0.968436	2.091386	1.261266
H	2.553343	0.0	0.0
