16

C	-0.259845	-0.0387	-1.491297
C	0.0	0.0	0.0
Cl	-2.002039	-0.443281	-1.92203
H	1.106344	0.0	0.0
H	-0.16105	0.976991	-1.892381
N	0.615171	-1.011311	-2.078962
H	0.711729	-0.842872	-3.071905
H	1.534204	-0.896888	-1.634079
C	-0.500346	-1.226092	0.729562
H	-0.021308	-1.285944	1.712548
H	-0.243078	-2.125858	0.169119
H	-1.586428	-1.186426	0.85834
N	-0.545106	1.23127	0.586147
H	0.162339	1.95199	0.457155
H	-0.599536	1.091273	1.589799
H	2.956484	0.0	0.0
