16

C	-0.288904	0.108214	-1.504738
C	0.0	0.0	0.0
Cl	-0.332748	-1.598241	-2.331668
H	1.098641	0.0	0.0
H	-1.305902	0.453355	-1.722972
N	0.685263	0.955069	-2.065391
H	1.616264	0.699446	-1.716639
H	0.661988	0.979881	-3.074548
C	-0.592948	-1.193266	0.712363
H	-0.160414	-2.126672	0.354407
H	-0.378774	-1.086879	1.777238
H	-1.681838	-1.2437	0.57995
N	-0.415537	1.241416	0.662999
H	-1.360784	1.48465	0.378701
H	0.195862	1.979433	0.332321
H	3.000853	0.0	0.0
