16

C	-0.444466	0.092045	-1.458062
C	0.0	0.0	0.0
Cl	-0.348418	-1.511121	-2.295283
H	1.09656	0.0	0.0
H	-1.500166	0.376959	-1.514129
N	0.340949	1.044024	-2.212215
H	1.317846	0.809753	-2.025238
H	0.182955	1.928797	-1.736828
C	-0.547352	-1.167968	0.79619
H	-1.646372	-1.180449	0.789056
H	-0.206115	-1.082911	1.832152
H	-0.191225	-2.120386	0.403578
N	-0.373212	1.307993	0.582534
H	0.437873	1.647763	1.088807
H	-1.127643	1.19203	1.248701
H	2.975423	0.0	0.0
