16

C	-0.339796	0.162643	-1.458238
C	0.0	0.0	0.0
Cl	-2.252791	0.679527	-1.621947
H	1.101898	0.0	0.0
H	0.11628	1.063401	-1.865817
N	-0.079545	-0.940761	-2.257896
H	-0.264814	-0.783097	-3.236856
H	-0.527955	-1.78307	-1.931424
C	-0.517573	-1.29155	0.605536
H	-0.050339	-2.16633	0.141999
H	-1.608469	-1.371303	0.533397
H	-0.240146	-1.293853	1.660016
N	-0.363918	1.152778	0.820735
H	0.409219	1.809099	0.783478
H	-1.197553	1.602739	0.462664
H	2.893663	0.0	0.0
