16

C	-0.4492	0.010721	-1.454802
C	0.0	0.0	0.0
Cl	-0.022451	1.561382	-2.258853
H	1.095328	0.0	0.0
H	0.128568	-0.741126	-2.006106
N	-1.894366	-0.132695	-1.57407
H	-2.146707	-1.037828	-1.190927
H	-2.153474	-0.128725	-2.556452
C	-0.432545	-1.310905	0.653603
H	-1.503967	-1.320861	0.881551
H	0.112954	-1.406587	1.59274
H	-0.180841	-2.178619	0.032249
N	-0.482573	1.125094	0.790934
H	-1.37506	1.432959	0.414401
H	0.180436	1.885065	0.679743
H	3.00765	0.0	0.0
