16

C	-0.289741	0.122828	-1.50297
C	0.0	0.0	0.0
Cl	-0.335627	-1.579282	-2.346509
H	1.098649	0.0	0.0
H	-1.307258	0.46858	-1.717737
N	0.682812	0.973538	-2.055959
H	1.615891	0.716875	-1.712476
H	0.654845	1.014328	-3.064891
C	-0.594319	-1.199101	0.701027
H	-0.163287	-2.129678	0.333948
H	-0.379083	-1.102899	1.766613
H	-1.683363	-1.246719	0.569423
N	-0.41412	1.236744	0.673649
H	-1.347545	1.500967	0.366543
H	0.217214	1.969824	0.36877
H	2.99726	0.0	0.0
