16

C	-0.447212	-0.0475	-1.459806
C	0.0	0.0	0.0
Cl	0.095928	1.494222	-2.325486
H	1.094358	0.0	0.0
H	0.110606	-0.831406	-1.973659
N	-1.850562	-0.256568	-1.631012
H	-2.087968	-0.256784	-2.615994
H	-2.353099	0.510028	-1.202644
C	-0.442323	-1.27813	0.697893
H	-1.526451	-1.31642	0.845607
H	0.059253	-1.317828	1.666083
H	-0.145312	-2.159566	0.122867
N	-0.449142	1.15718	0.765527
H	0.069489	1.968503	0.458405
H	-1.4384	1.339092	0.634076
H	2.992717	0.0	0.0
