16

C	-0.537674	-0.018804	-1.416667
C	0.0	0.0	0.0
Cl	0.119522	1.467231	-2.327916
H	1.098808	0.0	0.0
H	-0.107407	-0.848267	-1.97875
N	-1.958981	-0.051052	-1.431074
H	-2.322011	0.116634	-2.360495
H	-2.274704	0.680821	-0.802058
C	-0.445452	-1.257023	0.731256
H	-1.527366	-1.276479	0.890012
H	0.073632	-1.305058	1.695132
H	-0.154186	-2.147055	0.166663
N	-0.550097	1.189716	0.683969
H	-0.397515	1.052268	1.678214
H	0.053156	1.966997	0.427207
H	3.026544	0.0	0.0
