16

C	-0.388226	0.121162	-1.47582
C	0.0	0.0	0.0
Cl	-0.30686	-1.478993	-2.326031
H	1.097827	0.0	0.0
H	-1.441178	0.422263	-1.573967
N	0.437962	1.057522	-2.210081
H	1.406696	0.874822	-1.933027
H	0.212363	1.986002	-1.868969
C	-0.576226	-1.190017	0.740577
H	-1.67098	-1.225861	0.663211
H	-0.16976	-2.128448	0.362385
H	-0.310695	-1.090992	1.794471
N	-0.364922	1.24787	0.689936
H	-1.196424	1.671425	0.292069
H	0.407885	1.896817	0.612933
H	2.966158	0.0	0.0
