18

C	-0.613872	0.091736	-1.406485
C	0.0	0.0	0.0
Br	0.454673	1.347774	-2.579628
H	1.092114	0.0	0.0
N	-0.521474	-1.20468	-2.003135
H	-0.580266	-1.891952	-1.258912
H	-1.245159	-1.333776	-2.696469
C	-2.034145	0.6525	-1.419525
H	-2.424831	0.632215	-2.441661
H	-2.073397	1.677214	-1.054097
H	-2.661923	0.009117	-0.79051
N	-0.28719	-1.269332	0.634172
H	0.594204	-1.560917	1.060579
H	-0.947262	-1.1212	1.388635
N	-0.37089	1.119551	0.849132
O	-0.601414	0.900656	2.057659
O	-0.30691	2.262065	0.369102
H	2.432933	0.0	0.0
