18

C	-0.432368	0.153706	-1.475777
C	0.0	0.0	0.0
Br	-0.160094	2.01918	-2.069422
H	1.105155	0.0	0.0
N	0.436756	-0.671728	-2.286903
H	1.398142	-0.448187	-2.012071
H	0.282082	-1.622049	-1.954765
C	-1.886453	-0.191552	-1.732681
H	-2.101183	-0.072099	-2.794794
H	-2.0536	-1.234552	-1.450414
H	-2.55188	0.445877	-1.148825
N	-0.396132	-1.307391	0.457197
H	-1.292114	-1.261879	0.927016
H	0.316181	-1.634176	1.102886
N	-0.547481	1.075796	0.889171
O	0.134077	2.075714	1.090725
O	-1.680183	0.894707	1.36999
H	2.77432	0.0	0.0
