18

C	-0.466261	0.0912	-1.456316
C	0.0	0.0	0.0
Br	0.121393	-1.611057	-2.322296
H	1.101721	0.0	0.0
N	-1.915736	0.076481	-1.54696
H	-2.22736	0.941022	-1.111652
H	-2.189745	0.0893	-2.524684
C	0.268137	1.189199	-2.217383
H	0.06411	1.111357	-3.289177
H	-0.071801	2.160936	-1.856353
H	1.344113	1.090461	-2.033971
N	-0.471512	-1.129376	0.741828
H	0.300773	-1.776843	0.84695
H	-1.236064	-1.573707	0.249571
N	-0.382093	1.232028	0.765798
O	-1.065378	2.129745	0.235779
O	0.052859	1.304484	1.909612
H	2.67082	0.0	0.0
