16

C	0.0	0.0	0.0
C	-0.375901	-0.069602	-1.497531
F	1.359262	0.0	0.0
H	-1.436856	-0.333259	-1.512083
C	-0.679039	1.098837	0.686522
N	-0.623264	2.141713	1.265716
N	-0.36155	-1.291325	0.727778
O	-0.32443	-1.24241	1.953641
O	-0.486134	-2.310737	0.053962
C	0.412114	-1.067648	-2.216592
N	1.019409	-1.81238	-2.893197
C	-0.160586	1.304584	-2.138579
H	-0.838637	2.028253	-1.684664
H	-0.362639	1.249845	-3.21063
H	0.868803	1.641294	-1.996358
H	-2.30714	0.0	0.0
