16

C	0.0	0.0	0.0
C	-0.221782	0.226252	-1.541534
F	1.359574	0.0	0.0
H	0.445961	-0.532536	-1.961446
C	-0.501828	1.046625	0.884311
N	-0.590006	1.980803	1.602817
N	-0.54219	-1.306226	0.42053
O	-0.575808	-1.528687	1.649842
O	-0.495015	-2.212637	-0.450139
C	0.348354	1.535524	-1.875736
N	0.757524	2.596037	-2.173471
C	-1.572736	0.068558	-2.233111
H	-1.997786	-0.896004	-1.965408
H	-1.391349	0.10413	-3.316985
H	-2.266023	0.858825	-1.957293
H	-2.02222	0.0	0.0
