16

C	0.0	0.0	0.0
C	-0.224982	-0.003417	-1.558735
F	1.35309	0.0	0.0
H	0.441448	-0.817234	-1.863074
C	-0.510447	1.164152	0.717434
N	-0.589525	2.197522	1.285899
N	-0.554886	-1.228717	0.604636
O	-0.586723	-1.270088	1.853512
O	-0.514501	-2.252082	-0.125347
C	0.348407	1.241503	-2.082976
N	0.763359	2.244697	-2.532233
C	-1.575878	-0.258554	-2.218761
H	-1.398327	-0.385406	-3.297074
H	-2.267752	0.565377	-2.062594
H	-2.003058	-1.171712	-1.811203
H	-2.020675	0.0	0.0
