16

C	0.0	0.0	0.0
C	-0.364498	-0.095806	-1.507376
F	1.362082	0.0	0.0
H	-1.36184	-0.529506	-1.568848
C	-0.729439	1.073178	0.666903
N	-0.673265	2.127579	1.228123
N	-0.337843	-1.310386	0.713942
O	-0.443819	-2.32396	0.026831
O	-0.296573	-1.276457	1.940032
C	0.58305	-0.946329	-2.230776
N	1.319939	-1.591544	-2.881142
C	-0.374108	1.308751	-2.118208
H	-1.189457	1.882133	-1.673821
H	-0.521928	1.247582	-3.19854
H	0.570168	1.822941	-1.921298
H	-2.212202	0.0	0.0
