17

C	-0.130467	0.140178	-1.529503
C	0.0	0.0	0.0
Cl	-1.645551	0.930823	-2.061198
H	1.096228	0.0	0.0
N	0.994459	0.80742	-2.097803
H	0.832176	1.804259	-2.073727
H	1.810081	0.568653	-1.491584
N	-0.136814	-1.302149	-2.102183
O	-1.207115	-1.889007	-2.21978
O	0.972109	-1.76921	-2.316788
C	-0.622892	-1.164395	0.582993
N	-1.139789	-2.086322	1.10167
C	-0.389585	1.2757	0.741773
H	0.111386	2.125276	0.273695
H	-1.46779	1.452008	0.753084
H	-0.023389	1.20607	1.768181
F	2.611453	0.0	0.0
