17

C	-0.544177	0.039189	-1.414761
C	0.0	0.0	0.0
Cl	0.315715	-1.239673	-2.406353
H	1.092239	0.0	0.0
N	-1.951368	-0.055257	-1.493486
H	-2.259281	-0.055392	-2.457236
H	-2.257076	-0.897291	-1.021591
N	-0.159241	1.333583	-2.138649
O	0.835605	1.934351	-1.76199
O	-0.874742	1.647678	-3.090345
C	-0.476168	-1.236193	0.593955
N	-0.900282	-2.219087	1.084446
C	-0.457841	1.191305	0.848469
H	-1.544746	1.309869	0.874144
H	0.008679	2.099301	0.467767
H	-0.08686	1.0405	1.863923
F	2.521894	0.0	0.0
