17

C	-0.068406	-0.112863	-1.543265
C	0.0	0.0	0.0
Cl	0.132383	1.510414	-2.269999
H	1.096215	0.0	0.0
N	0.943436	-0.96686	-2.060001
H	1.788843	-0.731258	-1.499328
H	0.679693	-1.927431	-1.869181
N	-1.449939	-0.614546	-1.973889
O	-2.394947	0.159393	-1.849013
O	-1.537108	-1.790807	-2.316646
C	-0.438512	-1.267061	0.56085
N	-0.790422	-2.289345	1.026319
C	-0.643516	1.18642	0.695429
H	-0.157755	2.107641	0.377636
H	-1.713779	1.254022	0.486727
H	-0.498055	1.085645	1.773397
F	2.603147	0.0	0.0
