17

C	-0.484787	0.012396	-1.440045
C	0.0	0.0	0.0
Cl	0.375019	-1.323869	-2.347322
H	1.091901	0.0	0.0
N	-1.890336	-0.037616	-1.58284
H	-2.147439	-0.07164	-2.561097
H	-2.246579	-0.850995	-1.095798
N	-0.033952	1.271461	-2.189993
O	-0.629854	1.500802	-3.242058
O	0.882122	1.933457	-1.729052
C	-0.498124	-1.22881	0.590974
N	-0.943611	-2.208522	1.068507
C	-0.495423	1.200775	0.812125
H	-0.189566	1.058125	1.850676
H	-0.006666	2.104047	0.45033
H	-1.581758	1.322571	0.771749
F	2.523546	0.0	0.0
