17

C	-0.130023	0.166016	-1.524745
C	0.0	0.0	0.0
Cl	-1.668643	0.932347	-2.045298
H	1.099262	0.0	0.0
N	0.97325	0.88006	-2.075516
H	1.800395	0.629529	-1.491472
H	0.794865	1.871032	-1.985591
N	-0.108712	-1.254108	-2.140726
O	-1.160485	-1.882498	-2.175848
O	0.99176	-1.669687	-2.47787
C	-0.607321	-1.175279	0.580512
N	-1.076883	-2.097887	1.138802
C	-0.403996	1.261991	0.75708
H	-1.48449	1.418853	0.776342
H	-0.030622	1.18877	1.779854
H	0.076558	2.126097	0.296307
F	2.604001	0.0	0.0
