17

C	-0.370579	0.018078	-1.450099
C	0.0	0.0	0.0
Cl	-2.204825	-0.462466	-1.701061
H	1.094461	0.0	0.0
N	-0.072201	1.214612	-2.091908
H	-0.209421	1.136197	-3.090085
H	-0.591561	1.984965	-1.699276
N	0.323741	-1.104093	-2.226881
O	0.492779	-0.912828	-3.429176
O	0.614551	-2.114769	-1.613447
C	-0.523628	-1.135107	0.728779
N	-0.941753	-1.994492	1.413988
C	-0.368526	1.306154	0.704811
H	0.272156	2.100176	0.317272
H	-0.136362	1.200895	1.765327
H	-1.42727	1.57458	0.605344
F	2.501032	0.0	0.0
