17

C	-0.471054	0.068269	-1.439366
C	0.0	0.0	0.0
Cl	0.16541	1.520871	-2.264087
H	1.095718	0.0	0.0
N	-0.128786	-1.072303	-2.175363
H	-0.683302	-1.159226	-3.017222
H	-0.199245	-1.911446	-1.6146
N	-2.03929	0.283013	-1.437369
O	-2.720467	-0.708088	-1.703161
O	-2.485868	1.373994	-1.10043
C	-0.483268	-1.23018	0.593984
N	-0.874852	-2.2308	1.076464
C	-0.32477	1.198383	0.892045
H	0.038065	2.107406	0.412503
H	0.24895	1.065205	1.811799
H	-1.384956	1.315292	1.131406
F	2.496596	0.0	0.0
