17

C	-0.092398	-0.124724	-1.528773
C	0.0	0.0	0.0
Cl	-0.231721	1.602437	-2.311091
H	1.095584	0.0	0.0
N	0.989264	-0.844625	-1.958572
H	1.093076	-0.912548	-2.958645
H	1.843958	-0.600537	-1.396959
N	-1.406952	-0.727758	-2.042268
O	-1.346941	-1.439373	-3.039384
O	-2.428724	-0.437241	-1.431577
C	-0.457813	-1.246713	0.59206
N	-0.842845	-2.241581	1.087054
C	-0.592636	1.215986	0.691211
H	-0.064498	2.113059	0.372208
H	-1.659276	1.324826	0.485014
H	-0.447903	1.105485	1.769069
F	2.645111	0.0	0.0
