16
Coordinates from ORCA-job run
  C   0.74972905551776     -0.09402117633962      0.25926734886342
  C   -0.73923325347350     -0.13115698954164     -0.10402171318072
  Br  1.09009969589639      1.01298828063309      1.83287208452214
  H   -0.87313625835497     -0.63935517712110     -1.06056079783220
  C   1.17164416268164     -1.46477070700696      0.54045874125036
  N   1.54905170732484     -2.57027224928597      0.67408806485471
  C   1.58208270551357      0.45556194064655     -0.90421875339512
  H   2.63822509164811      0.38525761586259     -0.64419209655073
  H   1.33184448721146      1.49655552837815     -1.10007564163815
  H   1.39741078084736     -0.13458658281236     -1.80570534145614
  N   -1.31141877606151      1.25053882985974     -0.27444760296779
  O   -1.91387987810334      1.73420448608275      0.67374089769458
  O   -1.09345562214483      1.76803504632831     -1.36515674649881
  N   -1.63112933632972     -0.85285281220603      0.87074151510452
  O   -1.18585347644356     -1.15832096041771      1.96849203373290
  O   -2.75998108572968     -1.05880507305978      0.43871800749703
