16
Coordinates from ORCA-job run
  C   0.79241657794141      0.02269845440261      0.40135340242174
  C   -0.73711310458837      0.04013476819589      0.52980670343788
  Br  1.42950555890502      1.45153147568458      1.60146638843482
  H   -1.04901108427031     -0.05122877432959      1.56995775186775
  C   1.26317468453290     -1.23748511149843      0.97120283364420
  N   1.65116337563077     -2.24479729304087      1.43732432712182
  C   1.37850532405560      0.26430928794711     -0.98671154282350
  H   1.02744893751165     -0.49993371999008     -1.67818273266378
  H   1.09591768656568      1.24859112166006     -1.35513098783755
  H   2.46541842425844      0.21324313683111     -0.91471153436895
  N   -1.43058491322979     -1.07749807192086     -0.21906261618293
  O   -2.64564814608849     -1.09558327559028     -0.06778975716599
  O   -0.75409784810422     -1.85368760891296     -0.88187001085522
  N   -1.34623501319529      1.30434536807938     -0.00421737713620
  O   -1.79796411076807      2.08796639370996      0.82119303384125
  O   -1.33989634915692      1.42739384877238     -1.22562788173535
