16
Coordinates from ORCA-job run
  C   0.72407829955236     -0.14978021290662      0.32526341797058
  C   -0.74846818061435     -0.23913112710372     -0.10231395717986
  Br  0.93226462158223      0.69453355549583      2.07569168787334
  H   -0.84452603374738     -0.93970789293026     -0.93506481596400
  C   1.27078027629403     -1.50198096167376      0.40999067421048
  N   1.76321169926290     -2.56948400400546      0.39532051094800
  C   1.51892517262487      0.65059584725876     -0.71148751233988
  H   1.19310349402277      1.69098757539671     -0.71895264627553
  H   2.57693933333814      0.61865291945119     -0.45316241219561
  H   1.38208849031785      0.21696788698310     -1.70607711009136
  N   -1.24349042197011      1.07817075289367     -0.60606898537395
  O   -1.49081835882801      1.12349922076283     -1.80939568894010
  O   -1.31835959919970      1.99511530059192      0.20126710825122
  N   -1.67995963508186     -0.74679666296181      0.97275016210470
  O   -2.79492896125477     -0.24812839361469      1.02307561587701
  O   -1.24284019629899     -1.67351380363770      1.64016395112495
