16
Coordinates from ORCA-job run
  C   0.78318698217248      0.22143274736802      0.13775722708986
  C   -0.71765528309619      0.39447423170071     -0.07751061294503
  Br  1.42734114030507      1.99459341964166      0.70615515999209
  H   -0.91785488608221      1.14541611405978     -0.84056046026599
  C   1.13492574759316     -0.72408186722236      1.19087447747939
  N   1.51887980496160     -1.48781432561750      1.99813395360950
  C   1.48047202178184     -0.13824626077752     -1.17466598980197
  H   1.18235110414569     -1.13814558383408     -1.49070875560990
  H   1.22604912623410      0.59263964697206     -1.94506683396403
  H   2.56006933459171     -0.12426527636495     -1.02480379245023
  N   -1.45105564701399      0.82371149227912      1.16344378984935
  O   -1.97899267008967      1.92818986991779      1.13247523867784
  O   -1.45424568135804      0.01327883959505      2.08422720727917
  N   -1.41576177913458     -0.87055812816204     -0.51704549839531
  O   -0.82719108222862     -1.93784021054368     -0.39141258070377
  O   -2.54951823278234     -0.69378470901205     -0.94929252984097
