16
Coordinates from ORCA-job run
  C   0.75215326761908      0.25982397266538      0.06799557018281
  C   -0.71760362343620     -0.16095170394533      0.18435382721944
  Br  0.94072850814006      2.06000026149975     -0.66730735883637
  H   -0.77861493122072     -1.21424808707294      0.46362937634541
  C   1.32917786835972      0.23069852378882      1.41049228332003
  N   1.83280062419486      0.11745696485465      2.46688736445757
  C   1.52823944958904     -0.71007875519259     -0.82955333902000
  H   2.58201351494267     -0.43181673354342     -0.81872282255042
  H   1.15923436454138     -0.66844017103382     -1.85266982542014
  H   1.42578271709587     -1.73062398020681     -0.45135071722675
  N   -1.44636466719172     -0.02693965452034     -1.12566324994727
  O   -2.11361323608741      0.98303368338826     -1.30095495782351
  O   -1.27688606322931     -0.95675240173017     -1.90776285043718
  N   -1.52986368382404      0.58248107790350      1.21074032812161
  O   -2.62084033004066      0.06945352580995      1.43431597828721
  O   -1.06534377945259      1.59590347733513      1.71457039332755
