16
Coordinates from ORCA-job run
  C   0.76167763067859      0.26533595268492      0.23344544285750
  C   -0.72440875078928      0.42391416337083     -0.07156293538411
  Br  1.36359620029681      2.00817917159863      0.90567721103144
  H   -0.89141270398201      1.22500177760741     -0.78929310476861
  C   1.04673000038947     -0.75360383869494      1.23791632651966
  N   1.37679279984326     -1.61691886476315      1.96465358377735
  C   1.53217625144313     -0.05064106535077     -1.05076603667851
  H   1.26449786103396     -1.04388405510618     -1.41698698160283
  H   2.60112507806323     -0.03451025538375     -0.83875002976670
  H   1.30894812987932      0.69005910337773     -1.82023424072419
  N   -1.60361743708055      0.71057535269950      1.11445185240082
  O   -1.16988096112673      0.48677945575123      2.23580541278292
  O   -2.71793461807576      1.12690597268813      0.81293505255979
  N   -1.26496956502102     -0.83980519087472     -0.68895516648106
  O   -1.54082909894842     -1.75188971376071      0.08253931747608
  O   -1.34149081660401     -0.84449796584417     -1.91287570399953
