16
Coordinates from ORCA-job run
  C   0.74687561856326     -0.07413811225743      0.27660955279901
  C   -0.72876648231186     -0.15916428634996     -0.13051464826926
  Br  0.99752085088383      0.96304536021393      1.91304054694852
  H   -0.81355955427380     -0.62655265290878     -1.11307278891448
  C   1.22293800155482     -1.43815874211643      0.49858528742778
  N   1.64172324130868     -2.53327576089680      0.58665319572054
  C   1.58196136193266      0.57194986222904     -0.83455368006559
  H   1.44687028864496      0.02225440947531     -1.76973420619851
  H   1.28920249134949      1.60967918270063     -0.98349446272995
  H   2.63328637000063      0.53538318882961     -0.54944059755556
  N   -1.35806497040206      1.20230475120651     -0.25295147001582
  O   -1.14139916865341      1.77782552875473     -1.31447682818103
  O   -2.00075256087680      1.61600880507621      0.70192523976223
  N   -1.61314636628910     -0.96484379582684      0.78364080977812
  O   -1.18367800016965     -1.30322122137706      1.87814711745051
  O   -2.72001112126163     -1.19809651675266      0.31063693204349
