16
Coordinates from ORCA-job run
  C   0.76405047327454      0.04373016782271      0.45338893011290
  C   -0.77050540955318     -0.00293905578699      0.49110007253804
  Br  1.29922510982109      1.41869989271926      1.75105114906813
  H   -1.12999612090704     -0.30970093296352      1.47159802168540
  C   1.23861612588190     -1.23526996224262      0.97991217565895
  N   1.64217708565548     -2.27037256723098      1.36568355917372
  C   1.41307076089312      0.31348576936096     -0.90183835465367
  H   1.13519584691678     -0.47207516588579     -1.60801269195592
  H   1.10145619438599      1.27790249570104     -1.29201046245489
  H   2.49616081839383      0.29939923473858     -0.77521416466776
  N   -1.28216338560501     -1.02145940782469     -0.50001171473790
  O   -1.44994962042192     -2.15056509676894     -0.05384612165907
  O   -1.44986814262155     -0.63866001999874     -1.65243859112970
  N   -1.47731028373819      1.28340843328963      0.16990229211302
  O   -2.61091097770733      1.35151368948240      0.63647216785296
  O   -0.91924847466852      2.11390252558770     -0.53373626694421
