16
Coordinates from ORCA-job run
  C   0.78870032740470      0.19754360288597      0.21276948770370
  C   -0.68081507633361      0.49268385977910     -0.06973724228774
  Br  1.57401101508126      1.89249649442289      0.81374934443837
  H   -0.78343032340597      1.29114776566328     -0.80237134091200
  C   0.99657071034525     -0.81187231347702      1.24542908365816
  N   1.26300289452990     -1.67457769060919      1.99851380021718
  C   1.49382178051152     -0.23394952570322     -1.07540005252521
  H   1.12188869097662     -1.20748225781635     -1.40161444972905
  H   1.32596760580232      0.50010615583100     -1.86510019373838
  H   2.56395979692920     -0.31667226218468     -0.88614715245054
  N   -1.50737641024239      0.88663866527000      1.12419731112344
  O   -1.06293553988989      0.67509273780155      2.24359130226282
  O   -2.59467593367304      1.37336481244354      0.83029311300634
  N   -1.35116038605020     -0.72570777232466     -0.64855768150000
  O   -1.47480688665033     -0.73965150008418     -1.86842641832940
  O   -1.67472226533533     -1.60016077189803      0.14781108906232
