16
Coordinates from ORCA-job run
  C   0.75142390435689     -0.06935343431578      0.26163524593125
  C   -0.73128649974194     -0.16088597847488     -0.11732323343372
  Br  1.02579354712443      0.97854916848598      1.88766368546633
  H   -0.83380676083070     -0.62883339000291     -1.09797507971253
  C   1.23687095361242     -1.42984226085037      0.48385329331812
  N   1.66476013852705     -2.52152019352028      0.57112300216640
  C   1.56493879519192      0.57270495072524     -0.86721129488569
  H   2.62122250436941      0.54097406185281     -0.60022242431495
  H   1.41515772526911      0.01733359166663     -1.79688139132275
  H   1.26644136754577      1.60868111928926     -1.01710139626565
  N   -1.36902709952007      1.19793268558336     -0.22801898746685
  O   -2.00143893282870      1.60647797427211      0.73589689114240
  O   -1.16945772144594      1.77602054800524     -1.29158926251326
  N   -1.59378291195855     -0.97085446765498      0.81417956060033
  O   -1.14283622932471     -1.30460596898287      1.90121733902047
  O   -2.70697278034640     -1.21277840607855      0.36075405227012
