16
Coordinates from ORCA-job run
  C   0.77686951926145      0.23543690098836      0.14713592424694
  C   -0.72469824928738      0.38018129503053     -0.08431181061466
  Br  1.38054497214515      2.01760507896964      0.73144698928985
  H   -0.93109592129073      1.13072439737413     -0.84608514250019
  C   1.13452709380504     -0.70816258914104      1.20001993203541
  N   1.52696139348179     -1.45929193462545      2.01501606063682
  C   1.49535173316020     -0.10366283560826     -1.15918550789234
  H   1.21933286571580     -1.10688900387280     -1.48468479409245
  H   1.23619900315928      0.62688455021578     -1.92831711976758
  H   2.57278113859157     -0.07087891601201     -0.99713537223029
  N   -1.48013992854873      0.78876872810324      1.15014115629487
  O   -1.48090762061565     -0.02763419626703      2.06565088498719
  O   -2.02552296963200      1.88477933499035      1.12012544350163
  N   -1.39232721245201     -0.89640310777002     -0.53740531226188
  O   -0.78496490694152     -1.95268426671710     -0.40851003127276
  O   -2.52391091055226     -0.73977343565831     -0.98290130036055
