16
Coordinates from ORCA-job run
  C   0.74364785529965     -0.08043173048117      0.27989910890800
  C   -0.73320443483392     -0.14587359331559     -0.12598674526084
  Br  1.01644871914063      1.02463543227998      1.86799318601347
  H   -0.83022299872984     -0.65110637400673     -1.08852708082135
  C   1.18522380705792     -1.44379142254324      0.56703633582627
  N   1.58141668900855     -2.54197919243977      0.70656907925084
  C   1.59760509496548      0.49198286662744     -0.85657746953175
  H   1.45101140438285     -0.09709568784383     -1.76572303389403
  H   2.64700250195061      0.44200819248731     -0.56632944769325
  H   1.33159489539924      1.52861027869903     -1.05480828766961
  N   -1.32808163430901      1.22538241618928     -0.30598387873810
  O   -1.96808439965757      1.69077967811506      0.62664837267898
  O   -1.08913844160070      1.75359461097281     -1.38704135068253
  N   -1.63766463925332     -0.89029201631892      0.81923905366496
  O   -1.21839197933761     -1.19262005149460      1.92804182325756
  O   -2.74916243948296     -1.11680340692704      0.35355033469136
