16
Coordinates from ORCA-job run
  C   0.77214779488199      0.19003990827432      0.22105968285811
  C   -0.68747595586010      0.42451035196559     -0.15783476737220
  Br  1.42792195003701      1.94084130308941      0.84358497542465
  H   -0.77193056254783      1.18013160067833     -0.93751495579827
  C   0.96483092212397     -0.75509740506413      1.31460743937762
  N   1.22610547691867     -1.51037808073839      2.17701146730570
  C   1.59054690377798     -0.21436262795146     -1.00528522703295
  H   1.28509476701520     -1.20417867568882     -1.34535964355306
  H   2.64732870765847     -0.24453322061378     -0.73983654449516
  H   1.45267696289554      0.51760069095750     -1.80385487118212
  N   -1.53444607631007      0.88815203912712      0.99561160718248
  O   -1.68310070371843      0.07748526333730      1.90407079075756
  O   -1.99753180377658      2.01878774447118      0.91390976322929
  N   -1.38321024686287     -0.81298768579151     -0.67188957290990
  O   -0.86766921309562     -1.90424124747868     -0.46042348824401
  O   -2.44228892313733     -0.59076995857398     -1.24885665554773
