16
Coordinates from ORCA-job run
  C   0.74164981109118     -0.07661179526055      0.28690195331328
  C   -0.72860318317314     -0.15481848866496     -0.14035744770799
  Br  0.97345089482551      0.97146101095587      1.91937775786292
  H   -0.80278738937285     -0.62657591737955     -1.12173562344491
  C   1.20661165237795     -1.44123033832247      0.52677780766570
  N   1.62079292060434     -2.53705159771364      0.62690478544794
  C   1.59757124162163      0.55564895856794     -0.81602202874485
  H   1.31323407109409      1.59371666763397     -0.97794201227285
  H   1.47395350811631     -0.00092736257064     -1.74873472058907
  H   2.64422034057589      0.51536341584264     -0.51455510017626
  N   -1.34805292283773      1.20985628132014     -0.27821042056075
  O   -2.00518515976022      1.63028724755727      0.66383649394372
  O   -1.10921487602884      1.78028638654332     -1.33770361367574
  N   -1.62988120998778     -0.95105825183910      0.76539359863706
  O   -2.73223043380319     -1.17827838175360      0.27905255036643
  O   -1.21652926534315     -1.28906783491663      1.86601601993536
