16
Coordinates from ORCA-job run
  C   0.81523309037081      0.03566828148514      0.35166607172156
  C   -0.70147169268237     -0.03406927240892      0.57665524128581
  Br  1.46309566813122      1.40957339726143      1.60892919287755
  H   -0.94017235979489     -0.21224617699464      1.62491941619007
  C   1.38119314442580     -1.23459124948325      0.79933978749757
  N   1.84610926451841     -2.24992106446964      1.16746963506552
  C   1.29571327522217      0.40143597557354     -1.04965615666448
  H   0.93398611557097     -0.33013202666964     -1.77037496184702
  H   0.94477993500883      1.39327731530949     -1.32798722044343
  H   2.38619401159248      0.39992865950364     -1.05056505279747
  N   -1.39011968607577     -1.13200084114344     -0.20550291758649
  O   -2.59059636078878     -1.22175043105088      0.01867543601712
  O   -0.72285624838889     -1.82646440010531     -0.96175475055145
  N   -1.40291607644476      1.23093242220522      0.17301575548325
  O   -1.83280669656117      1.93384512403297      1.07883879828362
  O   -1.48536538410404      1.43551428695429     -1.03466827453173
