16
Coordinates from ORCA-job run
  C   0.78237801575762      0.15916416484504     -0.01031367535553
  C   -0.71775906714000     -0.02939451610148      0.24281347154647
  Br  1.15317792943106      1.78661834332809     -1.02587293575815
  H   -0.89636357069286     -1.00990839259217      0.68765729115245
  C   1.44398365431946      0.24791771461710      1.28986170228179
  N   2.00248212571877      0.22300232722588      2.32423923108083
  C   1.35941209610708     -1.03173001390766     -0.78335739929356
  H   1.15020025027212     -1.96085943014936     -0.24663107764028
  H   2.43880188692316     -0.90569741878629     -0.86736058921610
  H   0.92863655211755     -1.08972363070236     -1.78126358372357
  N   -1.51294567065947      0.00823367209261     -1.03438297280996
  O   -1.52391215369176     -1.04305914161416     -1.66652228134468
  O   -2.05127764383439      1.06474452843465     -1.33436148460774
  N   -1.35182611511590      0.96543173996676      1.17836295542000
  O   -2.48327079206098      0.65103034657473      1.53071315927579
  O   -0.72271749745145      1.96522970676866      1.49641818899223
