16
Coordinates from ORCA-job run
  C   0.77140932062974      0.20461519197136      0.03364989042889
  C   -0.72453821132294     -0.08272578442031      0.20706700202517
  Br  1.08811968554385      1.89785651893072     -0.88793845687888
  H   -0.86357035314721     -1.09251806828154      0.59711230384729
  C   1.36786982119894      0.26829272606424      1.36644727774887
  N   1.87896181256302      0.22594399547904      2.42446278896447
  C   1.45253388112889     -0.91225219798086     -0.76482754834288
  H   1.06928676846614     -0.94776287953574     -1.78289977701584
  H   1.27729101877020     -1.87636419887218     -0.28032118611857
  H   2.52491100826462     -0.71939783430548     -0.79367813706073
  N   -1.46319684014909     -0.02884511588280     -1.10305401951403
  O   -1.38284003880655     -1.04684983893192     -1.78290696137573
  O   -2.05050594504707      1.00792859060948     -1.37902434750961
  N   -1.45812392695908      0.82671553901281      1.15649514773274
  O   -0.90589308953449      1.84560654386484      1.54828178086213
  O   -2.58271491159896      0.42975681227833      1.44113424220672
