16
Coordinates from ORCA-job run
  C   0.81014821579890      0.06208192772779      0.35483586189645
  C   -0.70973629141281      0.04824576536593      0.57724434890631
  Br  1.50811934953777      1.54185243909794      1.44310380520442
  H   -0.95385914584247     -0.19076242368414      1.61068117728362
  C   1.34238118541881     -1.16909352012471      0.93660765176356
  N   1.79424691992464     -2.16720181515631      1.36380236281047
  C   1.28725146260293      0.19501543494100     -1.08911257677501
  H   2.37746736523237      0.17754958112728     -1.09715445958489
  H   0.92265222459567     -0.64994238414272     -1.67781845276090
  H   0.93134897864439      1.12259527542271     -1.52761572868872
  N   -1.34487234411978     -1.02278668821042     -0.28047928452274
  O   -1.71390315362638     -0.69819405415489     -1.40275660921838
  O   -1.39351858907868     -2.13548660629014      0.23141684537679
  N   -1.42601623458865      1.32931197418925      0.26104270661038
  O   -0.98088036376843      2.05889840309886     -0.61454696865464
  O   -2.45282957931826      1.49891669079254      0.91274932035325
