16
Coordinates from ORCA-job run
  C   0.77933747180068      0.02950426676654      0.42530669105571
  C   -0.75338363918403      0.03507098693354      0.50774500675267
  Br  1.36942719256195      1.46494588387254      1.64138667730107
  H   -1.09600884074585     -0.05651677623629      1.53821571032059
  C   1.24309606847613     -1.22599553692407      1.01103424848818
  N   1.62605777270190     -2.22912441995488      1.49021862775741
  C   1.40444794400477      0.27364358186307     -0.94521096296193
  H   1.07854819056784     -0.49339195831153     -1.64584635597739
  H   1.12671345577953      1.25579814314820     -1.32288591481049
  H   2.48906904113363      0.22928720519704     -0.84123533522533
  N   -1.41534193544411     -1.08952078526918     -0.25935491548055
  O   -0.71298406279463     -1.86268319664394     -0.89835658784846
  O   -2.63435016193291     -1.11579482284522     -0.14609578980146
  N   -1.35569671752231      1.29344968738188     -0.04777302856533
  O   -1.83515282719270      2.07704547887780      0.76182521009886
  O   -1.31577895220989      1.41228226214450     -1.26897328110357
