16
Coordinates from ORCA-job run
  C   0.81063340258273      0.06035457461237      0.36196069597478
  C   -0.71063745667376      0.04821233773630      0.57109549360095
  Br  1.50308972516591      1.51242443531585      1.49025877226836
  H   -0.96281291439913     -0.17796764731466      1.60549174561876
  C   1.32350539708236     -1.18792736555257      0.92535217262098
  N   1.75042903031496     -2.20178179007845      1.34100953494510
  C   1.30988840728471      0.22020136104900     -1.07194363756757
  H   0.94174734400522     -0.60474478857728     -1.68577187471039
  H   0.97345957939141      1.16289894438331     -1.49326999326670
  H   2.39985047392066      0.18820825519610     -1.06385884063430
  N   -1.34306309700135     -1.02959412892924     -0.27766001778982
  O   -1.63381824093952     -0.72961952519597     -1.43022305880930
  O   -1.47639403555515     -2.11844560004184      0.26908575926452
  N   -1.43294272517912      1.32188129409382      0.23257289351004
  O   -2.50788127488538      1.44656899348000      0.81224511807290
  O   -0.94505361511456      2.08733064982325     -0.58734476309833
