16
Coordinates from ORCA-job run
  C   0.81065090504765      0.03215785247589      0.36322827803302
  C   -0.70848925568956     -0.05097953987702      0.56657433351879
  Br  1.43412839548645      1.37383245723092      1.66661807681563
  H   -0.95924402259130     -0.25100993857897      1.60793412413800
  C   1.37482157866916     -1.24843113365560      0.78297860528745
  N   1.83399901644739     -2.27392427760280      1.12960684543090
  C   1.30967730088992      0.43880189035720     -1.02030674786629
  H   2.40010160241267      0.43973974636997     -1.00577514701308
  H   0.96035884976767      1.43773209845084     -1.27458925719007
  H   0.95986643440888     -0.27218614133087     -1.76684511071349
  N   -1.38028204593021     -1.13738026596438     -0.24526243071313
  O   -0.70636518135589     -1.79048753929929     -1.03193126043184
  O   -2.57719788210410     -1.25784802402811     -0.01594444036285
  N   -1.41285677309777      1.21713117265777      0.17830161731488
  O   -1.86157326763327      1.89815518344542      1.09150022417188
  O   -1.47859565472769      1.44569645934902     -1.02608771041980
