16
Coordinates from ORCA-job run
  C   0.76715969132290     -0.08477362489454      0.20658706885226
  C   -0.73697768960729     -0.15713278909602     -0.08168093816747
  Br  1.14477541359405      0.83325012845987      1.88930268969036
  H   -0.90109484653971     -0.54873925914720     -1.08708828380987
  C   1.26903993239460     -1.45509982690141      0.28787412049458
  N   1.70504357826870     -2.54669065920579      0.26082449299056
  C   1.50338813761670      0.65048787344944     -0.91834738887397
  H   1.29630962715214      0.16795832840343     -1.87710996918718
  H   1.19255533042888      1.69244503119083     -0.96666469163553
  H   2.57505651431347      0.60688643462275     -0.72417253878447
  N   -1.38280047663650      1.20172235441879     -0.04521778282790
  O   -1.95180612602911      1.53020753365619      0.98643306482058
  O   -1.25275207133782      1.86232270582172     -1.07073134064520
  N   -1.53611382020097     -1.04229512837062      0.83723728428402
  O   -1.01468840063799     -1.45764701085141      1.86291314578260
  O   -2.67709479410203     -1.25290209155603      0.44084106701664
