16
Coordinates from ORCA-job run
  C   0.74643569116670     -0.07560956238086      0.27541765259737
  C   -0.73095964312179     -0.15490391000161     -0.12677851548980
  Br  1.00795703817063      0.98777983719547      1.89343581295580
  H   -0.82195079382903     -0.63568801287256     -1.10234598449637
  C   1.21254336993847     -1.43890229183018      0.52091284449912
  N   1.62726968893041     -2.53387653222453      0.62876112146323
  C   1.58484630331347      0.54411098412196     -0.84771877221239
  H   1.30055520930662      1.58153804408162     -1.01402837624725
  H   1.44344499391560     -0.02020634802864     -1.77325638625802
  H   2.63655536314149      0.50365617023351     -0.56441239072903
  N   -1.34967208527353      1.20992280238208     -0.26722913915552
  O   -1.99020277964981      1.64083711538359      0.68148797941741
  O   -1.12692944688587      1.76975698413624     -1.33588250490456
  N   -1.61907535736144     -0.94036181596763      0.80071681253424
  O   -2.72865192384771     -1.17262324126845      0.33348029890770
  O   -1.19016562791419     -1.26543022296001      1.89943954711807
