16
Coordinates from ORCA-job run
  C   0.78156453658153      0.01432158548399      0.42278721852311
  C   -0.75087676424178      0.02705940427473      0.51080033840676
  Br  1.38485047594606      1.41508187520872      1.67225089517301
  H   -1.09069749308267     -0.08771916344079      1.53988270191085
  C   1.23855800034639     -1.25830892504330      0.97571394182837
  N   1.61290326346896     -2.27640980769173      1.42936226223099
  C   1.40295679198471      0.28938412584684     -0.94348623846034
  H   1.06698222567834     -0.45545303334339     -1.66316368326546
  H   2.48762204703144      0.23254844852876     -0.84547784777552
  H   1.13246104355686      1.28389729095185     -1.29329921371122
  N   -1.42216658575430     -1.07448109719783     -0.28091487364750
  O   -2.64080152316057     -1.09732621465835     -0.16271934912852
  O   -0.72667498441169     -1.83547334985746     -0.94174196224976
  N   -1.34772426692720      1.30226743987348     -0.01089463517878
  O   -1.81964999225856      2.06812363118555      0.81980280137595
  O   -1.31130677475753      1.45148778987894     -1.22890235603196
