16
Coordinates from ORCA-job run
  C   0.81209010795180      0.02859103022746      0.36036291888989
  C   -0.70623250888026     -0.05413463678355      0.57032522886090
  Br  1.44464168453107      1.36485537544048      1.66436131971832
  H   -0.95260557928796     -0.26444804912866      1.61083282857522
  C   1.37990982722703     -1.25323922456223      0.77116975845363
  N   1.84656500024449     -2.27938112340950      1.10574648738301
  C   1.30199922087384      0.43922242282140     -1.02544607634427
  H   0.94850446434247     -0.27092620029199     -1.77121322331243
  H   2.39244761872650      0.44101384225839     -1.01789245412488
  H   0.94972121014416      1.43805921540902     -1.27572448254862
  N   -1.38397311026831     -1.13070752162383     -0.24984145596154
  O   -2.58590398581895     -1.23102982517976     -0.03825849934447
  O   -0.70798477920144     -1.80058812458603     -1.02026717866884
  N   -1.40916446179137      1.21960111907761      0.19868857758764
  O   -1.84850603749381      1.89425221304549      1.12124771142796
  O   -1.48350867129924      1.45885948728570     -1.00309146059152
