16
Coordinates from ORCA-job run
  C   0.79066125978615      0.19319911023873      0.13560679952807
  C   -0.69708838767260      0.42107944673286     -0.11616071573452
  Br  1.51061365142939      1.96843338748949      0.59612426689583
  H   -0.85091127417890      1.12921114819685     -0.92919592473389
  C   1.08237298584653     -0.69439200899141      1.25536547358146
  N   1.42429417936058     -1.40486544992531      2.12756783385501
  C   1.48719828228560     -0.28552398555040     -1.13845954400482
  H   1.14580971107948     -1.28915423662393     -1.39303359000342
  H   2.56420205468437     -0.31241580445397     -0.97259127673611
  H   1.27825884691982      0.40323112884271     -1.95967999138734
  N   -1.42704322829972      0.96310301731915      1.08186183110604
  O   -1.89789333812935      2.08827347458838      0.97291115433008
  O   -1.48601264650639      0.21284867550741      2.05059963617041
  N   -1.44700730616400     -0.83673018433869     -0.48502940911054
  O   -0.91531780380103     -1.91934838973008     -0.26924828777274
  O   -2.56113698663993     -0.63694932930179     -0.95663825598352
