16
Coordinates from ORCA-job run
  C   0.75563861511023      0.22315884084161      0.16500309612368
  C   -0.73917874915234     -0.12171734102772      0.24317114491619
  Br  1.04533804432671      2.11688454991583     -0.22765545429249
  H   -0.87311276906177     -1.07081686352361      0.76539968939083
  C   1.35938247737320     -0.04768625915274      1.46885283838116
  N   1.89964527594240     -0.33503626545980      2.47283579340415
  C   1.45616358255697     -0.63641267530960     -0.89169634209948
  H   2.53134695946641     -0.46873120211563     -0.83279658771168
  H   1.25626846618226     -1.69499644822373     -0.69853215036980
  H   1.11148764629487     -0.36989166034043     -1.88948535640411
  N   -1.38635181978879     -0.28840320854696     -1.09481940650292
  O   -2.13214185068125     -1.26064331747717     -1.19323214430706
  O   -1.14385361743917      0.54696871865484     -1.95655462682773
  N   -1.53109849776250      0.90021090704789      1.02641451092576
  O   -1.16319309897041      1.03311930620186      2.18483168674146
  O   -2.44834066439681      1.47399291851536      0.45826330863205
