16
Coordinates from ORCA-job run
  C   0.77285284399012      0.18956922157862      0.12064689643124
  C   -0.73530579747578     -0.05352362681158      0.28128936912469
  Br  1.15873047306610      2.02242190812682     -0.44156977586922
  H   -0.90360212004433     -0.94601635614720      0.88692081797168
  C   1.41497286437554     -0.01124909901006      1.41872660310465
  N   1.98344256219023     -0.24794878768438      2.42035710200003
  C   1.37398796676489     -0.79559794501807     -0.88648048065159
  H   1.11985388553843     -1.82035543170925     -0.59844495946887
  H   2.45873724076036     -0.69174353991346     -0.88417486453070
  H   1.00224898204822     -0.58948247072773     -1.88900546571244
  N   -1.43848087082034     -0.29297046171327     -1.01679648147835
  O   -2.20824737966980     -1.25155013378899     -1.02316582578146
  O   -1.20746204330045      0.47573636828553     -1.94143000622055
  N   -1.43547296962160      1.07622871907404      1.00120642772985
  O   -0.99581691211314      1.30148452015176      2.11967816143755
  O   -2.36143872568845      1.63399711530722      0.43124248191349
