16
Coordinates from ORCA-job run
  C   0.81838323065543      0.02745846907639      0.34500152686336
  C   -0.69510056200390     -0.07207442861449      0.58110058543132
  Br  1.46350901408788      1.34342907499257      1.66384787699131
  H   -0.92013584213460     -0.30586698507341      1.62144732937686
  C   1.40367325220671     -1.25711065208385      0.72140841918720
  N   1.88441944265899     -2.28410754459438      1.03238265547956
  C   1.27994268542666      0.46995740779910     -1.04056813882522
  H   0.91438512135657      1.47037974984930     -1.26395323067179
  H   0.91961481003889     -0.22814952805497     -1.79436608389411
  H   2.37030287935699      0.48197085192814     -1.05223278163222
  N   -1.37903890319663     -1.13704187164929     -0.24903834014146
  O   -0.71184182201547     -1.78431015207496     -1.04606492409296
  O   -2.57615397349509     -1.25196782148308     -0.01830537033135
  N   -1.41519698666098      1.20322074740798      0.24974826891246
  O   -1.84344943206415      1.85382630535327      1.19456263323948
  O   -1.51231291421733      1.46838637722167     -0.94497042589244
