16
Coordinates from ORCA-job run
  C   0.80974568680887      0.07535725601260      0.36110375039447
  C   -0.71183839969414      0.06351127211573      0.56831682441429
  Br  1.49533713334035      1.56617204604359      1.44185282846977
  H   -0.96475895573580     -0.13134628209286      1.60892583845989
  C   1.32816314307922     -1.15125502112044      0.96547542299808
  N   1.76383462738934     -2.14777322809863      1.41294714599243
  C   1.30881103016450      0.18959463031814     -1.07710990599989
  H   0.94918839653355     -0.66010935221807     -1.66158795679924
  H   2.39905337433773      0.16782017384707     -1.06802282106163
  H   0.96409634997705      1.11382284293567     -1.53129741583494
  N   -1.33818752285563     -1.04259329200991     -0.24756751190082
  O   -1.46431567349701     -2.11545974742058      0.33117487564497
  O   -1.63157491591673     -0.77837490173589     -1.40802214949948
  N   -1.43860451777196      1.32320130190050      0.18948436923983
  O   -0.94968687285293      2.06828890191033     -0.64851649042237
  O   -2.51726288330641      1.45914339961277      0.75984319590465
