15

C	0.0	0.0	0.0
C	-0.443117	-0.017398	-1.454885
Br	1.900543	0.0	0.0
H	-1.546573	-0.020621	-1.427101
H	-0.015569	-0.879479	-1.962469
N	-0.307927	1.50682	0.945082
O	0.737994	2.078943	1.209589
O	-1.407636	1.812447	1.288135
N	-0.473831	-1.180663	0.774628
O	-0.49694	-1.063769	1.99953
O	-0.655551	-2.216151	0.129955
N	0.053075	1.180116	-2.177224
O	0.32674	1.036317	-3.371744
O	0.06472	2.260109	-1.585245
F	-2.399249	0.0	0.0
