15

C	-0.568	-0.037456	-1.401025
C	0.0	0.0	0.0
F	-1.923321	-0.224038	-1.35142
H	1.090436	0.0	0.0
H	-0.112723	-0.804822	-2.022024
N	-0.306554	1.285789	-2.069159
O	0.839634	1.440649	-2.469362
O	-1.23573	2.077741	-2.158812
N	-0.377756	-1.363904	0.601612
O	-0.887309	-1.374788	1.718891
O	-0.122657	-2.356829	-0.073735
N	-0.486199	1.103866	0.732791
H	0.084087	1.257926	1.551705
H	-1.455442	0.994641	0.9974
Br	3.410931	0.0	0.0
