15

C	-0.571443	-0.095514	-1.398777
C	0.0	0.0	0.0
F	-1.901463	-0.411614	-1.348551
H	1.093783	0.0	0.0
H	-0.044269	-0.812827	-2.023428
N	-0.445249	1.253789	-2.05687
O	-1.459215	1.929387	-2.174583
O	0.688896	1.550158	-2.411727
N	-0.358396	-1.34461	0.650417
O	-0.856478	-1.32342	1.773133
O	-0.094425	-2.356238	0.007125
N	-0.493684	1.123598	0.698701
H	-1.456304	1.008058	0.979905
H	0.082915	1.309925	1.505365
Br	3.40635	0.0	0.0
