15

C	-0.546001	0.027963	-1.425982
C	0.0	0.0	0.0
F	-0.18182	1.195301	-2.013899
H	1.090539	0.0	0.0
H	-1.633727	-0.07266	-1.450547
N	-0.009437	-1.112492	-2.249409
O	0.996512	-0.919927	-2.912941
O	-0.655971	-2.155481	-2.158077
N	-0.535847	-1.256187	0.626459
O	-1.733939	-1.225845	0.924054
O	0.215297	-2.212349	0.770585
N	-0.440613	1.118392	0.774558
H	0.214287	1.877134	0.657087
H	-1.38195	1.41139	0.553796
Br	3.468476	0.0	0.0
