15

C	-0.605366	0.041513	-1.387391
C	0.0	0.0	0.0
F	-0.180191	1.156426	-2.040278
H	1.088665	0.0	0.0
H	-1.695879	0.028232	-1.381009
N	-0.198902	-1.122439	-2.255636
O	-0.908668	-1.300979	-3.246482
O	0.805335	-1.754966	-1.953563
N	-0.458882	-1.272518	0.68619
O	-1.233642	-2.020005	0.078895
O	-0.084368	-1.438037	1.841509
N	-0.41576	1.153084	0.735158
H	0.246892	1.334587	1.476429
H	-1.347558	1.060759	1.118287
Br	3.445673	0.0	0.0
