15

C	-0.587815	-0.061693	-1.392364
C	0.0	0.0	0.0
F	-1.932933	-0.307622	-1.322428
H	1.090465	0.0	0.0
H	-0.109355	-0.806244	-2.023589
N	-0.399694	1.275283	-2.057892
O	0.726485	1.481726	-2.490503
O	-1.36261	2.029438	-2.110344
N	-0.363977	-1.35636	0.626964
O	-0.128364	-2.357057	-0.043667
O	-0.839148	-1.353623	1.759176
N	-0.477798	1.112059	0.727287
H	0.117254	1.285507	1.524509
H	-1.435697	0.995734	1.026825
Br	3.403724	0.0	0.0
