14
Coordinates from ORCA-job run
  C   -0.75837755643141     -0.73925822704624      0.09699892862379
  C   0.61963482389749     -0.14307845046927      0.37020266932805
  Br  -0.49744838342476     -2.70361725602440     -0.22883347331537
  H   1.18742477193950     -0.78846678728727      1.03950903780521
  H   -1.36556603540575     -0.71123329918607      0.99834378360672
  N   -1.38341276883517     -0.04279270935698     -0.95861592147268
  H   -2.36205859155079     -0.28004910630341     -1.04489891399654
  H   -0.91623049123865     -0.22345771271266     -1.83897026489570
  N   0.35137390386770      1.12417238022633      1.21731457670095
  O   0.67103112385668      2.21013559758307      0.74759207292557
  O   -0.16820463690042      0.93510989649300      2.31268014805533
  N   1.32720579972935      0.13227747654065     -0.82285380573192
  H   2.31617467624319      0.24311043280598     -0.64995805880199
  H   0.97945336425305      0.98714776473727     -1.23951077883140
