14
Coordinates from ORCA-job run
  C   -0.66060121490391     -0.23328280645700     -0.55752014686389
  C   0.27915361313522      0.29835685449031      0.52681140848114
  Br  -2.28126670059638      0.93485973154997     -0.64457355083459
  H   -0.21493672556985      0.28706405323115      1.50013123823188
  H   -0.18827186360704     -0.11464796817736     -1.53260576036481
  N   -0.94655252086958     -1.59932503189076     -0.30134874915034
  H   -1.54216896885418     -1.70432410198713      0.51161237549315
  H   -1.40148363785189     -2.03859474350240     -1.09048361230694
  N   0.59422791298054      1.73522636141962      0.24155760924524
  O   0.29488697908660      2.57385579944450      1.08202107797381
  O   1.15803288508081      1.94548091193609     -0.83109159376409
  N   1.54289982452893     -0.38604906410495      0.59593897530565
  H   1.99631692486590     -0.33785111880859     -0.31038340807821
  H   1.36976349257482     -1.36076887714344      0.80793413663200
