14
Coordinates from ORCA-job run
  C   -0.65397891800027     -0.75804395613222      0.07194631196133
  C   0.62042184595331     -0.00896700678656      0.48542669961106
  Br  -0.18133300170369     -2.64238000313090     -0.15660851415423
  H   1.09096992514472     -0.50520634116544      1.33240844302623
  H   -1.36885276145263     -0.75720067755463      0.90346765695541
  N   -1.14144365066809     -0.25393509948691     -1.18451688043584
  H   -1.36632301914576      0.73122341580094     -1.08886618591624
  H   -1.96246071310380     -0.76314911039821     -1.48439760422219
  N   0.13133540859166      1.31364161807805      1.07644164158799
  O   0.20066163274977      1.44027972314932      2.29598735253884
  O   -0.32574432795628      2.14214222957406      0.29241347912804
  N   1.53034438043575      0.24994915069288     -0.56864362384472
  H   2.34984354870204     -0.33299860342494     -0.50747071585783
  H   1.07755965045324      0.14364466078454     -1.46758806037785
