14
Coordinates from ORCA-job run
  C   -0.59049864586207     -0.72830743819823     -0.42804096507368
  C   0.50322151335133     -0.11752006440095      0.44325641987210
  Br  -0.42512251734921      0.13780477730376     -2.27226101258900
  H   0.31248184412127     -0.43662654306301      1.47175980592442
  H   -0.29363480406265     -1.75290985095632     -0.64188235910141
  N   -1.86890218696622     -0.68311375097303      0.13707080077874
  H   -2.16832759231155      0.25783936496796      0.35321136790862
  H   -2.55577635222525     -1.16729416595163     -0.42341712033340
  N   0.31456793653445      1.41459222224611      0.50553119514566
  O   1.26749100926804      2.11842735541857      0.19896220019788
  O   -0.78084311140785      1.81822343773455      0.89141107931215
  N   1.79095015534100     -0.51461892130473      0.02378322032803
  H   1.98763226016795     -0.17373661826949     -0.90910007398546
  H   2.50476049140071     -0.17175980455354      0.65171544161537
