14
Coordinates from ORCA-job run
  C   -0.81760950123845     -0.26034470421327     -0.61101169282590
  C   0.17240482637315      0.35466169598122      0.37475469464662
  Br  -2.45973174638007      0.80940738620095     -0.52414186980856
  H   -0.29578998383809      0.50301254244156      1.35502693179762
  H   -0.42209357898980     -0.13415701046997     -1.61749028109203
  N   -1.12516048218499     -1.63555080571664     -0.38521469419359
  H   -0.42645687271776     -2.25481925156037     -0.76950890991643
  H   -1.34330921222016     -1.85513768545073      0.57676150709762
  N   0.56713832410894      1.74039918927659     -0.06515373425602
  O   0.69658322186747      1.94698391530087     -1.26597877999236
  O   0.79156809027795      2.54431237502534      0.83831979879474
  N   1.39706694942147     -0.41613137526831      0.37147228977889
  H   2.06705420877642      0.00672456208209      1.00533690059922
  H   1.19933575674396     -1.34736083362937      0.71482783937017
