14
Coordinates from ORCA-job run
  C   -1.03240329523435     -0.06867759375449     -0.23951633538459
  C   0.15727814799767      0.44564375405837      0.56569926284513
  Br  -2.49598148799123     -0.48856508732484      1.06896388545052
  H   -0.17600937430644      1.14143370668535      1.33500845138137
  H   -1.45311287846913      0.73323604029370     -0.84101216967201
  N   -0.63448968144441     -1.15424324600238     -1.04863692297344
  H   -1.33605237477815     -1.39413282275024     -1.73546716508092
  H   -0.42562876268253     -1.96977368131194     -0.48545589541578
  N   0.95698382280380      1.33687690150976     -0.41576097644966
  O   0.36643272672029      2.32252957882447     -0.84635735277182
  O   2.10267609373105      1.00237177096690     -0.69470090130503
  N   0.92928305146604     -0.60715690552790      1.10776364787942
  H   1.50432235608692     -1.02050368395949      0.38409056834795
  H   1.53570165610045     -0.28003873170722      1.84638190314886
