14
Coordinates from ORCA-job run
  C   -0.57637206388220     -0.79075876935430     -0.32460925484131
  C   0.50910316629111     -0.04820822477216      0.44923169755368
  Br  -0.44480754786263     -0.16703703204002     -2.26674668787725
  H   0.33347568478874     -0.23613390336277      1.51219686277238
  H   -0.25729006878932     -1.82758998379325     -0.40726338769013
  N   -1.85136548762920     -0.70118346512386      0.24315951768771
  H   -2.53119476087804     -1.26765869290170     -0.24399009520538
  H   -2.17010616029511      0.25319413771281      0.33996003094133
  N   0.28509606728555      1.47453421550295      0.31526859848731
  O   -0.81677198463943      1.90018616896508      0.65661025355004
  O   1.21919769471020      2.15394878193602     -0.08874170523451
  N   1.80267657637887     -0.46729944730150      0.07124599473845
  H   2.51280630665539     -0.03047711476650      0.64244687864210
  H   1.98455257786602     -0.24551667070087     -0.89976870352449
