14
Coordinates from ORCA-job run
  C   -0.81267579328610     -0.68508025643797     -0.03839470332783
  C   0.54316208997180     -0.18988515401839      0.45740252280232
  Br  -0.63653365296732     -2.65982161042112     -0.36285802604683
  H   0.95596371734575     -0.88233436290678      1.19020335238805
  H   -1.54929454183983     -0.62565424599482      0.75897614179094
  N   -1.21765330374230      0.06470957342839     -1.16194209067405
  H   -0.63043587247847     -0.13511817113474     -1.96263255853712
  H   -2.18416456682674     -0.10261772176794     -1.40532189660874
  N   0.23290586164641      1.08106766593177      1.28350276846357
  O   0.69340283139687      2.14837508135438      0.89451907370900
  O   -0.46097884196839      0.91393233714843      2.28156998067313
  N   1.44378076397717      0.05093304611378     -0.60607500403225
  H   2.39945536637691      0.08824527884986     -0.28118586050865
  H   1.22406594239423      0.93424853985516     -1.04976370009154
