14
Coordinates from ORCA-job run
  C   -0.61652873821353     -0.78242580090860      0.13840702701086
  C   0.65508114176759      0.00900592197718      0.47490489212610
  Br  0.02477829410015     -2.63526241921871     -0.37865258137269
  H   1.19519109887825     -0.51758585857318      1.26215489930435
  H   -1.19204720381430     -0.96427359330119      1.04428227180757
  N   -1.39619566519633     -0.13279227272709     -0.82829144567568
  H   -2.30647520904383     -0.55338997261851     -0.94983890666427
  H   -0.93272602224791     -0.05832393910100     -1.72367145195767
  N   0.14635041842787      1.28100622569249      1.11877053286267
  O   -0.34064735411628      1.14558590790356      2.23804218248172
  O   0.20680558983834      2.32056635911829      0.47559856770829
  N   1.54358152287543      0.36030104717398     -0.58494976567069
  H   1.11403837519138      0.99506535410482     -1.24368629720356
  H   1.89679375155317     -0.46747695952203     -1.04506992475699
