14
Coordinates from ORCA-job run
  C   -0.78220528854008     -0.71566853624175      0.05419718234188
  C   0.58492813181909     -0.14656081119527      0.42381417902794
  Br  -0.55317869168134     -2.69691836447660     -0.18325538344929
  H   1.07757208945856     -0.78603485089733      1.15535506918086
  H   -1.46133233519750     -0.64022157364282      0.89983744427154
  N   -1.29788843470881     -0.04188079833260     -1.07272493789762
  H   -2.27464327676352     -0.24996020626991     -1.22763849900282
  H   -0.77023872980447     -0.27033897505298     -1.90646921973573
  N   0.28311393504967      1.15076734559470      1.21268851344738
  O   -0.32119021115680      1.00481264673186      2.27065762389725
  O   0.66540215754008      2.21496066919430      0.73977752321995
  N   1.39449739673246      0.07565187685367     -0.71335033524170
  H   1.09105595911649      0.91473015524638     -1.19212486752935
  H   2.36610729813619      0.18766142248833     -0.46076429253030
