14
Coordinates from ORCA-job run
  C   -0.50287953345560     -0.75498126097800     -0.37442611656764
  C   0.50609566314420      0.03041657155304      0.46225241652800
  Br  -0.12040733341991     -0.53374546769225     -2.34940340515032
  H   0.36475124919722     -0.30124335655785      1.49359911893422
  H   -0.26501965205260     -1.80889424546863     -0.22591748667420
  N   -1.83363166301960     -0.50483049980423      0.00844695483559
  H   -2.47276687767448     -1.18955866098759     -0.37032851749181
  H   -2.12751449423879      0.42681948387234     -0.25379965097161
  N   0.13024588045680      1.51193190061130      0.54376336782954
  O   0.61495417673912      2.12101899051534      1.48795501968690
  O   -0.58684016365139      1.99495093537010     -0.33175147823186
  N   1.87274756473095     -0.06063149278258      0.09682414071867
  H   2.01050641058215     -0.26521500247618     -0.88163642044363
  H   2.40975877266192     -0.66603789517484      0.69442205699817
