14
Coordinates from ORCA-job run
  C   -0.49755813873190     -0.75010005660347     -0.30713877619549
  C   0.53137319269411      0.09297981763830      0.46496466229348
  Br  -0.38361961750349     -0.20562095785169     -2.26596222905752
  H   0.35379927459257     -0.10586610171504      1.52508286711417
  H   -0.11619295346728     -1.77034371857696     -0.34719052557452
  N   -1.78122112930809     -0.73123808400710      0.25133026513061
  H   -2.15570729605219      0.20364488398129      0.34164221481393
  H   -2.42719035442407     -1.33841685514200     -0.23294074114320
  N   0.18560065211361      1.55970776020771      0.28412285372653
  O   -0.89188162265158      1.91390222708240      0.76595168347677
  O   0.95971515361124      2.26913482535960     -0.33849231481009
  N   1.90465678076610     -0.10128550629525      0.15687100582888
  H   2.07672359397383     -0.06370665937569     -0.83925630163958
  H   2.24150246438714     -0.97179157470211      0.54301533603604
