14
Coordinates from ORCA-job run
  C   -0.58520106678277     -0.75754693450176     -0.47071961700715
  C   0.46298840533467     -0.04840899347628      0.40155376105566
  Br  -0.28096805838880     -0.16548895783019     -2.35173827098743
  H   0.21278231413467     -0.26372589140894      1.44459909259663
  H   -0.29699625262176     -1.80824590735558     -0.48356668466716
  N   -1.94495555549942     -0.62582094308052     -0.11548222474449
  H   -2.17004137779907      0.27882462259930      0.27035898714955
  H   -2.27539126669323     -1.38505795472685      0.45946848931788
  N   0.26168606569559      1.47602431359272      0.30136127417590
  O   1.18398654170153      2.14888498640134     -0.13989173049507
  O   -0.82141466723007      1.91052921332250      0.69253079514202
  N   1.77635892523386     -0.47248359115813      0.10513066177464
  H   2.45113600000247     -0.05564909524448      0.73210494024723
  H   2.02502999291234     -0.23383486713313     -0.84670947355823
