14
Coordinates from ORCA-job run
  C   -0.58323591946133     -0.30036725877961     -0.60808426417559
  C   0.20411900385752      0.34151109392706      0.53660808412500
  Br  -2.24153713997846      0.76583465879256     -0.93894920561639
  H   -0.39269304103980      0.35593260066094      1.45052655403064
  H   -0.01186592863936     -0.20884675186983     -1.53176908908532
  N   -0.82511061001355     -1.66514235013768     -0.30275527630027
  H   -1.16559376615902     -2.17161075598582     -1.10916212369769
  H   -1.50305049369036     -1.75980661592631      0.44442204664509
  N   0.47512949300510      1.77641746990924      0.20053905298384
  O   0.03996381724381      2.64092510495841      0.95067444383794
  O   1.14446959135017      1.96030120757799     -0.81480818808700
  N   1.48548447771777     -0.26625714876988      0.78000788971560
  H   1.33826009425396     -1.24030891799276      1.01455746401516
  H   2.03566042155352     -0.22958233636429     -0.07180738839105
