14
Coordinates from ORCA-job run
  C   -0.61894925374814     -0.78150167731221      0.11911337993713
  C   0.60082715528982      0.06691141753564      0.50413250408222
  Br  -0.04726000650413     -2.65173431157736      0.08119690466553
  H   1.06281217192676     -0.32605886178277      1.40814673556695
  H   -1.36402638059234     -0.74241707860211      0.92270427301929
  N   -1.08196216328994     -0.41892505008339     -1.19415830277235
  H   -1.86688278238685     -0.99343374877184     -1.47207404268111
  H   -1.35663419491913      0.55829080241573     -1.19683110410455
  N   0.02658371519506      1.41043328929347      0.95585848469224
  O   0.04759152802303      1.65025287417061      2.16003098263836
  O   -0.44360789356248      2.13947435477053      0.08566391942669
  N   1.53557311905100      0.27693255143821     -0.53908434447276
  H   1.12395293741646      0.06212558054658     -1.43844087513731
  H   2.38198204810087     -0.25035014204106     -0.39525851486035
