14
Coordinates from ORCA-job run
  C   -0.65971205017918     -0.75190889204017      0.05749960248554
  C   0.59690153449354     -0.00400506981537      0.52674529520435
  Br  -0.19083497056675     -2.64082726974749     -0.12753631753618
  H   0.99828068740750     -0.47195844878868      1.42391918866950
  H   -1.41611714506131     -0.73653434253248      0.85091919801863
  N   -1.07460831644372     -0.25402889959808     -1.22754528941235
  H   -1.29273677892890      0.73495672276233     -1.16100202052017
  H   -1.88492519247830     -0.75563422242761     -1.56687796910499
  N   0.07413731704193      1.34298017482036      1.02336597948097
  O   -0.11959855855601      1.44787585496388      2.23191999053362
  O   -0.16379870220128      2.20103659514396      0.17752530304702
  N   1.59069625554812      0.20192782215615     -0.46110149860852
  H   2.35002024610747     -0.45343115590776     -0.35919477198407
  H   1.19029567381692      0.13755113101096     -1.38863669027334
