14
Coordinates from ORCA-job run
  C   -0.86976526771068     -0.24491868949631     -0.53789274734681
  C   0.20207579936278      0.33173972115489      0.38354705666724
  Br  -2.52613412248262      0.74807159543886     -0.18748976167338
  H   -0.16058684452822      0.38623123571766      1.41682634895185
  H   -0.59234811806605     -0.02271842897656     -1.56696670057402
  N   -1.10612097678901     -1.64424216845585     -0.39549964665909
  H   -1.20688075090632     -1.95136789516729      0.56171914866371
  H   -0.44400386138577     -2.20473489821353     -0.91152142222269
  N   0.50211353720716      1.76270591471352      0.01770711636275
  O   0.48208594994551      2.07027615248905     -1.16808750984125
  O   0.80734244193862      2.49954196837630      0.95407400626288
  N   1.44314185061442     -0.38479586923659      0.18765979510826
  H   2.16009436216161      0.00326158479572      0.79150553932814
  H   1.30998600063847     -1.35205022313987      0.45341877697243
