14
Coordinates from ORCA-job run
  C   -0.49793498766500     -0.78963146021233     -0.18134757768898
  C   0.54828221982835      0.16072161716479      0.42408553074151
  Br  -0.47084123947645     -0.51492357575893     -2.20089799660584
  H   0.41801744374242      0.10670698646494      1.50809454027530
  H   -0.10273073119574     -1.80212599562582     -0.10096676226474
  N   -1.75853372807379     -0.70835445179086      0.42119896617416
  H   -2.41310056570643     -1.38390661730424      0.05293998395826
  H   -2.14455693573371      0.22595227110906      0.40013322046186
  N   0.17155947682479      1.58643721354446      0.06155470681031
  O   -0.89198529481384      1.99037986666680      0.53521124210924
  O   0.90926855089104      2.21410363287696     -0.68125872156353
  N   1.90985570849198     -0.06063378454240      0.08656848658689
  H   2.04041783676363     -0.16914023447515     -0.91053968410805
  H   2.28228224612274     -0.85658546811728      0.58422406511361
