14
Coordinates from ORCA-job run
  C   -0.58074217680439     -0.70706409733972     -0.52520187870110
  C   0.49204318111781     -0.12867794389346      0.39486051391552
  Br  -0.20628191460908     -0.20197426270596     -2.42088270182910
  H   0.29441975702535     -0.51225504019484      1.39989542288875
  H   -0.41078950411483     -1.78649734401895     -0.54389886425033
  N   -1.88258833096191     -0.28829876713851     -0.16660805275454
  H   -2.60370100018297     -0.93556508849202     -0.44137447492203
  H   -1.98154162936553      0.03039133311007      0.78500078994762
  N   0.25255747369730      1.38022831533761      0.54965157858719
  O   -0.57898175978797      1.71565612191511      1.39317662098839
  O   0.90420593806431      2.13439317148558     -0.16268267106419
  N   1.79930828750037     -0.46859210796689     -0.01396436876277
  H   2.48743179007475     -0.17422747316329      0.66573676981767
  H   2.01665988834679     -0.05951681693476     -0.91370868386107
