14
Coordinates from ORCA-job run
  C   -0.78028151108091     -0.21386368851283     -0.57474771779584
  C   0.19718886731941      0.32056728783285      0.48347001749907
  Br  -2.45046826189546      0.79650342338093     -0.44786849200011
  H   -0.24482027259465      0.25893969541185      1.47918972850097
  H   -0.37064510450717     -0.00032794180985     -1.56420498082563
  N   -1.07080232172681     -1.61234151855256     -0.47129734344002
  H   -1.36784695326221     -1.87432297668077      0.46008471088921
  H   -0.28636151439058     -2.17703001423439     -0.76741869417580
  N   0.44616235751873      1.77963271136547      0.22867460602370
  O   0.16278809211871      2.58379522418548      1.10772066033650
  O   0.94523057687742      2.03845018487367     -0.86554119946722
  N   1.48906961861754     -0.30756865201849      0.47610527293095
  H   1.86279056259970     -0.37732017202389     -0.46201457183144
  H   1.46499586440626     -1.21411356321746      0.91884800335567
