14
Coordinates from ORCA-job run
  C   -0.58997655162168     -0.78459734341192     -0.31569004470798
  C   0.51859777033947     -0.05477388859536      0.43742440930175
  Br  -0.49738761061837     -0.15326045762241     -2.25669557860004
  H   0.36499427889547     -0.24659404421185      1.50306003356228
  H   -0.28132659073056     -1.82365624273690     -0.40935207238201
  N   -1.85124508893455     -0.68714537497988      0.28155121619510
  H   -2.54683718747453     -1.24396896434565     -0.19443424414146
  H   -2.15901259249298      0.26958420844677      0.39025081935506
  N   0.30410129849272      1.47024653052794      0.31524740210579
  O   1.23302616956733      2.14376216351470     -0.11005183907743
  O   -0.78556898073817      1.90323891959715      0.68546884989787
  N   1.80001439142847     -0.48242334595633      0.02894795656524
  H   2.52575178932035     -0.05893971537049      0.59045918621964
  H   1.96486890456704     -0.25247244485575     -0.94318609429382
