14
Coordinates from ORCA-job run
  C   -0.51667342933482     -0.73749247334125     -0.30537896297227
  C   0.54421420230802      0.07771161236092      0.45221415615890
  Br  -0.44361760738245     -0.16140679481156     -2.25943921161480
  H   0.39277604827513     -0.13540813209058      1.51365183280353
  H   -0.15156619484874     -1.76210133082130     -0.37383018969977
  N   -1.78590823224040     -0.70971948258189      0.28372834243568
  H   -2.14601693808461      0.22829286704093      0.39716897091105
  H   -2.45127669602423     -1.30185910591658     -0.19294248517124
  N   0.21555896478704      1.55276771352156      0.30432040769048
  O   -0.84497391306917      1.91331557036846      0.81816328562682
  O   0.98532005821694      2.26227925383823     -0.32349211445828
  N   1.90546571027510     -0.13178402697836      0.10466605370486
  H   2.24368350363325     -1.00786075503837      0.47635057568915
  H   2.05201452348895     -0.08773491555019     -0.89518066110409
