14
Coordinates from ORCA-job run
  C   -0.52505037512866     -0.72156354185773     -0.44306692667170
  C   0.49714233745152      0.06972299959809      0.41180742506150
  Br  -0.25791442547234     -0.21354912167450     -2.34444934260325
  H   0.27875541659610     -0.17963578365224      1.45393037251527
  H   -0.20242446379023     -1.76403956268019     -0.40869279419927
  N   -1.89301587393513     -0.63750549917005     -0.08496529356334
  H   -2.15161279140529      0.27897128514219      0.25287499820027
  H   -2.16517480065387     -1.35898568284689      0.56605208268160
  N   0.18021212922895      1.54300790677646      0.29839406545000
  O   0.92763758038827      2.24561949563497     -0.36591206076516
  O   -0.85079320544228      1.91586044706375      0.86365769223828
  N   1.88270967529992     -0.12462306031169      0.15043111344703
  H   2.09076770671224     -0.02708180280141     -0.83487932298606
  H   2.18776109015083     -1.02819807922079      0.48481799119477
