15

C	-0.552732	0.020889	-1.414725
C	0.0	0.0	0.0
Br	-2.478979	0.275848	-1.447769
H	1.092205	0.0	0.0
H	-0.107194	0.819021	-1.999901
N	-0.190847	-1.272774	-2.103242
O	-0.952194	-2.227575	-2.029211
O	0.899363	-1.243378	-2.668682
N	-0.456845	-1.092564	0.762682
H	0.176218	-1.261374	1.529997
H	-1.397259	-0.967444	1.106916
N	-0.342728	1.371635	0.597768
O	-0.807651	1.397618	1.733672
O	-0.099173	2.355698	-0.09138
Cl	3.217496	0.0	0.0
