15

C	-0.457864	0.003176	-1.450269
C	0.0	0.0	0.0
Br	-2.379086	0.197563	-1.628035
H	1.092231	0.0	0.0
H	0.009644	0.815449	-1.999492
N	0.012151	-1.28004	-2.102899
O	-0.772443	-2.204676	-2.268586
O	1.202727	-1.262797	-2.394766
N	-0.508317	-1.094471	0.725137
H	-1.495256	-0.997449	0.92466
H	0.008668	-1.215794	1.584658
N	-0.387528	1.372607	0.556218
O	-0.031796	2.35315	-0.090351
O	-1.010942	1.40426	1.615685
Cl	3.215593	0.0	0.0
