15

C	-0.611807	-0.034267	-1.388284
C	0.0	0.0	0.0
Br	0.138383	-1.479633	-2.418236
H	1.088184	0.0	0.0
H	-1.690771	-0.16758	-1.368827
N	-0.38428	1.239773	-2.153842
O	0.582086	1.923397	-1.844696
O	-1.194773	1.480104	-3.045155
N	-0.443561	-1.13431	0.751756
H	0.201585	-1.30794	1.511933
H	-1.387622	-1.022774	1.102473
N	-0.47016	1.276168	0.677617
O	-1.520525	1.784023	0.265411
O	0.155726	1.652754	1.659784
Cl	3.305769	0.0	0.0
