12

C	-0.344165	-0.042823	-1.446601
C	-0.026871	0.019193	0.048819
F	-0.013746	1.164852	-2.022037
H	1.069464	-0.001908	0.033409
H	-1.412429	-0.20452	-1.623566
C	0.386867	-1.136349	-2.124026
N	0.719272	-2.046266	-2.789934
C	-0.517171	-1.165111	0.725564
N	-0.862015	-2.151721	1.266657
C	-0.54772	1.230439	0.646654
N	-0.91072	2.230092	1.151845
H	2.359606	-0.188715	-0.359988
