12

C	-0.343334	-0.029262	-1.447716
C	-0.033219	0.021948	0.049462
F	-0.005682	1.181158	-2.013146
H	1.062915	-0.003341	0.037918
H	-1.411228	-0.185904	-1.631244
C	0.387309	-1.121104	-2.128707
N	0.714929	-2.028343	-2.800761
C	-0.530323	-1.165238	0.716445
N	-0.890074	-2.149294	1.252305
C	-0.553846	1.230477	0.653094
N	-0.917857	2.227369	1.162997
H	2.352428	-0.202563	-0.357615
