12

C	-0.3446	-0.032321	-1.446832
C	-0.032813	0.022839	0.049843
F	-0.0035	1.175069	-2.016717
H	1.063362	-0.007249	0.03737
H	-1.413178	-0.186084	-1.628794
C	0.381715	-1.128836	-2.124977
N	0.705359	-2.039054	-2.794935
C	-0.534378	-1.159879	0.721377
N	-0.898329	-2.14033	1.261003
C	-0.547411	1.235683	0.649887
N	-0.90611	2.235839	1.157167
H	2.351285	-0.212363	-0.358728
