12

C	-0.186932	-0.053781	-1.46225
C	-0.009227	0.034379	0.047683
F	-1.462481	-0.455321	-1.836076
H	1.087738	0.021004	0.07946
H	0.548348	-0.791343	-1.803712
C	0.097236	1.234774	-2.109522
N	0.272235	2.248074	-2.675314
C	-0.488523	-1.180959	0.685556
N	-0.816593	-2.181003	1.208859
C	-0.593517	1.214944	0.654756
N	-1.01069	2.189761	1.165482
H	2.41649	-0.272564	-0.408357
