19

C	0.0	0.0	0.0
C	-0.196593	-0.189464	-1.552586
Cl	1.810642	0.0	0.0
H	0.432153	0.566585	-2.023734
C	-0.505581	1.341653	0.482575
H	-0.140271	2.154917	-0.14618
H	-1.60009	1.32583	0.452299
H	-0.177728	1.509769	1.511815
C	-0.557397	-1.140092	0.815714
H	-1.649811	-1.118721	0.709207
H	-0.304862	-1.004479	1.870131
H	-0.169534	-2.105846	0.488338
N	-1.563559	0.1621	-2.094498
O	-2.305548	-0.752808	-2.424368
O	-1.782287	1.363139	-2.232677
N	0.129815	-1.488473	-2.088893
H	-0.63877	-2.120696	-1.899892
H	0.972379	-1.833029	-1.649371
Br	-4.211056	0.0	0.0
