19

C	0.0	0.0	0.0
C	-0.362521	0.130906	-1.503247
Cl	1.800427	0.0	0.0
H	0.140984	-0.685673	-2.024051
C	-0.514668	1.107151	0.900439
H	-0.216105	0.893571	1.930436
H	-0.125848	2.080263	0.611014
H	-1.608409	1.124117	0.859062
C	-0.506752	-1.350603	0.47781
H	-0.158566	-1.53688	1.496577
H	-0.146453	-2.158743	-0.164321
H	-1.60086	-1.335864	0.477495
N	0.29448	1.362469	-2.114009
O	-0.063734	2.461243	-1.700042
O	1.095988	1.179699	-3.02868
N	-1.731385	0.174223	-1.86808
H	-2.367128	0.56191	-1.174394
H	-2.087666	-0.743213	-2.089186
Br	-4.419968	0.0	0.0
