19

C	0.0	0.0	0.0
C	-0.367471	-0.061579	-1.508697
Cl	1.801803	0.0	0.0
H	0.089273	-0.966868	-1.912418
C	-0.518514	1.213537	0.747918
H	-1.612776	1.202903	0.723644
H	-0.150449	2.143056	0.31801
H	-0.2002	1.149981	1.791575
C	-0.508792	-1.27765	0.647783
H	-1.603356	-1.261062	0.637525
H	-0.143393	-2.162563	0.119979
H	-0.170114	-1.327156	1.684859
N	0.322826	1.043179	-2.281695
O	1.14351	0.713343	-3.134757
O	-0.021045	2.197499	-2.042901
N	-1.738124	-0.00559	-1.886099
H	-2.283624	0.664536	-1.354307
H	-2.203255	-0.890814	-1.734552
Br	-4.408352	0.0	0.0
