19

C	0.0	0.0	0.0
C	-0.199361	-0.139417	-1.556414
Cl	1.809949	0.0	0.0
H	0.42933	0.630638	-2.004001
C	-0.506843	1.323404	0.530504
H	-0.155777	2.158478	-0.077601
H	-1.601718	1.30265	0.514224
H	-0.165849	1.460825	1.560089
C	-0.555489	-1.166342	0.780181
H	-0.168169	-2.121235	0.421812
H	-1.648323	-1.14217	0.677374
H	-0.300291	-1.064009	1.837717
N	-1.566124	0.23068	-2.085888
O	-2.305512	-0.672018	-2.454341
O	-1.787387	1.43556	-2.174732
N	0.126067	-1.421437	-2.133679
H	0.959756	-1.786347	-1.694422
H	-0.649033	-2.053839	-1.974673
Br	-4.204202	0.0	0.0
