19

C	0.0	0.0	0.0
C	-0.414781	0.057978	-1.504505
Cl	1.793097	0.0	0.0
H	-0.175752	-0.908968	-1.951522
C	-0.502181	1.179877	0.812913
H	-0.169684	2.12569	0.386407
H	-1.595412	1.149075	0.844676
H	-0.124886	1.099537	1.83535
C	-0.516342	-1.305078	0.580291
H	-0.139633	-2.163459	0.018294
H	-0.198215	-1.403524	1.620928
H	-1.611249	-1.293882	0.551422
N	0.462772	1.026161	-2.266705
O	0.33986	2.219103	-1.996831
O	1.209396	0.570376	-3.128806
N	-1.748505	0.434345	-1.833012
H	-1.991915	1.317327	-1.401281
H	-2.450006	-0.221437	-1.495161
Br	-4.428868	0.0	0.0
