17

C	0.0	0.0	0.0
C	-0.592507	-0.176024	-1.40396
Br	1.931199	0.0	0.0
H	-1.68359	-0.229556	-1.21812
C	-0.529242	1.23453	0.696917
H	-0.135356	1.283468	1.710577
H	-0.221688	2.124921	0.146581
H	-1.621575	1.161909	0.714957
N	-0.401598	-1.215068	0.849784
O	-0.972755	-2.145165	0.293499
O	-0.114657	-1.163382	2.039744
N	-0.062176	-1.337931	-2.11658
H	0.125089	-1.102988	-3.083587
H	-0.758708	-2.071426	-2.086255
C	-0.329925	1.041128	-2.174349
N	-0.101244	1.985278	-2.834402
Cl	-3.741331	0.0	0.0
