17

C	0.0	0.0	0.0
C	-0.419181	-0.175841	-1.499158
Br	1.947127	0.0	0.0
H	-0.09736	0.771505	-1.955361
C	-0.622921	1.213089	0.638135
H	-1.710353	1.063355	0.653769
H	-0.26496	1.337753	1.658134
H	-0.382071	2.101462	0.050061
N	-0.381134	-1.22943	0.81653
O	-0.707736	-2.237657	0.198928
O	-0.305886	-1.126499	2.034755
N	-1.802066	-0.380989	-1.813245
H	-2.429158	0.31891	-1.425018
H	-2.135423	-1.256901	-1.430995
C	0.362719	-1.229716	-2.175087
N	0.947205	-2.049396	-2.778844
Cl	-4.286298	0.0	0.0
