18

C	-0.457161	0.016392	-1.429521
C	0.0	0.0	0.0
Cl	0.374791	1.280711	-2.316235
H	1.091084	0.0	0.0
N	-0.173742	-1.293136	-2.203025
O	0.992331	-1.633077	-2.237351
O	-1.129496	-1.834327	-2.743972
N	-1.979721	0.223967	-1.585277
O	-2.65701	-0.210585	-0.660351
O	-2.401089	0.758506	-2.600147
N	-0.442629	-1.199803	0.726359
O	-0.522249	-1.120216	1.951845
O	-0.638395	-2.239004	0.092515
C	-0.366317	1.256367	0.76956
H	-0.072889	2.132791	0.192846
H	-1.429284	1.30946	1.018223
H	0.218877	1.259786	1.686908
F	2.467271	0.0	0.0
