16

C	-0.555363	0.041712	-1.417339
C	0.0	0.0	0.0
Cl	-0.071965	-1.437887	-2.307067
H	1.090762	0.0	0.0
H	-1.649115	0.009196	-1.364519
C	-0.055063	1.26673	-2.161783
H	-0.450874	2.170554	-1.690727
H	1.037805	1.298552	-2.137591
H	-0.393608	1.24626	-3.199585
N	-0.515194	-1.269403	0.634972
O	-1.744004	-1.384606	0.652399
O	0.280667	-2.081704	1.084241
N	-0.44915	1.093048	0.820454
H	-1.372479	1.419307	0.569019
H	0.222694	1.845569	0.79947
Br	3.609161	0.0	0.0
