16

C	-0.423647	0.001174	-1.459774
C	0.0	0.0	0.0
Cl	-2.229199	-0.055631	-1.593334
H	1.092987	0.0	0.0
H	-0.146386	0.995763	-1.810043
C	0.208227	-1.061634	-2.333016
H	1.287838	-1.046245	-2.16004
H	-0.000514	-0.844945	-3.383312
H	-0.167808	-2.054562	-2.093315
N	-0.431163	-1.309535	0.656311
O	0.109845	-2.342156	0.270394
O	-1.300295	-1.258562	1.529536
N	-0.478639	1.143596	0.694597
H	-1.45591	1.030594	0.935547
H	0.058074	1.265477	1.544528
Br	3.481912	0.0	0.0
