18

C	0.0	0.0	0.0
C	-0.416985	0.008879	-1.500834
Cl	1.783982	0.0	0.0
H	0.156797	0.823803	-1.957767
N	-0.351599	1.351198	0.624505
O	-0.402029	2.3234	-0.124328
O	-0.501073	1.386748	1.840285
C	-0.597774	-1.106758	0.816913
H	-0.207693	-1.098556	1.832902
H	-0.379493	-2.051124	0.322552
H	-1.681979	-0.955177	0.84962
N	-1.797354	0.244549	-1.787447
H	-2.067909	1.194301	-1.573101
H	-2.449724	-0.346032	-1.274211
N	-0.071712	-1.305213	-2.044982
H	0.915633	-1.349428	-2.265334
H	-0.600884	-1.384464	-2.905224
Br	-4.580136	0.0	0.0
