18

C	0.0	0.0	0.0
C	-0.639798	0.109168	-1.416164
Cl	1.761565	0.0	0.0
H	-1.606726	0.593408	-1.229955
N	-0.359521	1.294381	0.740116
O	-0.152579	2.347946	0.139309
O	-0.81029	1.208923	1.87541
C	-0.495697	-1.178515	0.799682
H	-1.584678	-1.126388	0.865416
H	-0.187888	-2.085248	0.2809
H	-0.070518	-1.162965	1.801221
N	-0.816837	-1.238914	-1.944832
H	-1.021092	-1.100521	-2.928937
H	-1.674129	-1.599641	-1.530161
N	0.082355	0.884169	-2.400824
H	1.02928	0.526085	-2.472944
H	0.137825	1.840934	-2.07424
Br	-3.951019	0.0	0.0
