18

C	0.0	0.0	0.0
C	-0.414228	-0.052709	-1.499231
Cl	1.787227	0.0	0.0
H	0.138933	0.759049	-1.985543
N	-0.352216	1.370424	0.578218
O	-0.435114	1.457526	1.79734
O	-0.468051	2.306081	-0.208567
C	-0.589586	-1.080358	0.858412
H	-1.675453	-0.940141	0.89288
H	-0.363437	-2.039699	0.396738
H	-0.193749	-1.034638	1.871192
N	-1.800566	0.135034	-1.792234
H	-2.432304	-0.457713	-1.258311
H	-2.102662	1.080905	-1.604517
N	-0.038007	-1.376335	-1.99725
H	-0.567053	-1.498514	-2.852676
H	0.949283	-1.40474	-2.220001
Br	-4.581404	0.0	0.0
