18

C	0.0	0.0	0.0
C	-0.583464	-0.042927	-1.41936
Cl	1.77377	0.0	0.0
H	-1.618733	0.282529	-1.282079
N	-0.362097	1.362486	0.637261
O	-0.025928	1.513359	1.808832
O	-0.947429	2.191618	-0.044368
C	-0.53237	-1.063955	0.928777
H	-0.150042	-0.897295	1.934378
H	-1.626095	-0.999891	0.924463
H	-0.216542	-2.049235	0.585546
N	-0.636128	-1.389545	-1.971111
H	0.173584	-1.933214	-1.69277
H	-1.470782	-1.847724	-1.622835
N	0.128975	0.891121	-2.281506
H	0.697103	0.346624	-2.920304
H	-0.559504	1.38008	-2.840134
Br	-3.945502	0.0	0.0
