12

C	-0.11571	-0.010324	0.006311
C	-0.502526	0.041853	-1.450082
F	1.237996	0.202011	0.165203
H	-0.056702	-0.799238	-1.983074
H	-0.685818	0.677052	0.624247
H	-1.595996	-0.026393	-1.479613
N	-0.351915	-1.385676	0.583075
O	-0.292318	-1.454201	1.805515
O	-0.496962	-2.332523	-0.185612
C	-0.056145	1.295458	-2.048422
N	0.311484	2.289677	-2.551362
Cl	-3.30649	0.356686	0.216918
