12

C	-0.111808	-0.008137	0.008094
C	-0.498213	-0.096805	-1.446714
F	1.241943	0.218448	0.146034
H	-1.591728	-0.167525	-1.469575
H	-0.681762	0.735796	0.556772
H	-0.05256	-0.985716	-1.895568
N	-0.348312	-1.3214	0.714793
O	-0.288712	-1.271807	1.938143
O	-0.493343	-2.337978	0.04099
C	-0.051359	1.092951	-2.163229
N	0.317435	2.033371	-2.760028
Cl	-3.302853	0.378897	0.182294
