12

C	-0.096618	-0.002992	0.015451
C	-0.46066	-0.464293	-1.373104
F	1.254835	0.256639	0.110813
H	-1.553706	-0.542982	-1.392916
H	-0.674884	0.85486	0.345631
H	-0.008602	-1.436998	-1.572312
N	-0.344074	-1.09112	1.032605
O	-0.47747	-2.247538	0.640872
O	-0.305	-0.728126	2.20278
C	-0.00378	0.503526	-2.364662
N	0.373769	1.260511	-3.177685
Cl	-3.289539	0.402479	0.036202
