16

C	-0.593708	0.025743	-1.413645
C	0.0	0.0	0.0
Br	-0.153606	1.609381	-2.492819
H	1.090052	0.0	0.0
C	0.018727	-1.097807	-2.152397
N	0.392497	-2.02069	-2.779492
N	-2.038215	-0.071053	-1.34494
H	-2.41777	-0.186687	-2.278519
H	-2.231062	-0.914632	-0.808887
N	-0.417761	-1.263577	0.581068
H	0.427027	-1.696458	0.937414
H	-1.041802	-1.083875	1.357301
N	-0.51353	1.153495	0.798033
O	-1.243011	0.925439	1.771561
O	-0.1638	2.27748	0.45718
F	2.520816	0.0	0.0
