16

C	-0.595507	-0.021004	-1.424355
C	0.0	0.0	0.0
Br	-0.053226	1.549053	-2.469623
H	1.092113	0.0	0.0
C	-0.013671	-1.191887	-2.091605
N	0.439225	-2.121216	-2.648714
N	-2.042542	-0.123498	-1.512169
H	-2.446516	0.701327	-1.078718
H	-2.295598	-0.927343	-0.941781
N	-0.479008	-1.198939	0.65031
H	0.320701	-1.611363	1.115471
H	-1.195452	-0.974464	1.330039
N	-0.500091	1.225381	0.697682
O	0.14933	2.260978	0.59356
O	-1.567455	1.140297	1.330427
F	2.529024	0.0	0.0
