16

C	-0.470277	-0.054768	-1.451352
C	0.0	0.0	0.0
Br	0.250722	1.557988	-2.452747
H	1.090274	0.0	0.0
C	0.212532	-1.184006	-2.092721
N	0.689404	-2.107427	-2.640345
N	-1.875708	-0.218334	-1.608841
H	-2.126522	-0.313093	-2.5847
H	-2.333771	0.588368	-1.201957
N	-0.404771	-1.171962	0.727985
H	-1.171314	-1.661544	0.285621
H	0.405652	-1.766583	0.831997
N	-0.54249	1.194675	0.717896
O	-0.037688	1.451648	1.802082
O	-1.477724	1.844205	0.22381
F	2.520778	0.0	0.0
