16

C	-0.467213	-0.109655	-1.450075
C	0.0	0.0	0.0
Br	0.12453	1.566321	-2.43861
H	1.090583	0.0	0.0
C	0.301519	-1.181428	-2.090371
N	0.807299	-2.083245	-2.648033
N	-1.852432	-0.382103	-1.612431
H	-2.379582	0.373384	-1.190164
H	-2.09619	-0.492347	-2.588654
N	-0.410297	-1.14063	0.774838
H	0.404407	-1.723637	0.913596
H	-1.166666	-1.655477	0.344189
N	-0.571331	1.218416	0.660085
O	0.07362	1.707435	1.578495
O	-1.68628	1.632712	0.303727
F	2.532154	0.0	0.0
