17
Coordinates from ORCA-job run
  C   1.03796290816606     -0.43772103208279      0.10204033026826
  C   -0.49671896872168     -0.43944962774801      0.25219638554813
  H   1.37344862935814     -1.38418646787147     -0.32822238345578
  H   -0.69410061315841     -1.27646773192581      0.93431869469825
  C   1.71823979856218     -0.19826163707893      1.37063761870733
  N   2.23469357823651     -0.05308704093847      2.41504556577342
  N   1.45624858163614      0.61475499593913     -0.89472084968693
  O   1.58389111540073      0.23331531141560     -2.05482016366953
  O   1.58073018917602      1.76473932960562     -0.48585784061891
  C   -1.17149263290688     -0.73245970630439     -1.08567070870634
  H   -1.05935772861473      0.10310427838010     -1.78012881581995
  H   -0.75977232175887     -1.62411911387113     -1.56417642718478
  H   -2.24029203905174     -0.89297141907170     -0.92758107417945
  C   -1.03019012730565      0.83931949616580      0.89104012137215
  H   -0.55131601817984      1.04733389231063      1.84996881366720
  H   -2.10351330120766      0.73336485723644      1.06500269578399
  H   -0.87746104963033      1.70279161583938      0.24092803750292
