17
Coordinates from ORCA-job run
  C   0.96978004151996     -0.31780333172840     -0.36545683421490
  C   -0.52145522566947      0.05687384454359     -0.40042219204488
  H   1.20814468070945     -0.98708166176540     -1.19676480032207
  H   -0.68962328768499      0.47646620206901     -1.39849586789242
  C   1.36221911048163     -0.93105125308439      0.89859518232354
  N   1.62091765121057     -1.47089523008123      1.90882314933551
  N   1.78554601325666      0.92927459797240     -0.61493029952740
  O   1.73742896251053      1.35196683705658     -1.76556198625476
  O   2.37077067696851      1.44497378808756      0.33042500424960
  C   -0.85781229454851      1.10552296894022      0.65430951886090
  H   -0.30731957823044      2.03623837936718      0.50226820827405
  H   -1.92350730442670      1.34123742712110      0.61089053464937
  H   -0.63441483572138      0.73703965271403      1.65924191682001
  C   -1.36358147199636     -1.20557528536010     -0.23735136855165
  H   -1.10130252749630     -1.96516675530551     -0.97888954564255
  H   -2.42134993806667     -0.96502290898850     -0.36492686679021
  H   -1.23544067281649     -1.63799727155814      0.75824624672784
