17
Coordinates from ORCA-job run
  C   1.05354190559686     -0.40529176861721      0.07363344850897
  C   -0.47723119719062     -0.46184853934862      0.25090889376394
  H   1.41175964950576     -1.33046290509362     -0.38371038845627
  H   -0.63540248672710     -1.32198755731906      0.91416825021958
  C   1.75003625502157     -0.17129070678396      1.33438027416520
  N   2.28663730567124     -0.03310642905428      2.36954536069658
  N   1.41730029294077      0.68155655041934     -0.90753643203969
  O   1.50552383838908      1.82686348214076     -0.47717204454055
  O   1.53860399495199      0.32813533818102     -2.07708507225581
  C   -1.16640773192358     -0.74267595931568     -1.08238307012537
  H   -2.22679056998529     -0.93950641331833     -0.91000727563597
  H   -1.09203339858033      0.11285796738259     -1.75737745124359
  H   -0.73671204521282     -1.60916949654015     -1.59057100953840
  C   -1.04107920610930      0.78197487095907      0.93173507592245
  H   -2.10741677829544      0.63693611721707      1.11975373155708
  H   -0.55337218956209      0.98047724074209      1.88827263929735
  H   -0.92695763849070      1.66653820834897      0.30244506970451
