17
Coordinates from ORCA-job run
  C   1.03400889768961     -0.03447028107395      0.32394654954266
  C   -0.44603541408611     -0.43683635665644      0.21115228659045
  H   1.44730470783557     -0.38775740026834      1.27268001246516
  H   -0.46052891489503     -1.52366177319766      0.34981356216510
  C   1.23318300914218      1.40499601671819      0.19642173282263
  N   1.34071766167463      2.57323364182599      0.14553740578355
  N   1.81447357202038     -0.76501218858279     -0.74351726930041
  O   2.19597099642368     -0.13583449258143     -1.72365706271873
  O   1.94648810676355     -1.96892196448226     -0.54922501129859
  C   -1.01505237109870     -0.09313928455194     -1.16117170156960
  H   -0.95495021261768      0.98158969733877     -1.35361460562679
  H   -0.49309724825763     -0.61338428129275     -1.96704557559426
  H   -2.06658699465092     -0.38548991887036     -1.20608187662507
  C   -1.23652503146984      0.22260825346122      1.33790494669011
  H   -1.25618341499519      1.30934473121255      1.22236586945718
  H   -0.81363840902657     -0.01139605409676      2.31882761431805
  H   -2.26854894045190     -0.13486834490203      1.32466312289856
