15

C	-0.33611	0.009313	-1.469089
C	0.0	0.0	0.0
F	-0.169042	-1.244865	-2.010871
H	1.089139	0.0	0.0
H	-0.36483	0.902574	0.484194
N	-1.795284	0.36535	-1.767904
O	-2.435128	0.943209	-0.898609
O	-2.189605	0.105663	-2.899913
N	0.443019	0.995194	-2.097264
H	1.414239	0.911148	-1.795834
H	0.374588	0.904963	-3.103248
N	-0.570766	-1.151546	0.732996
O	-1.558307	-1.712649	0.256645
O	-0.048763	-1.429441	1.806898
Cl	3.295496	0.0	0.0
