15

C	-0.644435	0.011482	-1.36284
C	0.0	0.0	0.0
F	-0.163029	1.148771	-2.010813
H	1.087783	0.0	0.0
H	-0.317736	0.909865	0.512254
N	-0.198156	-1.11195	-2.293889
O	0.887471	-1.626427	-2.088048
O	-0.950858	-1.33812	-3.242791
N	-2.045253	-0.028069	-1.296381
H	-2.394363	0.766161	-0.778595
H	-2.444254	-0.067754	-2.224323
N	-0.501913	-1.126463	0.821893
O	-0.601974	-2.228893	0.289977
O	-0.760684	-0.88131	1.999328
Cl	3.308417	0.0	0.0
