15

C	-0.498443	-0.172948	-1.418371
C	0.0	0.0	0.0
F	-1.825774	-0.491026	-1.397459
H	1.089625	0.0	0.0
H	-0.343196	-0.869279	0.562083
N	-0.36495	1.099955	-2.249789
O	-1.391722	1.697481	-2.536554
O	0.775339	1.389907	-2.577128
N	0.207889	-1.181426	-2.139564
H	1.199699	-0.948397	-2.113955
H	0.086122	-2.061782	-1.650883
N	-0.522023	1.182657	0.720792
O	-0.449124	2.271692	0.154381
O	-0.963114	1.00034	1.855851
Cl	3.262416	0.0	0.0
