15

C	-0.360215	0.010071	-1.472997
C	0.0	0.0	0.0
F	-0.228316	-1.237808	-1.978297
H	1.089014	0.0	0.0
H	-0.373087	0.907316	0.475572
N	-1.811414	0.436324	-1.700016
O	-2.555321	-0.306295	-2.318929
O	-2.095393	1.545171	-1.250546
N	0.438731	0.9112	-2.235152
H	1.416774	0.720579	-2.011218
H	0.23292	1.860688	-1.94712
N	-0.602164	-1.146368	0.719174
O	-1.793375	-1.365212	0.480184
O	0.0878	-1.769637	1.517443
Cl	3.311269	0.0	0.0
