15

C	-0.43607	-0.095056	-1.45401
C	0.0	0.0	0.0
F	-1.777448	-0.369767	-1.51503
H	1.086798	0.0	0.0
H	-0.420248	0.868311	0.499922
N	-0.288889	1.332326	-2.015815
O	0.611517	1.548929	-2.816303
O	-1.103566	2.14988	-1.596684
N	0.263131	-0.97394	-2.309055
H	1.230801	-0.665093	-2.357394
H	0.258414	-1.881532	-1.857995
N	-0.453518	-1.187323	0.762766
O	-0.851238	-0.997576	1.909802
O	-0.381172	-2.291842	0.221495
Cl	3.249275	0.0	0.0
