15

C	-0.556957	-0.08944	-1.400678
C	0.0	0.0	0.0
F	0.015002	0.917465	-2.124225
H	1.085248	0.0	0.0
H	-0.333655	0.952684	0.416325
N	-0.056575	-1.369717	-2.116001
O	-0.423306	-1.478458	-3.285713
O	0.620157	-2.173038	-1.489463
N	-1.957431	0.037455	-1.510834
H	-2.396522	-0.673597	-0.940421
H	-2.220147	-0.08036	-2.482524
N	-0.499965	-1.046178	0.928056
O	-1.395577	-1.810625	0.549493
O	-0.003027	-1.060505	2.046208
Cl	3.298529	0.0	0.0
