15

C	-0.52225	0.136642	-1.411004
C	0.0	0.0	0.0
F	0.194733	1.081467	-2.098067
H	1.095287	0.0	0.0
H	-0.357019	-0.916422	0.459187
N	-0.24684	-1.172608	-2.167616
O	0.052494	-2.173163	-1.533107
O	-0.401848	-1.1047	-3.38228
N	-1.920032	0.321125	-1.526187
H	-2.151822	0.397462	-2.510794
H	-2.158317	1.187569	-1.059973
N	-0.444781	1.110177	0.878996
O	-0.342231	0.914433	2.084645
O	-0.851811	2.160534	0.372691
Cl	3.267539	0.0	0.0
