15

C	-0.550739	-0.097596	-1.408829
C	0.0	0.0	0.0
F	-0.224205	1.095804	-2.020403
H	1.097165	0.0	0.0
H	-0.350582	0.958997	0.384172
N	0.15236	-1.174474	-2.232121
O	0.464095	-2.189266	-1.627284
O	0.244911	-0.970807	-3.437922
N	-1.919124	-0.402853	-1.498879
H	-2.280016	-0.166846	-2.413867
H	-2.45421	0.012511	-0.750495
N	-0.573609	-1.015763	0.923264
O	-1.733834	-0.797467	1.301102
O	0.111051	-1.965218	1.278115
Cl	3.319015	0.0	0.0
