11
Coordinates from ORCA-job run
  C   0.82237014264830      0.47083437509179      0.12333017808947
  C   -0.67222366938881      0.07709802997837      0.02870661044867
  Br  1.80069724279854     -0.76638970148549      1.25268635131448
  H   -1.15792685943438      0.80773414235176     -0.63269932192180
  H   0.89552535279812      1.45124126058805      0.60015779555405
  C   1.41086164391278      0.52372009608546     -1.20747903161419
  N   1.85653009891963      0.58263136644418     -2.29329269247035
  C   -1.31107829663799      0.15862254047412      1.34563539534331
  N   -1.82074750554666      0.25828901993720      2.39852377377632
  C   -0.84246973581408     -1.25381965806550     -0.56116784553187
  N   -0.98253841425544     -2.30996147139995     -1.05440121298809
