11
Coordinates from ORCA-job run
  C   0.82155783842227      0.47200214675641      0.12841406937476
  C   -0.67200166285423      0.07956705455834      0.01661209273411
  Br  1.77766042048966     -0.74570049481278      1.29773028033576
  H   -1.14581254341580      0.80009235659580     -0.66430358561751
  H   0.88935205937500      1.46120321904058      0.58751331095220
  C   1.43299985251497      0.49665415812500     -1.19281143747398
  N   1.90026577027343      0.52805632534483     -2.27048901796797
  C   -1.33173884453666      0.18465425059371      1.32156468706739
  N   -1.85786992620515      0.30569368249297      2.36403151336774
  C   -0.83708455630753     -1.26032845842861     -0.55410041153210
  N   -0.97832840775595     -2.32289424026625     -1.03316150124041
