11
Coordinates from ORCA-job run
  C   0.76861775923881      0.52600871426884      0.05651960515204
  C   -0.44978043630984     -0.40928875802410      0.26610105301651
  Br  1.81043335638252      0.62357855315482      1.69341543899414
  H   -0.07574981969029     -1.40172664072859      0.54533146184839
  H   0.42294374209695      1.53928386678029     -0.15913321641459
  C   1.59815213475906      0.03451372451649     -1.03418824553736
  N   2.25252712799943     -0.38094824756078     -1.91745197668428
  C   -1.20778119529472     -0.52022876243830     -0.98607518358817
  N   -1.79564949537917     -0.59628340791234     -1.99996514935354
  C   -1.31354808394378      0.09029472809606      1.34029844331710
  N   -2.01116508985897      0.49379622984762      2.19414776924975
