11
Coordinates from ORCA-job run
  C   0.71618635496771      0.59808494474972     -0.02725287180458
  C   -0.39484977215053     -0.42498524202439      0.32084101493752
  Br  1.81857390155249      0.92611165748235      1.53909679698534
  H   0.08541301882642     -1.35051209621110      0.66041977429811
  H   0.26465410305738      1.55413051585730     -0.30138672696540
  C   1.53861805122995      0.09915570353792     -1.11992629041544
  N   2.18985132085263     -0.32144349695044     -2.00318349566623
  C   -1.19544069344356     -0.71537344318374     -0.87460439488093
  N   -1.82441499359373     -0.94097104269930     -1.84061518148955
  C   -1.25358238731484      0.08331558792188      1.39495558195785
  N   -1.94600890398392      0.49148691151980      2.25065579304330
