11
Coordinates from ORCA-job run
  C   0.94076208605081      0.20816688553260      0.30719780352746
  C   -0.48396874189453     -0.37097470955184      0.48574709065543
  Br  2.24583199533384     -1.22543140788465      0.43746026871594
  H   -0.50244645951049     -0.92252090865644      1.43316043072280
  H   1.14677052650564      0.89228709634132      1.13342791823994
  C   1.07272428136494      0.90810001985891     -0.96192335321556
  N   1.15946706010625      1.47956541625343     -1.98513401734827
  C   -0.82757204552794     -1.29437197095245     -0.59931069585775
  N   -1.10122546271467     -2.03717080966529     -1.46636203178436
  C   -1.45079006164313      0.73058654567233      0.56351182048020
  N   -2.19855317807072      1.63176384305208      0.65322476586417
