11
Coordinates from ORCA-job run
  C   0.85661766021451      0.34595629702009      0.24444384666071
  C   -0.66114604893918      0.14255949201143      0.01614766595969
  Br  1.63749953167598     -1.18107244359125      1.15120020920884
  H   -1.03112718611785      1.03235672245976     -0.51170104392497
  H   0.99832247546037      1.20495878324835      0.90462224090032
  C   1.52626831744550      0.58388107810877     -1.02644566499987
  N   2.03883095774507      0.79720489616932     -2.06216941288910
  C   -1.36716534109792      0.04701000304606      1.29738695044538
  N   -1.92821270183072      0.00690357282586      2.32790615857225
  C   -0.92789736141225     -1.02798751161432     -0.82469046271701
  N   -1.14299030314352     -1.95177088968407     -1.51670048721623
