11
Coordinates from ORCA-job run
  C   0.77188309772460      0.51908184513316      0.07799091402197
  C   -0.44460422458720     -0.42681750507325      0.24602465267469
  Br  1.85328203538202      0.49068533714439      1.69208613524506
  H   -0.06796273259098     -1.43769914734280      0.44327208292203
  H   0.42504954717974      1.54660815507673     -0.05186601845423
  C   1.57330813960552      0.11020297157659     -1.06653249419335
  N   2.20375119043500     -0.23877630223387     -1.99487152573478
  C   -1.23110590999255     -0.44481094357972     -0.99310248220512
  N   -1.84208758431289     -0.44697931551318     -1.99619748710895
  C   -1.28212166028898     -0.00611264940740      1.37336405776497
  N   -1.95939189855427      0.33461755421935      2.26983216506771
