11
Coordinates from ORCA-job run
  C   0.93558099098339      0.26163153173410      0.27434281155206
  C   -0.45957998717059     -0.36494353118208      0.51414501239293
  Br  2.30211229704362     -1.10844492557454      0.44713520601715
  H   -0.43621058708709     -0.86329258566586      1.49054326062828
  H   1.12913849254567      0.99493278029611      1.06043311168446
  C   1.01408652409630      0.90174366539320     -1.03022059182760
  N   1.06271276499979      1.42464566110229     -2.08156238454206
  C   -0.78530023686058     -1.36104827842384     -0.51041849327282
  N   -1.04515757408857     -2.16357063333705     -1.32700611258640
  C   -1.46949991645038      0.69932589679919      0.55277140315962
  N   -2.24788276801155      1.57702041885848      0.60883677679440
