11
Coordinates from ORCA-job run
  C   0.88060932213863      0.13883824637488      0.27150043761529
  C   -0.48325192566318     -0.38544526554988     -0.24603139885121
  Br  2.22257778880587     -1.25737487944415      0.11376816947731
  H   -0.35918901434149     -0.69028742361008     -1.29207712908450
  H   0.80242296004546      0.38340451333342      1.33313247420398
  C   1.29121333030247      1.31305711298534     -0.48475159835268
  N   1.60608434952865      2.26159186805435     -1.10292494918923
  C   -1.48370820018816      0.68638401526382     -0.17730033228986
  N   -2.26791975007058      1.55879641349771     -0.11908787398468
  C   -0.92602109607098     -1.54395532480359      0.53584204778878
  N   -1.28381776448669     -2.46500927610183      1.16993015266679
