11
Coordinates from ORCA-job run
  C   0.76140239066357      0.53645996021593      0.02929037980654
  C   -0.42844952430524     -0.42482930001270      0.27961139648679
  Br  1.88883032929593      0.61160857280686      1.60972375375792
  H   -0.02442976352240     -1.41663931027799      0.51583578358193
  H   0.38777979010654      1.54849744166609     -0.14089339033135
  C   1.53931779911332      0.08996770349924     -1.11736464732391
  N   2.15344479734663     -0.28542238822460     -2.04639030001998
  C   -1.24984724786109     -0.52037228365736     -0.93312605518063
  N   -1.89103792072625     -0.58508672887160     -1.91497139769260
  C   -1.24176599787070      0.03533264571445      1.40959427958768
  N   -1.89624465224031      0.40948368714168      2.30969019732761
