11
Coordinates from ORCA-job run
  C   0.88532628043929      0.14056324762450      0.25418659047159
  C   -0.48681357303722     -0.38503045912829     -0.23959130683461
  Br  2.22963092131127     -1.24839984872663      0.05793103404315
  H   -0.38408431986981     -0.67771525696121     -1.29141516196624
  H   0.82776761044327      0.37642598460959      1.31910480348229
  C   1.27527276880678      1.32241807393319     -0.50115976931562
  N   1.57236146485500      2.27638555299456     -1.11981915418218
  C   -1.48995240944362      0.68169741243297     -0.13722552130384
  N   -2.27434037850634      1.55149799174588     -0.05024010343311
  C   -0.90767192413958     -1.55408940556460      0.53867542325451
  N   -1.24849644085905     -2.48375329295996      1.16955316578406
