11
Coordinates from ORCA-job run
  C   0.84223515595123      0.42749706229329      0.14687892554285
  C   -0.66791806911893      0.10206377037575      0.04101210781283
  Br  1.77655041971348     -0.92325420150977      1.17922144164340
  H   -1.12867560306663      0.89532277239818     -0.56371850419927
  H   0.95994120649085      1.36897801011311      0.68865937259233
  C   1.42170365311239      0.54730622742514     -1.18357399641163
  N   1.85918741692478      0.66210054965106     -2.26822529965473
  C   -1.29330299844551      0.11880764950696      1.36678568007906
  N   -1.79041015618742      0.16977289215219      2.42915814239381
  C   -0.89655177417006     -1.17706081047439     -0.63726139228457
  N   -1.08275925120418     -2.19053392193152     -1.19993647751407
