11
Coordinates from ORCA-job run
  C   0.91885507070515      0.28568282502405      0.30552482928988
  C   -0.45242558613943     -0.40967275007853      0.48556760930735
  Br  2.33931050459450     -1.03348925997418      0.43605138554404
  H   -0.42445759347735     -0.95891552968487      1.43409590531777
  H   1.06711449298191      0.98513161288158      1.13130021623724
  C   0.99317719836732      0.99440376213241     -0.96353757667269
  N   1.03765828547942      1.57168471249217     -1.98621691752117
  C   -0.71942604422436     -1.36156770142047     -0.59643698635296
  N   -0.93072902789798     -2.13089182034830     -1.45788195027417
  C   -1.50641553636239      0.60889960359534      0.56192972354568
  N   -2.32166176402678      1.44973454538080      0.64860376157904
