11
Coordinates from ORCA-job run
  C   0.94123274554091      0.22536055120452      0.28964702886075
  C   -0.45821048726202     -0.40804856820174      0.48113932003476
  Br  2.29512025841724     -1.16768217280982      0.31848890200347
  H   -0.43205389490233     -0.99917122293999      1.40411730004075
  H   1.14868044767443      0.87887774666913      1.14014898439890
  C   1.01504402322834      0.98660273364083     -0.94870838272452
  N   1.05943478635006      1.60926969660564     -1.94443409324077
  C   -0.80310336007309     -1.29718571779492     -0.63167990932722
  N   -1.07930987332443     -2.01441681499752     -1.51930841441701
  C   -1.45712395419289      0.65654706140884      0.63220661165187
  N   -2.22871069145623      1.52984670721503      0.77838265271902
