11
Coordinates from ORCA-job run
  C   0.92763258526193      0.30442783123474      0.25770757707605
  C   -0.43018977883435     -0.39155194933688      0.51912825104736
  Br  2.36204836689061     -0.99982077847481      0.38539758263553
  H   -0.36153224623388     -0.89948761826468      1.48845413393271
  H   1.10253949772694      1.03734326671375      1.04852603148781
  C   0.94725830612255      0.96195991453931     -1.04041817994790
  N   0.94829340057698      1.49702731837524     -2.08678864102516
  C   -0.72970719136401     -1.39134988592767     -0.50976735959448
  N   -0.96664060607772     -2.19868442061921     -1.32859636257191
  C   -1.48941343727977      0.62162580322974      0.59278945201251
  N   -2.30928889678927      1.45851051853047      0.67456751494746
