11
Coordinates from ORCA-job run
  C   0.71855289923725      0.59141186986859     -0.05312321707940
  C   -0.40008551577582     -0.40552290169238      0.34344422294971
  Br  1.80724844286333      1.00672527173308      1.50154205225020
  H   0.07281510128305     -1.31095249283215      0.74217439950564
  H   0.27344226152953      1.53114944520002     -0.38752550969483
  C   1.54903325259084      0.02716924635210     -1.10742250673270
  N   2.20882430560411     -0.43992302791995     -1.96039697519771
  C   -1.18781868979394     -0.76340613075778     -0.84244508214100
  N   -1.80184711927227     -1.04223974965801     -1.80388354760494
  C   -1.26893255104678      0.16951325352263      1.37484165232534
  N   -1.97123238721929      0.63607521618385      2.19179451141968
