11
Coordinates from ORCA-job run
  C   0.77450876331163      0.52061531119152      0.00633885891468
  C   -0.43878241494319     -0.40109871869124      0.29279520008845
  Br  1.90183585488822      0.63331339027627      1.58473647249384
  H   -0.05869583338271     -1.39494314028854      0.55834679943473
  H   0.42611495997515      1.53356024910858     -0.20663985265032
  C   1.54238798169540      0.00390282132601     -1.11725764377479
  N   2.14888623771702     -0.43681679474949     -2.02245774832444
  C   -1.26694207506117     -0.51344185492176     -0.91389573533009
  N   -1.91375986936661     -0.58901137378909     -1.89124505910971
  C   -1.23608982397984      0.11464301140366      1.40976744987731
  N   -1.87946378085390      0.53027709913408      2.29951125838034
