11
Coordinates from ORCA-job run
  C   0.75370310232343      0.54917350734102      0.03404928670374
  C   -0.42250806621359     -0.43129631776706      0.27430110624406
  Br  1.87132097621998      0.63331596186394      1.62130012963334
  H   -0.00406490974269     -1.41794087569206      0.50687957089332
  H   0.36606249932517      1.55649774443809     -0.13313141010680
  C   1.54456697256778      0.11845350187104     -1.10969188529765
  N   2.17217391508167     -0.24750615422295     -2.03338453933111
  C   -1.23887467987666     -0.53516560262910     -0.94108293840570
  N   -1.88006072158420     -0.61038704665537     -1.92232885024621
  C   -1.24751982176836      0.01093320655380      1.40271322331733
  N   -1.91479926633255      0.37292207489865      2.29837630659568
