11
Coordinates from ORCA-job run
  C   0.84224755650672      0.41268457338417      0.18129520288839
  C   -0.66810836036856      0.11011726749164      0.02195204861587
  Br  1.72663595026141     -0.97012010178665      1.21529274157207
  H   -1.09852892318417      0.92085666948337     -0.58189963077729
  H   0.95449319440278      1.34182341825153      0.74522208733641
  C   1.46490819483025      0.55097443701744     -1.12764999507702
  N   1.93779801480827      0.68316045526351     -2.19536923771022
  C   -1.33430174862714      0.11076871341195      1.32773335596754
  N   -1.86315902366709      0.14677604173515      2.37529728528632
  C   -0.89191855870669     -1.15316295674135     -0.68681667868266
  N   -1.07106629625578     -2.15387851751076     -1.27405717941940
