11
Coordinates from ORCA-job run
  C   0.85862722250177      0.32301237943372      0.27034608449588
  C   -0.66099004150628      0.13632904168610      0.03983731230846
  Br  1.65566239577043     -1.28440262589913      1.00757586050977
  H   -1.04125450391462      1.07501294131567     -0.38649007899820
  H   1.00499446755143      1.11119342047126      1.01275606133170
  C   1.51186972295791      0.69268420154576     -0.97736239565775
  N   2.01168117373746      1.01263440685359     -1.99167530990322
  C   -1.35155264542434     -0.09782196257546      1.31164176128639
  N   -1.90284183656740     -0.24891675649151      2.33717790834306
  C   -0.93282268564236     -0.93942764020964     -0.91790250430568
  N   -1.15337326946401     -1.78129740613035     -1.70590469941042
