11
Coordinates from ORCA-job run
  C   0.92349174672745      0.28501393199783      0.29263345284252
  C   -0.43957347771945     -0.42292257284809      0.48488854206325
  Br  2.35364171622112     -1.02886873723213      0.36752982476978
  H   -0.38795351453286     -0.99379901839716      1.41951065565963
  H   1.08440693223148      0.96758593262795      1.13017057197274
  C   0.96905220881206      1.02069502327866     -0.96231308064969
  N   0.98981971512021      1.62169985509123     -1.97201766467950
  C   -0.72342703340153     -1.35159742197129     -0.61280418164746
  N   -0.95153560433961     -2.10077871784713     -1.48757692367782
  C   -1.49875909358365      0.58539573488243      0.60729404950349
  N   -2.31916359553523      1.41657599041771      0.73168475384306
