11
Coordinates from ORCA-job run
  C   0.80694573337687      0.49525993914377      0.12984004979006
  C   -0.67224468177078      0.04055468957609      0.07163719325205
  Br  1.90144606239038     -0.80532510795420      1.06452076045507
  H   -1.22648134724234      0.81226043584204     -0.48029174697037
  H   0.86485539627217      1.42169454258719      0.70617096370296
  C   1.31460031069140      0.71849179160605     -1.21648754871760
  N   1.69270154501509      0.91457165963500     -2.31171358610063
  C   -1.23674049104141     -0.04954893206113      1.42157412064597
  N   -1.68560277159878     -0.08712906921308      2.50588241995186
  C   -0.81814314487134     -1.22757945006663     -0.64889543276405
  N   -0.94033661122126     -2.23325049909509     -1.24223719324531
