11
Coordinates from ORCA-job run
  C   0.75015745224232      0.55253953470453     -0.00897213067532
  C   -0.41995098928663     -0.41340717707444      0.30882160348316
  Br  1.87137517556715      0.76504559872038      1.56359303459941
  H   0.00412612204461     -1.37733878382587      0.61454027669240
  H   0.35565846434224      1.54164365758873     -0.25177260091403
  C   1.54065694129907      0.03987399852860     -1.11878049094947
  N   2.16697586498096     -0.39115264818043     -2.01489798599097
  C   -1.23733545898762     -0.61085801985160     -0.89431746530499
  N   -1.87487638052827     -0.75563073735172     -1.86999862318366
  C   -1.24481162462833      0.11012046244514      1.40207758952987
  N   -1.90997556704550      0.53816411429667      2.26970679271359
