11
Coordinates from ORCA-job run
  C   0.76946693333851      0.52652598648508      0.00720229356254
  C   -0.44511270788230     -0.39085680347155      0.29949376727409
  Br  1.84382425041258      0.72523257883643      1.61398161776495
  H   -0.06658570714557     -1.36536267088056      0.63075037089847
  H   0.42075230363624      1.52501289422654     -0.26529824593292
  C   1.57791021010637     -0.03389832783700     -1.06601158322277
  N   2.21569904284562     -0.50246877286859     -1.93498168307763
  C   -1.23020514430476     -0.57675784182370     -0.92683020104429
  N   -1.84062959774235     -0.71366539413559     -1.92084245350337
  C   -1.28467879127513      0.17499535278039      1.35997523339852
  N   -1.96044079198920      0.63324299868854      2.20356088388242
