11
Coordinates from ORCA-job run
  C   0.86136052926729      0.33642985550384      0.24086299875628
  C   -0.66176482088982      0.12897597532579      0.05391120157611
  Br  1.69811381769125     -1.25219387012110      0.97492846445939
  H   -1.06390572002588      1.05557352145667     -0.37838029413807
  H   1.01796426394319      1.13514908596474      0.96983697765506
  C   1.47591800624121      0.70003474201254     -1.02826496683860
  N   1.94366044347865      1.01750753874942     -2.05850689138261
  C   -1.31489960762526     -0.09014244477067      1.34799697680726
  N   -1.83593036518618     -0.23006405914966      2.39072738873872
  C   -0.94570327634416     -0.96810617414751     -0.87557172935541
  N   -1.17481327055030     -1.83316417082407     -1.63554012627813
