11
Coordinates from ORCA-job run
  C   0.81658920054024      0.48631551484007      0.09830117422470
  C   -0.66986237084210      0.05248323815521      0.08332984464437
  Br  1.91079668242376     -0.80226267260427      1.04998854983770
  H   -1.22362439555184      0.81425044393852     -0.48256117063786
  H   0.89974472838933      1.42854091411620      0.64529784740163
  C   1.30003435628657      0.66125828716374     -1.26408103801931
  N   1.65908142090025      0.81606833547378     -2.37230167830831
  C   -1.20911082987328      0.01526183367380      1.44600481255436
  N   -1.63961832718988      0.02297393509852      2.53821423872250
  C   -0.84838140499739     -1.23580530275443     -0.59249604044679
  N   -0.99564906008567     -2.25808452710113     -1.15069653997300
