11
Coordinates from ORCA-job run
  C   0.75910021687408      0.53990333715058      0.02156579416532
  C   -0.42249191891425     -0.42815013590456      0.28514195582610
  Br  1.90378568668798      0.61989744855216      1.58959779925495
  H   -0.01101230470983     -1.41775748480269      0.51695903540664
  H   0.37785263064302      1.55005148607006     -0.14320165981582
  C   1.52670255417873      0.09782373401026     -1.13378263889603
  N   2.13303178925180     -0.27428447230256     -2.06921468428414
  C   -1.25673437735347     -0.52788649524940     -0.91861207842732
  N   -1.90649320327156     -0.59619799012718     -1.89460038360642
  C   -1.22686234174684      0.03055999358229      1.42198524447810
  N   -1.87687873163967      0.40704057902105      2.32416161589862
