11
Coordinates from ORCA-job run
  C   0.84053885740773      0.42942700271180      0.14704974650649
  C   -0.66425275633977      0.06531000081321      0.11619627216239
  Br  1.90119079300982     -1.04219909931667      0.83508225062328
  H   -1.19883177123980      0.93270667283690     -0.29519087392600
  H   0.98384804912011      1.26438603389924      0.83706208425518
  C   1.29141213018704      0.80595907154642     -1.18523487407917
  N   1.62455604053107      1.12855215446678     -2.26508221634056
  C   -1.16344542438457     -0.17688019843655      1.47306190653417
  N   -1.55951128114931     -0.33445953874273      2.56693829854194
  C   -0.92271852841241     -1.08332268123555     -0.75690687919402
  N   -1.13378610872992     -1.98947941854285     -1.47297571508370
