11
Coordinates from ORCA-job run
  C   0.92659297445413      0.27524467144794      0.29263459204341
  C   -0.44437705032981     -0.41686882955650      0.48488540165867
  Br  2.34180593860181     -1.05441132372674      0.36364461154106
  H   -0.40095767192873     -0.98380290478103      1.42243243332459
  H   1.09582378609613      0.95420231869325      1.13140471759651
  C   0.97946690342473      1.01369019817055     -0.96033638117024
  N   1.00584322686507      1.61938829682259     -1.96713128424390
  C   -0.73673733320262     -1.34917393902154     -0.60759342356038
  N   -0.97107929483195     -2.10552957629076     -1.47439731702677
  C   -1.49261803018767      0.60389803671320      0.60025006682993
  N   -2.30376344896110      1.44536305152903      0.71520658300711
