11
Coordinates from ORCA-job run
  C   0.86143579394165      0.35498539816511      0.21318794129974
  C   -0.66151360411688      0.09789262923825      0.10227763238280
  Br  1.79958698363059     -1.24322503129432      0.78681472199818
  H   -1.12354736758552      1.03423726706888     -0.23991471414199
  H   1.03293676389998      1.10955863830948      0.98467499358893
  C   1.38300612848753      0.82505730963187     -1.06255170107609
  N   1.77402415726979      1.22443079665051     -2.09637129603777
  C   -1.22493342027762     -0.23483275402742      1.41410366988412
  N   -1.67146143510506     -0.46476865521968      2.47521183204228
  C   -0.96191214950975     -0.94325025841528     -0.88457713366385
  N   -1.20662185063471     -1.75908534010739     -1.69285594627634
