18

C	0.0	0.0	0.0
C	-0.564283	0.164498	-1.408885
F	1.348707	0.0	0.0
H	-1.634338	0.389304	-1.260862
N	-0.2547	1.336505	0.809778
O	-0.333842	1.221162	2.028716
O	-0.256538	2.396887	0.193934
N	-0.611836	-1.078812	0.610227
H	-0.401524	-1.055125	1.603815
H	-1.65667	-0.86442	0.486155
C	-0.372184	-1.104004	-2.223336
H	-0.957275	-1.903869	-1.77373
H	0.68079	-1.391363	-2.24676
H	-0.722415	-0.935953	-3.245522
N	0.041723	1.281827	-2.19541
O	1.262866	1.280904	-2.365343
O	-0.731057	2.084221	-2.713307
H	-2.978747	0.0	0.0
