18

C	0.0	0.0	0.0
C	-0.554626	0.147567	-1.412195
F	1.348888	0.0	0.0
H	-1.622219	0.38394	-1.274076
N	-0.232669	1.359601	0.793862
O	-0.010618	2.408678	0.198888
O	-0.488354	1.264227	1.98892
N	-0.631973	-1.056499	0.625298
H	-0.457227	-0.999416	1.624107
H	-1.679847	-0.832141	0.473421
C	-0.36621	-1.133339	-2.203505
H	-0.727286	-0.987914	-3.22476
H	-0.940514	-1.927563	-1.733461
H	0.686236	-1.416391	-2.236107
N	0.068272	1.254014	-2.203871
O	1.271958	1.18096	-2.451741
O	-0.680015	2.123748	-2.644875
H	-2.975965	0.0	0.0
