18

C	0.0	0.0	0.0
C	-0.528745	-0.10722	-1.429376
F	1.374428	0.0	0.0
H	-1.619525	0.022064	-1.341175
N	-0.565799	1.268505	0.549006
O	-0.272321	2.322968	-0.070429
O	-1.714588	1.039951	1.125024
N	-0.44833	-1.146763	0.712261
H	-0.165884	-1.016943	1.679907
H	-1.474071	-1.0627	0.705575
C	-0.171656	-1.422065	-2.096951
H	-0.512432	-1.411474	-3.136944
H	0.90764	-1.576274	-2.071859
H	-0.657751	-2.239332	-1.567499
N	-0.05623	0.982557	-2.339073
O	-0.92268	1.565863	-2.989056
O	1.153024	1.136364	-2.492509
H	-2.881125	0.0	0.0
