18

C	0.0	0.0	0.0
C	-0.469844	-0.022749	-1.504654
F	1.37477	0.0	0.0
H	-1.481111	0.368372	-1.412645
N	-0.367825	1.208049	0.685586
O	0.340692	1.709771	1.466318
O	-1.698932	1.572431	0.583443
N	-0.504396	-1.134385	0.686072
H	-0.07989	-2.00678	0.431572
H	-0.399398	-0.9781	1.67991
C	-0.413236	-1.376105	-2.131486
H	-0.671789	-1.323952	-3.193546
H	-1.155774	-1.990418	-1.618578
H	0.578343	-1.825772	-2.031654
N	0.406792	0.967321	-2.209826
O	0.47119	2.065545	-1.797301
O	0.944168	0.637619	-3.204858
H	-2.385772	0.0	0.0
