18

C	0.0	0.0	0.0
C	-0.529823	0.125591	-1.439949
F	1.351848	0.0	0.0
H	-1.60685	0.349119	-1.317075
N	-0.545018	1.187179	0.710208
O	-0.124376	2.297549	0.318415
O	-1.636403	0.960236	1.307
N	-0.470513	-1.158594	0.671223
H	-0.174825	-1.974005	0.14773
H	-1.499678	-1.095111	0.66146
C	-0.334208	-1.14181	-2.253852
H	0.68635	-1.518928	-2.163842
H	-0.532536	-0.941902	-3.309533
H	-1.047614	-1.895922	-1.919606
N	0.087667	1.249639	-2.206325
O	1.264209	1.119399	-2.55291
O	-0.633527	2.194713	-2.522572
H	-2.970034	0.0	0.0
