10
Coordinates from ORCA-job run
  C   0.65134949911344     -0.16198147810093      0.06162537623267
  C   -0.67052714587226      0.05750884392783     -0.03740872522458
  H   1.22130390254464     -0.47173743592830     -0.81316207203290
  H   -1.24141008779181      0.36219817534051      0.83855153317847
  N   1.39008982719050     -0.17802604566499      1.26840747777546
  H   0.83187721166977      0.14056829165053      2.04962769891146
  H   2.22751959435068      0.38531118056328      1.20538751116251
  N   -1.46320950597171     -0.22057698919153     -1.17610651352864
  H   -0.89305996181317     -0.47396468439676     -1.97242986102561
  H   -2.05393333342008      0.56170014180037     -1.42449242544883
