10
Coordinates from ORCA-job run
  C   -0.66235095758567     -0.11177121384990     -0.00674439141168
  C   0.66234974950340      0.11178007096788      0.00674579696851
  H   -1.20404611446814     -0.24672961299021      0.92767714365513
  H   1.20404306011503      0.24675027782432     -0.92767515005046
  N   -1.45526042669464     -0.29749397898030     -1.16507978939170
  H   -0.93607720095099     -0.07930349065618     -2.00541822756311
  H   -2.28991815034210      0.27303835304402     -1.14124960747854
  N   1.45526154952629      0.29748756821607      1.16508203876097
  H   2.28991890195476     -0.27304523052828      1.14124336593964
  H   0.93607958894206      0.07928725695260      2.00541882057125
