10
Coordinates from ORCA-job run
  C   0.60467902308054     -0.27474386066223      0.11457028223953
  C   -0.64455707811364      0.18641648099741     -0.06396780231707
  H   1.06490495831491     -0.91465382787646     -0.63695497566582
  H   -1.10699290028538      0.82143614493979      0.69034433443363
  N   1.36811846682165     -0.13353921345972      1.29768900145097
  H   0.91954535679672      0.48902248966709      1.95692178965233
  H   2.30266589902746      0.20157317587281      1.10560521067873
  N   -1.51984923023707     -0.20301804480015     -1.10550871203171
  H   -1.94321253416594      0.59478334645689     -1.56032710791485
  H   -1.04530196123926     -0.76827669113543     -1.79737202052573
