10
Coordinates from ORCA-job run
  C   0.50774071981843     -0.66291971989654      0.48498388659537
  C   -0.51541293790513     -0.61060055429795     -0.38647451947629
  H   0.84653254700401     -1.61657895547101      0.87849438404011
  H   -1.00204639736885     -1.52448156039099     -0.71861420661552
  N   1.11365158140613      0.47273475709441      1.02248870751937
  H   0.93003314659158      1.27530674179617      0.43217101407118
  H   2.09836933005570      0.35403154129634      1.20527733337094
  N   -0.96234024826351      0.66925044585397     -0.85137992753201
  H   -1.70768600497660      1.03170147005840     -0.26825725174147
  H   -1.30884173636176      0.61055583395720     -1.79868942023168
