10
Coordinates from ORCA-job run
  C   -0.62984946021285     -0.59022921328968     -0.20458998976450
  C   0.55581493663851     -0.66509030208358      0.42594615236159
  H   -1.23902599932299     -1.48094974780805     -0.33855746820764
  H   0.92342300117265     -1.61811490690133      0.79453792193733
  N   -1.06313035906474      0.67820974209012     -0.71224289933190
  H   -2.06895280563874      0.76293696536778     -0.66670412360139
  H   -0.78297532281634      0.80295839016127     -1.67803286154672
  N   1.42776112893050      0.41669678683115      0.54921890470392
  H   1.95737416808172      0.40914996435949      1.40748356576933
  H   0.92056071223227      1.28443232127283      0.42194079767998
