10
Coordinates from ORCA-job run
  C   -0.51184878206919     -0.60625796215846     -0.39682674304658
  C   0.51144676817932     -0.66810319923089      0.47381790476819
  H   -0.99279160405711     -1.51675978892245     -0.74626348486732
  H   0.85803691627574     -1.62686212489109      0.84786087235471
  N   -0.96704360578220      0.67951115227236     -0.83725415502040
  H   -1.30304521254872      0.63899562273228     -1.78930066564843
  H   -1.72187951818551      1.02192358767800     -0.25435096482181
  N   1.11071531016238      0.46042164298918      1.03333324728690
  H   2.09707111856992      0.34511590259252      1.20932212753894
  H   0.91833860945537      1.27301516693854      0.45966186145580
