10
Coordinates from ORCA-job run
  C   0.49924417403385     -0.66927561988470      0.48508209597538
  C   -0.50939070492305     -0.60501893172311     -0.40239734946177
  H   0.83123818120000     -1.62841691971771      0.87103848032708
  H   -0.99204638394621     -1.51408352698203     -0.75306863677950
  N   1.09752555851625      0.45854005586256      1.04671281897393
  H   2.07927937760297      0.33686083238718      1.24280101870715
  H   0.92254721446069      1.26894847316896      0.46455999863107
  N   -0.94787790133556      0.68146283668323     -0.85734510867678
  H   -1.70596353648681      1.03441821186055     -0.28493534049309
  H   -1.27455597912211      0.63656458834508     -1.81244797720346
