10
Coordinates from ORCA-job run
  C   0.74930668997384     -0.57140077464644      0.21277413788918
  C   -0.27906058352487     -0.53140403627205     -0.65303176396570
  H   1.46516842460233     -1.38722680809880      0.17923936938294
  H   -0.41129965276246     -1.32313010578458     -1.38656925010900
  N   1.03233258229616      0.45589116366365      1.11314620647819
  H   0.20645747235700      1.02487917832380      1.25690922747230
  H   1.42401242141858      0.12943583610360      1.98336702987421
  N   -1.17957426511655      0.58263367786441     -0.60477678725252
  H   -2.11638121325354      0.30253651380565     -0.85962394356425
  H   -0.88996187599049      1.31678535504075     -1.24043422620535
