10
Coordinates from ORCA-job run
  C   -0.65565784829105      0.13930074360510     -0.04316578524503
  C   0.65565764972129     -0.13967100134162      0.04336016522994
  H   -1.17204730037873      0.60515059047373      0.79417005589886
  H   1.17213787319141     -0.60579397674969     -0.79377752968721
  N   -1.50395937847394     -0.21195252084868     -1.12081914886788
  H   -2.06404933453306      0.57255930623520     -1.42647433365180
  H   -0.97407077014520     -0.56065594479776     -1.90874382284342
  N   1.50418746208345      0.21179311461816      1.12084659333777
  H   0.97452614302104      0.56149049324037      1.90849445132473
  H   2.06327550380479     -0.57322080443483      1.42710935450403
