10
Coordinates from ORCA-job run
  C   -0.66644159372379     -0.63570651042610     -0.19786258003317
  C   0.55573851621302     -0.65427759423923      0.35967708987389
  H   -1.26729068214871     -1.53478856370198     -0.26672171642975
  H   1.01254409138196     -1.58275293223621      0.68141834922379
  N   -1.25139326590607      0.57947961879641     -0.61928116204671
  H   -0.56032900616201      1.16150401287472     -1.08004535070106
  H   -2.03707145676240      0.43293459898764     -1.23434720666404
  N   1.30963709613496      0.54141643226645      0.46674218329606
  H   0.75236825658726      1.27907771989126      0.88330364961979
  H   2.15123804438578      0.41411321778703      1.00711674386120
