10
Coordinates from ORCA-job run
  C   0.34867587574689     -0.51301528031602      0.63447261126577
  C   -0.72108716859560     -0.61845542687397     -0.17397625386273
  H   0.57715152451381     -1.29913138734829      1.35016638677786
  H   -1.35837193922212     -1.49663112653202     -0.13064566053434
  N   1.18959624516037      0.64209708309015      0.51974517369624
  H   1.58281997283759      0.89463912771933      1.41561582042844
  H   1.95640308745247      0.47591738729134     -0.12158752448235
  N   -1.01724316834328      0.30528708019945     -1.17619704073592
  H   -0.55145261910841      1.18427324222436     -0.98446336242728
  H   -2.00649181044171      0.42601930054567     -1.33113015012568
