10
Coordinates from ORCA-job run
  C   -0.66619897728854      0.08451830761081     -0.01626296233093
  C   0.66623935664157     -0.08393612956890      0.01660158602594
  H   -1.22834147100437      0.18761159935859      0.91004819611155
  H   1.22743269879642     -0.18763074518066     -0.91025010924041
  N   -1.44641599221828      0.25007014044123     -1.18614035535416
  H   -0.90472566833073      0.06237010915374     -2.01952465898563
  H   -2.25835652942448     -0.35266414126568     -1.18272418280338
  N   1.44786102379334     -0.25019876440074      1.18555636611621
  H   0.90636581856377     -0.06636732746513      2.01996326565628
  H   2.25713974047131      0.35622695131674      1.18273285480453
