10
Coordinates from ORCA-job run
  C   0.65673719276104     -0.12824063433716      0.05900574602881
  C   -0.65672888689684      0.12827736374044     -0.05901142815114
  H   1.22050498659841     -0.49989926589698     -0.79471586372792
  H   -1.22048588747586      0.49998368995294      0.79469639070338
  N   1.44894206889930      0.13644100886913      1.20230603422786
  H   0.87670013588519      0.39697780669810      1.99472643615772
  H   2.01440769303073     -0.66208980143453      1.45777625981030
  N   -1.44894755710029     -0.13646349093867     -1.20228854510200
  H   -0.87671519706320     -0.39704131699324     -1.99470193914326
  H   -2.01441454863846      0.66205464033997     -1.45779309080375
