18

C	-0.387829	-0.010113	-1.4444
C	0.0	0.0	0.0
F	0.385917	0.730542	-2.230575
H	1.095563	0.0	0.0
N	-0.306412	-1.445274	-1.98215
O	-1.316848	-2.133355	-1.878963
O	0.771822	-1.785036	-2.443332
N	-1.840799	0.393296	-1.743839
O	-2.653361	0.26147	-0.839334
O	-2.06993	0.773338	-2.885562
C	-0.408068	-1.192548	0.834413
H	-0.025695	-1.026071	1.839697
H	0.0941	-2.079826	0.446328
H	-1.487031	-1.356025	0.870163
N	-0.419782	1.275837	0.592761
O	-0.612138	2.229355	-0.169365
O	-0.489419	1.351981	1.818588
F	2.459077	0.0	0.0
