18

C	-0.59319	0.039246	-1.368163
C	0.0	0.0	0.0
F	-1.938605	0.029997	-1.395922
H	1.089029	0.0	0.0
N	-0.132473	1.187454	-2.263314
O	0.908127	1.752369	-1.979224
O	-0.850471	1.389643	-3.239289
N	-0.135933	-1.206965	-2.134309
O	0.991081	-1.170417	-2.605496
O	-0.934418	-2.134507	-2.185738
C	-0.339344	-1.287194	0.734285
H	0.058964	-1.195286	1.74234
H	0.187728	-2.112717	0.255307
H	-1.411269	-1.503808	0.773614
N	-0.482065	1.171585	0.753881
O	-0.940417	2.131179	0.123556
O	-0.367884	1.150689	1.978477
F	2.4639	0.0	0.0
