18

C	-0.582455	0.016253	-1.373408
C	0.0	0.0	0.0
F	-1.927408	-0.001523	-1.413779
H	1.08917	0.0	0.0
N	-0.118335	1.151699	-2.283347
O	-0.817282	1.319086	-3.279467
O	0.905303	1.741533	-1.989199
N	-0.110273	-1.236011	-2.119724
O	1.022932	-1.199802	-2.576827
O	-0.90301	-2.168248	-2.16863
C	-0.344703	-1.273233	0.755798
H	0.166255	-2.112813	0.284025
H	-1.418613	-1.475875	0.808419
H	0.063865	-1.171872	1.758791
N	-0.484842	1.183648	0.731571
O	-0.953993	2.128335	0.086662
O	-0.363629	1.185923	1.955017
F	2.463484	0.0	0.0
