18

C	-0.316025	-0.110619	-1.455892
C	0.0	0.0	0.0
F	0.03057	-1.331859	-1.896915
H	1.115626	0.0	0.0
N	-1.778709	0.050624	-1.899611
O	-2.526497	-0.823208	-1.476377
O	-2.078233	0.97567	-2.64204
N	0.463439	0.9069	-2.281098
O	0.606037	2.011976	-1.78263
O	0.848472	0.531302	-3.380129
C	-0.428711	-1.189472	0.841466
H	-1.514858	-1.285176	0.930543
H	-0.014434	-2.098611	0.408102
H	0.019477	-1.057605	1.827138
N	-0.545254	1.221596	0.613796
O	-1.550414	1.743379	0.11632
O	-0.002978	1.610758	1.644913
F	2.483407	0.0	0.0
