18

C	-0.604794	0.175429	-1.349879
C	0.0	0.0	0.0
F	-1.950669	0.133945	-1.373442
H	1.113997	0.0	0.0
N	-0.180492	1.427155	-2.11606
O	-0.92327	1.731444	-3.045982
O	0.860272	1.970379	-1.791441
N	-0.121175	-0.964084	-2.25584
O	1.007721	-0.850745	-2.71275
O	-0.902683	-1.892351	-2.424487
C	-0.309753	-1.365152	0.594463
H	-1.378818	-1.595784	0.641226
H	0.207104	-2.128053	0.01192
H	0.118412	-1.382364	1.594222
N	-0.488155	1.071765	0.879029
O	-0.362171	0.919631	2.094
O	-0.963284	2.089844	0.361973
F	2.454575	0.0	0.0
