18

C	-0.55516	0.145444	-1.380448
C	0.0	0.0	0.0
F	-0.181989	1.24071	-2.049273
H	1.104709	0.0	0.0
N	-0.165305	-1.005579	-2.317505
O	-0.826116	-1.06357	-3.350774
O	0.816305	-1.676956	-2.033943
N	-2.086178	0.11185	-1.37352
O	-2.588775	-0.987663	-1.162369
O	-2.67693	1.178332	-1.490473
C	-0.374991	-1.290648	0.707979
H	0.28206	-1.379497	1.57169
H	-1.413219	-1.31659	1.045788
H	-0.181286	-2.14168	0.058856
N	-0.407834	1.159776	0.829558
O	-0.631732	0.947736	2.023846
O	-0.452757	2.276249	0.312829
F	2.455468	0.0	0.0
