18

C	-0.587163	-0.011913	-1.375575
C	0.0	0.0	0.0
F	-1.92151	0.158877	-1.396795
H	1.104706	0.0	0.0
N	0.002677	0.98529	-2.3839
O	-0.772262	1.345356	-3.264848
O	1.17805	1.27485	-2.26103
N	-0.312085	-1.371264	-2.024371
O	0.855208	-1.610967	-2.298029
O	-1.281348	-2.100039	-2.199518
C	-0.435498	-1.204862	0.80909
H	0.043437	-2.093653	0.394517
H	-1.520108	-1.347047	0.837163
H	-0.061138	-1.080731	1.823296
N	-0.411261	1.265141	0.636133
O	-0.575714	1.281294	1.855931
O	-0.49882	2.265724	-0.084731
F	2.462477	0.0	0.0
