18

C	-0.470873	0.023213	-1.413601
C	0.0	0.0	0.0
F	0.097759	-0.97878	-2.104897
H	1.113554	0.0	0.0
N	-1.989182	-0.171231	-1.553807
O	-2.386945	-0.828226	-2.508535
O	-2.678147	0.353118	-0.687706
N	-0.167563	1.291875	-2.217002
O	1.016028	1.484399	-2.431431
O	-1.118749	1.950011	-2.621268
C	-0.389978	-1.288257	0.694904
H	0.198925	-1.369257	1.607062
H	-1.45241	-1.336476	0.948964
H	-0.11785	-2.12771	0.052794
N	-0.413715	1.183431	0.753006
O	-0.415505	2.269524	0.16767
O	-0.652364	1.048367	1.954478
F	2.455375	0.0	0.0
