13
Coordinates from ORCA-job run
  C   0.20396622006402     -0.12940136959299      0.27389751748733
  C   -1.04693264433521     -0.91146027009253     -0.09776459864268
  H   0.48791883559800     -0.40514704190848      1.30377482322693
  H   -0.86240961417682     -1.98960661807071     -0.06568641208930
  H   -1.86670839314480     -0.69247362762192      0.59095989648301
  H   -1.35487528248945     -0.64986534772044     -1.11287651790516
  C   -0.05042241312864      1.37010290773999      0.23834917372394
  H   -0.84311586469820      1.65111316383502      0.93620222294200
  H   0.84938592570067      1.92964867437668      0.51172144927416
  H   -0.34216203860015      1.66872962455980     -0.77131452602197
  N   1.25565709306127     -0.44573902087873     -0.69684658533039
  H   1.46208255291521     -1.43809902559415     -0.66423549607990
  H   2.10861562323409      0.04219795096847     -0.44618094706797
