13
Coordinates from ORCA-job run
  C   0.20311715333656     -0.18145610489615      0.35672901542803
  C   -1.04450463435299     -0.96235266219019     -0.03063853813207
  H   0.42281132768105     -0.38695730093461      1.41122082624411
  H   -1.90617169857127     -0.65749648828553      0.56810043537325
  H   -0.87685372690753     -2.03170792481111      0.10590551517472
  H   -1.29047134355536     -0.78747794813907     -1.08381015049055
  C   -0.01215167665354      1.32370013769726      0.19324673771635
  H   -0.84129277214539      1.68361568228483      0.81000388447329
  H   -0.23884913127750      1.56081630939454     -0.85153798930237
  H   0.88577286881260      1.87978459440324      0.47795866391313
  N   1.33669503764661     -0.70653752202619     -0.40966469872458
  H   2.18272781693781     -0.21042978605488     -0.15134412168338
  H   1.18017077904894     -0.52450098644214     -1.39616957998994
