16

C	-0.59264	-0.007527	-1.393009
C	0.0	0.0	0.0
Br	0.220893	1.440128	-2.434203
H	1.092715	0.0	0.0
H	-0.344535	0.933219	0.463179
N	-0.20226	-1.294025	-2.120923
O	-0.842702	-1.578045	-3.135126
O	0.716387	-1.958928	-1.662032
C	-2.095893	0.125077	-1.450359
H	-2.523411	-0.703714	-0.880243
H	-2.3814	1.069935	-0.98193
H	-2.464048	0.102587	-2.474993
N	-0.539004	-1.17397	0.722345
H	-0.847295	-0.883791	1.641255
H	0.257272	-1.786615	0.860071
F	2.664089	0.0	0.0
