16

C	-0.243822	-0.071961	-1.489664
C	0.0	0.0	0.0
Br	-2.159286	-0.368153	-1.958931
H	1.096214	0.0	0.0
H	-0.435624	0.905715	0.423364
N	0.0579	1.293297	-2.101168
O	0.656784	1.326747	-3.173069
O	-0.33811	2.283598	-1.493582
C	0.626486	-1.130172	-2.111987
H	0.556776	-1.148027	-3.197561
H	0.319953	-2.086804	-1.688204
H	1.641558	-0.898229	-1.761497
N	-0.421283	-1.245067	0.641439
H	0.334857	-1.534118	1.24864
H	-1.249884	-1.102232	1.201253
F	2.677072	0.0	0.0
