16

C	-0.267441	-0.056977	-1.482811
C	0.0	0.0	0.0
Br	-2.203155	-0.270756	-1.918988
H	1.094448	0.0	0.0
H	-0.429937	0.897182	0.444394
N	0.079534	1.286301	-2.116981
O	0.454607	1.28494	-3.287992
O	-0.071521	2.296035	-1.433426
C	0.548582	-1.149655	-2.118645
H	1.576803	-0.953742	-1.786521
H	0.214802	-2.094901	-1.690239
H	0.458356	-1.162617	-3.20184
N	-0.419533	-1.253082	0.6351
H	0.386731	-1.60027	1.137931
H	-1.163336	-1.090141	1.298237
F	2.671179	0.0	0.0
