16

C	-0.251788	-0.070487	-1.48719
C	0.0	0.0	0.0
Br	-2.178797	-0.333623	-1.941176
H	1.094503	0.0	0.0
H	-0.430002	0.908143	0.424329
N	0.062735	1.288505	-2.106829
O	-0.289975	2.287804	-1.489178
O	0.616711	1.306512	-3.20176
C	0.596217	-1.143036	-2.114846
H	0.512208	-1.167189	-3.199547
H	0.283786	-2.093318	-1.681479
H	1.620078	-0.923626	-1.780254
N	-0.422572	-1.241536	0.644207
H	-1.251815	-1.099904	1.20573
H	0.336226	-1.531525	1.248079
F	2.669733	0.0	0.0
