16

C	-0.615447	-0.010342	-1.381182
C	0.0	0.0	0.0
Br	0.150974	1.455552	-2.431375
H	1.092602	0.0	0.0
H	-0.343831	0.930008	0.470338
N	-0.222359	-1.286537	-2.123823
O	0.709604	-1.944303	-1.682908
O	-0.874962	-1.570474	-3.129896
C	-2.124469	0.096874	-1.40579
H	-2.414926	1.032096	-0.923129
H	-2.512874	0.075326	-2.421901
H	-2.522526	-0.743612	-0.833316
N	-0.521146	-1.179679	0.728357
H	0.285707	-1.780423	0.863756
H	-0.828777	-0.891818	1.648594
F	2.662865	0.0	0.0
