16

C	-0.222169	-0.066459	-1.518852
C	0.0	0.0	0.0
Br	-0.051153	-1.909918	-2.171414
H	1.094043	0.0	0.0
H	-0.353936	0.997932	0.295896
N	-1.64325	0.32688	-1.903191
O	-1.803095	1.145405	-2.807717
O	-2.561104	-0.171395	-1.249909
C	0.812125	0.795574	-2.203434
H	0.786521	0.69805	-3.288535
H	1.775227	0.501692	-1.756929
H	0.625753	1.839456	-1.934634
N	-0.560634	-1.011814	0.864277
H	-1.486257	-1.277717	0.556407
H	0.041156	-1.823242	0.830185
F	2.719687	0.0	0.0
