12

C	0.0	0.0	0.0
C	-0.535409	-0.048305	-1.415989
Cl	1.782645	0.0	0.0
H	-1.632386	0.049553	-1.351896
H	-0.346917	-0.905767	0.499634
H	-0.257252	-0.983368	-1.898448
C	-0.425156	1.151424	0.800706
N	-0.618226	2.052827	1.527759
N	-0.010659	1.036407	-2.280699
O	0.133053	2.150796	-1.785578
O	0.203079	0.749796	-3.458795
Br	-3.569048	0.0	0.0
