15

C	-0.504999	0.07069	-1.450658
C	0.0	0.0	0.0
Cl	-2.279962	0.094671	-1.50047
H	1.09403	0.0	0.0
C	-0.005031	1.265917	-2.116184
N	0.335227	2.238072	-2.681157
N	-0.011241	-1.170947	-2.221554
O	0.967607	-1.007773	-2.936006
O	-0.615193	-2.212972	-2.009411
C	-0.483018	-1.207281	0.672737
N	-0.903103	-2.110381	1.296832
N	-0.389915	1.229878	0.668044
H	-1.216837	1.11061	1.240354
H	0.387869	1.537818	1.24123
Br	3.332701	0.0	0.0
