15

C	-0.50751	0.082938	-1.449286
C	0.0	0.0	0.0
Cl	-2.280511	0.169748	-1.492355
H	1.094018	0.0	0.0
C	0.032244	1.253237	-2.128746
N	0.393495	2.208781	-2.708869
N	-0.045009	-1.176533	-2.210753
O	1.05071	-1.08447	-2.745052
O	-0.772414	-2.157654	-2.163484
C	-0.48427	-1.220301	0.648395
N	-0.895243	-2.149269	1.24017
N	-0.387953	1.221695	0.683262
H	0.393233	1.528803	1.24977
H	-1.205214	1.093286	1.263186
Br	3.332321	0.0	0.0
