17

C	0.0	0.0	0.0
C	-0.227398	-0.051402	-1.533767
Cl	1.86759	0.0	0.0
H	0.451629	-0.805053	-1.947261
H	0.128903	0.914191	-1.912858
N	-0.467582	1.229476	0.535452
H	0.177324	1.990893	0.402408
H	-0.778667	1.155969	1.491009
C	-0.654461	-1.150951	0.712957
H	-0.405128	-2.104202	0.245199
H	-0.365419	-1.178612	1.767708
H	-1.741237	-0.936259	0.608527
C	-1.651312	-0.308178	-2.002931
H	-1.741285	0.011843	-3.04914
H	-2.416547	0.150281	-1.346611
H	-1.87496	-1.37799	-1.965719
F	-3.435577	0.0	0.0
