17

C	0.0	0.0	0.0
C	-0.45136	-0.239453	-1.446183
Cl	1.811694	0.0	0.0
H	-0.064254	0.59026	-2.053185
H	-1.542773	-0.149644	-1.357484
N	-0.534096	1.233748	0.521177
H	-0.362463	1.960255	-0.170649
H	-1.557669	1.016768	0.475796
C	-0.455911	-1.116573	0.924041
H	-0.02192	-2.078634	0.644763
H	-0.154863	-0.87096	1.944845
H	-1.548774	-1.116824	0.832817
C	-0.064789	-1.569946	-2.08058
H	1.014646	-1.742854	-2.050683
H	-0.562508	-2.400708	-1.57544
H	-0.381487	-1.592386	-3.128894
F	-2.932919	0.0	0.0
