13
Coordinates from ORCA-job run
  C   0.72245619005368      0.48174144057919      0.00586502717240
  C   -0.41989499003225     -0.50434875904248     -0.00228327362766
  F   0.60215146196768      1.36183558216763      1.03343379873072
  H   -0.23863498805362     -1.22287435496451     -0.80495348960274
  H   0.83067360164327      1.03477769462213     -0.92888307320921
  H   -0.39214626448101     -1.04640666166003      0.94836262264458
  N   2.01949835023610     -0.27598142880842      0.17643868741665
  O   2.39641046569291     -0.87014539286847     -0.82926710923786
  O   2.55369340155664     -0.27301395589348      1.27607122384407
  C   -1.76112496471729      0.19788392180355     -0.18355932742274
  H   -1.94261335415738      0.90702481828571      0.62452594732469
  H   -2.57401692387665     -0.53006834115599     -0.18436636074936
  H   -1.79745198583207      0.74057543693518     -1.13138467328354
