16

C	0.0	0.0	0.0
C	-0.465627	-0.159065	-1.549595
Cl	1.795052	0.0	0.0
H	0.455439	-0.501172	-2.031089
C	-0.449788	1.222611	0.65684
N	-0.71882	2.250458	1.159698
C	-0.406088	-1.182902	0.75807
N	-0.590262	-2.19757	1.322066
C	-0.866074	1.200679	-2.096585
H	-1.811323	1.505217	-1.643157
H	-0.106295	1.961766	-1.902765
H	-1.011076	1.105437	-3.173635
N	-1.483246	-1.12203	-1.821258
H	-2.371237	-0.849916	-1.38653
H	-1.227418	-2.042196	-1.485196
Br	-3.993079	0.0	0.0
