16

C	0.0	0.0	0.0
C	-0.575739	0.002639	-1.436083
Cl	1.79661	0.0	0.0
H	-1.647957	-0.155645	-1.262262
C	-0.412328	1.200153	0.732856
N	-0.614571	2.175861	1.355373
C	-0.399731	-1.216002	0.719088
N	-0.568414	-2.256456	1.238352
C	-0.020005	-1.131587	-2.278617
H	-0.117519	-2.092278	-1.767754
H	-0.597943	-1.188674	-3.205074
H	1.032455	-0.967245	-2.52513
N	-0.309213	1.310931	-2.019933
H	-0.084332	1.22034	-2.999884
H	-1.145058	1.87936	-1.938789
Br	-3.705905	0.0	0.0
