16

C	0.0	0.0	0.0
C	-0.577397	-0.020957	-1.434031
Cl	1.796849	0.0	0.0
H	-1.661572	-0.068253	-1.250079
C	-0.410403	1.219997	0.701702
N	-0.630624	2.222269	1.273228
C	-0.405763	-1.188329	0.759531
N	-0.648097	-2.160112	1.3738
C	-0.140731	-1.252959	-2.208245
H	0.930224	-1.225357	-2.430661
H	-0.361603	-2.171343	-1.661683
H	-0.692026	-1.28173	-3.151432
N	-0.232308	1.233446	-2.079356
H	0.352974	1.08512	-2.890061
H	-1.073501	1.721805	-2.352939
Br	-3.738507	0.0	0.0
