16

C	0.0	0.0	0.0
C	-0.450826	-0.157537	-1.554034
Cl	1.794789	0.0	0.0
H	0.472967	-0.505752	-2.026003
C	-0.448664	1.225078	0.653594
N	-0.721609	2.253133	1.153723
C	-0.409861	-1.182734	0.75458
N	-0.600931	-2.199961	1.311513
C	-0.83303	1.204235	-2.107911
H	-0.060415	1.953905	-1.919406
H	-1.772885	1.528788	-1.656035
H	-0.979304	1.104199	-3.184537
N	-1.46713	-1.117795	-1.838139
H	-2.354522	-0.85084	-1.399523
H	-1.20996	-2.039399	-1.505782
Br	-3.954957	0.0	0.0
