16

C	0.0	0.0	0.0
C	-0.513138	0.063993	-1.479018
Cl	1.794858	0.0	0.0
H	-1.600924	-0.001627	-1.358634
C	-0.411899	1.192909	0.745092
N	-0.57136	2.218663	1.296541
C	-0.410364	-1.23079	0.679043
N	-0.611114	-2.258118	1.213408
C	-0.013809	-1.114634	-2.296219
H	-0.235086	-2.065479	-1.805932
H	1.061819	-1.053855	-2.484519
H	-0.531451	-1.088948	-3.255984
N	-0.205709	1.316841	-2.131025
H	0.775495	1.554741	-2.033108
H	-0.766165	2.060137	-1.730121
Br	-3.591075	0.0	0.0
