14
Coordinates from ORCA-job run
  C   0.66989241054560      0.20925262015549     -0.13083394855456
  C   -0.58661998784654     -0.30875750767699     -0.20241606778868
  C   1.49662380250207      0.46138460415669     -1.25747366878225
  N   2.27971843146946      0.73973909422996     -2.09372010640978
  C   1.20161371374149      0.60001707994932      1.22594916786007
  H   1.03090476391785     -0.20475702760783      1.94768435865399
  H   0.71379665180563      1.50694275536988      1.60279718803347
  H   2.27175862843818      0.79675131225542      1.17619582940955
  N   -1.17785194668396     -0.76639462332679     -1.47861818626538
  O   -2.39168674754186     -0.98400814249182     -1.46834621078288
  O   -0.43612898052238     -0.90285951340674     -2.44396624312982
  N   -1.40763334960751     -0.52715826989043      0.86747117819531
  H   -2.36397594145866     -0.72629931610690      0.61234346868086
  H   -1.30141144875937      0.10714693439074      1.64293324088013
