14
Coordinates from ORCA-job run
  C   0.62088819326064      0.33322164633329     -0.11207823109581
  C   -0.57713054316235     -0.30028079317135     -0.24181162917790
  C   1.51106144994281      0.58762653628036     -1.18800716055512
  N   2.34385565772042      0.85096996648910     -1.97997815709521
  C   1.02667047811040      0.81397157679008      1.25975929079356
  H   0.24635083059089      1.45531186247381      1.68362782043300
  H   1.95725754672554      1.37914135003878      1.21836843741951
  H   1.17975064041799     -0.02739726124740      1.94716330774766
  N   -1.07275953038257     -0.78998646643215     -1.54502756809998
  O   -2.02766405778318     -1.56948960204404     -1.50411566567840
  O   -0.50712615376607     -0.40676134644982     -2.56163375880852
  N   -1.46853555069916     -0.51233030538901      0.77224739411414
  H   -2.16485745576876     -1.21130299457252      0.55749493754245
  H   -1.06776150520660     -0.60169416909913      1.69299098246062
