14
Coordinates from ORCA-job run
  C   0.67230796547146      0.12183837522120      0.12524493148721
  C   -0.55135571699324     -0.46914361151717     -0.05505687947258
  C   1.71820623297721     -0.80646919979844      0.39289930406123
  N   2.55959494217290     -1.60706031624724      0.59855039255323
  C   1.02305357589592      1.58969374818118      0.11429564481977
  H   0.43030004554103      2.14726618648906      0.84031328374307
  H   2.08279528931126      1.70502017344749      0.34679725194422
  H   0.83174812643254      2.03680668717855     -0.86206813904116
  N   -1.75075477535516      0.33523658794425     -0.36119119804991
  O   -2.81258128570375     -0.27933613174548     -0.46609800500145
  O   -1.61281805219098      1.54747388251375     -0.50799407485764
  N   -0.84386184919252     -1.79061129704977      0.09482214441704
  H   -1.68582266017389     -2.10525928923103     -0.35817191373023
  H   -0.06181183819278     -2.42745579538637      0.09765725712719
