14
Coordinates from ORCA-job run
  C   0.67693297648181      0.10825853979628      0.10526642079634
  C   -0.53723617538917     -0.47574274382428     -0.11722576671516
  C   1.73032655811235     -0.82155133312176      0.34403799789894
  N   2.57307557104716     -1.62150787548913      0.54526931398195
  C   1.02212131283996      1.57641302193870      0.09399319814401
  H   0.27109305769694      2.17300052555539      0.61123153406707
  H   1.98281082813998      1.71954994068789      0.58921729108074
  H   1.09443276998203      1.95647723070513     -0.92697802402663
  N   -1.73333580638528      0.35452914553514     -0.35319000789485
  O   -2.81501328534211     -0.15459557143945     -0.05638777942213
  O   -1.57721193067685      1.48182040279577     -0.81388976393126
  N   -0.82110397456692     -1.80731566479254     -0.20300751510615
  H   -0.10184373809609     -2.43329906679446      0.12596890743079
  H   -1.76404816384381     -2.05403655155268      0.05669419369633
