14
Coordinates from ORCA-job run
  C   0.53630062762466      0.41319533791049      0.09753143035904
  C   -0.61982738070158     -0.15763981577949     -0.34787248332529
  C   0.72211582024512      1.75552488433513     -0.34634646650465
  N   0.83517731751910      2.86433092106358     -0.73214772827905
  C   1.61188157842800     -0.15030569398527      0.98982550194052
  H   1.84323543814786      0.55023106400173      1.79272235575310
  H   1.32480509904574     -1.10508074682964      1.41694597388134
  H   2.52831172724395     -0.30866718329069      0.41359481790027
  N   -0.99432698452936     -1.53843016229790      0.01918660215515
  O   -2.20251586985737     -1.77310265769084      0.08327038629416
  O   -0.10093837161860     -2.35457776912761      0.22424983001573
  N   -1.53433758813789      0.38916579266011     -1.20482424197407
  H   -1.48317612406560      1.39164613129016     -1.31422762374488
  H   -2.46770528934402      0.02470989774023     -1.09090835447138
