14
Coordinates from ORCA-job run
  C   0.68537108961859      0.07746970562744      0.06894059563782
  C   -0.55945552194641     -0.45054337122727     -0.11821439857996
  C   1.71042679556640     -0.89873457361720      0.23056791560127
  N   2.52979394722173     -1.73575182620839      0.36975016302600
  C   1.08415509430772      1.53140182868720      0.11221326843323
  H   1.12170967833931      1.95959304053774     -0.89126704086450
  H   0.38231454168917      2.12833099470513      0.69435913225596
  H   2.07218984284439      1.61516071368082      0.56620270271086
  N   -1.72956649384861      0.43287839800370     -0.25926388030600
  O   -2.81472743109360     -0.04014217520501      0.08244515056244
  O   -1.55163034115161      1.56364811782585     -0.70510854328434
  N   -0.89907438791747     -1.76685009390779     -0.24225032159117
  H   -0.19209941542593     -2.43064874652584      0.03791152090822
  H   -1.83840739820368     -1.98481201237637      0.05471373549017
