14
Coordinates from ORCA-job run
  C   0.67934329881752      0.09900592826281      0.10799506143111
  C   -0.53906893575285     -0.46720928626048     -0.13510993765803
  C   1.71889862423538     -0.84725406417442      0.33917043847509
  N   2.54633619582427     -1.66523666947989      0.53214712486881
  C   1.03521668702053      1.56456507274800      0.13902790203710
  H   1.99098563122565      1.68695189587871      0.64976503156848
  H   0.28191798436165      2.15424586203928      0.66089056176543
  H   1.12498215894578      1.96858633369794     -0.87115924491331
  N   -1.72409385731136      0.37876704096956     -0.36108923766156
  O   -1.55325844004460      1.50680202731658     -0.81605772771736
  O   -2.81338996414572     -0.12056893314035     -0.07522773345731
  N   -0.83538530487716     -1.79451562877499     -0.24991036798522
  H   -0.12876544457621     -2.43244337555851      0.08563599052609
  H   -1.78471863372286     -2.03369620352426     -0.00607786127933
