14
Coordinates from ORCA-job run
  C   0.68328454952370      0.17888403477004     -0.10332732732110
  C   -0.58553063685214     -0.29928714654405     -0.21716715818834
  C   1.56656813299013      0.36328471970834     -1.20006999401443
  N   2.39087285377974      0.58799090252828     -2.01236348417070
  C   1.16350562749231      0.60810657088665      1.26115130009076
  H   0.69188954923890      1.54719614483389      1.57425434400955
  H   0.92985678503340     -0.15871869377683      2.00602344416404
  H   2.24131019917850      0.76577699917927      1.25569171322995
  N   -1.12953103758624     -0.78589609965436     -1.50389721611370
  O   -0.34319407793413     -1.01388635464883     -2.41519489042872
  O   -2.35284042402890     -0.93115651322975     -1.55654890351537
  N   -1.46555378062553     -0.45018070527542      0.81705658897741
  H   -1.37279127936064      0.20682344604032      1.57533647676779
  H   -2.41584646084911     -0.61793730481755      0.52005510651287
