14
Coordinates from ORCA-job run
  C   0.69607553831583      0.07226039001392      0.08240319550389
  C   -0.52630963476537     -0.49418449211114     -0.05320899363156
  C   1.79528087664049     -0.82519739995470      0.20323314115868
  N   2.68036846847114     -1.59938935551891      0.28471420743045
  C   0.94734467396459      1.55594177561597      0.02793180550719
  H   1.21212786304100      1.87482383033724     -0.98338003944935
  H   0.06746918341461      2.11559634518229      0.34901604536246
  H   1.76878134016867      1.81829627945599      0.69641958507855
  N   -1.69027909643162      0.39651899795306     -0.17911292414083
  O   -1.94045710843399      0.83194152757074     -1.29815604641432
  O   -2.31854430055412      0.61365178132821      0.85667755657759
  N   -0.87281526653727     -1.81106578108151     -0.19612715410530
  H   -0.10642875476642     -2.46009348865388     -0.08020198473276
  H   -1.71361378252752     -2.08910041013729      0.29079160585530
