14
Coordinates from ORCA-job run
  C   0.68903718521067      0.06983988877929      0.09636860206344
  C   -0.53520679562013     -0.48313658873647     -0.07899645975886
  C   1.77098214816299     -0.84600889895710      0.23959862830027
  N   2.63910372178422     -1.63382282507740      0.36247788396225
  C   0.97731760512973      1.54632953218843      0.08093324546968
  H   1.61500837515350      1.81313759047477      0.92626186709723
  H   0.06036464400329      2.13207262911602      0.15433981312157
  H   1.49649168598526      1.82878980697840     -0.83896280574316
  N   -1.69265670727041      0.41371246736869     -0.22245081800711
  O   -2.20217049680372      0.81775504922748      0.82193918412204
  O   -2.05593672306386      0.66983544972867     -1.36664465903268
  N   -0.87664038134968     -1.79714638140092     -0.25298035227707
  H   -0.12775757268211     -2.45283865130023     -0.07699044598946
  H   -1.75693668863977     -2.07751906838963      0.15510631667186
