14
Coordinates from ORCA-job run
  C   0.64858522348340      0.24686258548364     -0.16279259576516
  C   -0.63653739185407     -0.19903027576382     -0.18925877949772
  C   1.49604341105255      0.30924513182282     -1.30075013668827
  N   2.31232710610691      0.39477886183866     -2.14706653441020
  C   1.24132368001234      0.63679787219866      1.16911484736551
  H   2.17535710976997      1.17909835009445      1.02770839486889
  H   1.45863928658521     -0.24423325691509      1.78440141344291
  H   0.54882643481124      1.27940223082832      1.72122787479215
  N   -1.31674649982701     -0.55972866568787     -1.45286586685823
  O   -0.80854571347454     -0.19752365905006     -2.50699942117307
  O   -2.36254801981961     -1.20354050426347     -1.34241836727499
  N   -1.45710843965249     -0.30303282562168      0.89798160179848
  H   -2.29527416436280     -0.83839298475040      0.72442045028816
  H   -1.00534202283109     -0.50170286021417      1.77629711911157
