14
Coordinates from ORCA-job run
  C   0.68036905477817      0.13099886219822      0.04917193651862
  C   -0.53143988534158     -0.49504845385647     -0.01813580019334
  C   1.79260985492539     -0.75620187842107     -0.02437119851497
  N   2.68513812940201     -1.52376910994045     -0.09783337317787
  C   0.96010855454326      1.60520073285399      0.20427572007255
  H   0.31868913657246      2.20928492472296     -0.43722217876381
  H   2.00035964924733      1.79863691600134     -0.05982558735206
  H   0.79424839185322      1.93174999025393      1.23263942165515
  N   -1.77980426293508      0.28757666391537      0.00877638633256
  O   -2.76058529255583     -0.23125985809537     -0.52654233943206
  O   -1.76355601404695      1.38782192978681      0.55432310502238
  N   -0.77544639720754     -1.83679982939466     -0.06859304034174
  H   0.01783968759469     -2.41969298221235     -0.29125870784990
  H   -1.63953060682956     -2.08849790781226     -0.52440434397551
