14
Coordinates from ORCA-job run
  C   0.65321981040089      0.16996689723983     -0.09956814474510
  C   -0.63325351997430     -0.26955763815724     -0.16613526733299
  C   1.64816009232770     -0.23312978252252     -1.03435159777799
  N   2.55245060772455     -0.53655186413103     -1.72487432004170
  C   1.11523269545344      1.13497038814449      0.96485244798389
  H   1.26239968745393      2.13106578029764      0.53788739527699
  H   0.40848439112408      1.22515701794811      1.79087026822785
  H   2.07001844720784      0.80569157573610      1.37749869076086
  N   -1.05433671462322     -1.21839394549518     -1.22355660919268
  O   -0.45101337562573     -1.20952007418808     -2.28927898191305
  O   -2.00636549549574     -1.94926301772269     -0.94134600200224
  N   -1.68705209280237      0.07779799864365      0.62987198934487
  H   -2.41721612228427     -0.61855194674340      0.66052294712681
  H   -1.46172841088679      0.49131861095033      1.51860718428447
