14
Coordinates from ORCA-job run
  C   0.61804850064644      0.34278423896941     -0.10038237750381
  C   -0.58927781666293     -0.26746404650828     -0.24877983646210
  C   1.52918613218743      0.57992296949579     -1.16418485863629
  N   2.38666727806647      0.81280702300874     -1.93880341301379
  C   1.05682325697286      0.72318948897881      1.29201663535144
  H   1.93535779445806      1.36622162273404      1.25486478208647
  H   1.31816696820966     -0.16060455534315      1.88662186225152
  H   0.25529249416589      1.25945688184203      1.80956710202286
  N   -1.12642606095749     -0.63456213319244     -1.57688698132189
  O   -0.59725811729533     -0.14911559140145     -2.56931116375878
  O   -2.08617645287958     -1.40872743436719     -1.58002439922499
  N   -1.45829287822453     -0.54738874941930      0.76756161178434
  H   -2.20069434793403     -1.17888376802930      0.50422534999654
  H   -1.04141675075295     -0.73963594676770      1.66451568642845
