14
Coordinates from ORCA-job run
  C   0.68330982941619      0.10399274490800      0.07194450031835
  C   -0.54473294065188     -0.47618267565382     -0.06812342798662
  C   1.72646920031971     -0.81737524851800      0.37530037360883
  N   2.55933457517829     -1.61098411373824      0.63544710262596
  C   1.04405314215834      1.56191988430391     -0.06960216729884
  H   1.08718610740987      1.85651590106393     -1.11991070014797
  H   2.02273381817861      1.73113623535096      0.38101902237570
  H   0.31721660350582      2.20899710937774      0.42147326117301
  N   -1.73358998879392      0.35023864694685     -0.34124226456471
  O   -1.57508676989277      1.42008233413673     -0.92334058415213
  O   -2.81273868600229     -0.10366029743916      0.04183890880897
  N   -0.85017814929513     -1.80571354748720     -0.02828248553920
  H   -0.13378386249710     -2.40997026226691      0.34641940208669
  H   -1.79019287903373     -2.01099671098481      0.27505905869196
