14
Coordinates from ORCA-job run
  C   0.68550883227929      0.12442194215136      0.03351736659155
  C   -0.55701304844198     -0.44969556383297      0.10943654876416
  C   1.74294806200477     -0.77073166948843      0.35663785559684
  N   2.58700152729481     -1.55085970609614      0.62182425229295
  C   1.05184380063373      1.54269770074679     -0.33176761899204
  H   0.71785074710221      1.79180289563445     -1.34135484934551
  H   2.13504848197082      1.65769188485096     -0.28548746497455
  H   0.59071555190439      2.26318085629336      0.34352907327637
  N   -1.77599426275709      0.31940641258748     -0.21734899502273
  O   -1.67219634609219      1.52533686416174     -0.42837615622234
  O   -2.82997527265149     -0.31930379551390     -0.25920766741881
  N   -0.84675976158162     -1.70642728454229      0.54003754540031
  H   -1.74689349419239     -2.06850916017851      0.27005288796991
  H   -0.08208481747328     -2.36101137677391      0.58950722208388
