14
Coordinates from ORCA-job run
  C   0.68209154309098      0.10303039146898      0.07960154575238
  C   -0.54670991269895     -0.47461808129467     -0.06028065649488
  C   1.71607446194508     -0.81403616064830      0.42578521319925
  N   2.53971612637030     -1.60478322864347      0.72174464854889
  C   1.05332360257829      1.55345499259873     -0.10304020043551
  H   0.30654556398032      2.22062195661987      0.32707182854803
  H   1.14746863800923      1.80562834980395     -1.16128935941561
  H   2.01040545657137      1.73889439005923      0.38618037381817
  N   -1.72631316458812      0.34900681161781     -0.37783810748882
  O   -2.81110176094217     -0.07717938310488      0.02125731171523
  O   -1.55535205326492      1.38823141411856     -1.00961377399962
  N   -0.86138136580331     -1.80080341712563      0.01527883735786
  H   -0.15096585625703     -2.39681001391703      0.41323205622959
  H   -1.80380127899107     -1.99063802155315      0.32091028266505
