14
Coordinates from ORCA-job run
  C   0.68101748040450      0.10720701967595      0.08549633870735
  C   -0.54033554021175     -0.47559816922229     -0.09733928148980
  C   1.72787993121074     -0.82119513932356      0.35359903253395
  N   2.56233074103561     -1.62283070202545      0.58232195267104
  C   1.03317016347407      1.57253227397789      0.02327158245868
  H   2.00644097944841      1.72387422738031      0.49113396774295
  H   0.29759396770413      2.18874485170623      0.53996208226339
  H   1.08401661606095      1.92184856653704     -1.00965091071075
  N   -1.73384932615129      0.35188934625291     -0.34690776523770
  O   -1.57642325833776      1.45951966647678     -0.85368880601360
  O   -2.81598859722814     -0.13982852343056     -0.02298114816745
  N   -0.83250146034826     -1.80854075460862     -0.12632230821577
  H   -1.77626359412302     -2.03591820582351      0.14831727019618
  H   -0.11708810293818     -2.42270445757312      0.23378799326153
