14
Coordinates from ORCA-job run
  C   0.68929733054444      0.08698154522099     -0.01205652974748
  C   -0.56126809159637     -0.45947141254804      0.03561943125433
  C   1.73551329233907     -0.84421443564326      0.24883127107429
  N   2.57021708680350     -1.64506626627762      0.47925684706107
  C   1.07132252996469      1.51401110489918     -0.31713768764185
  H   0.42715256631242      2.22516288147512      0.19978911830571
  H   0.99642715998947      1.72217763082344     -1.38602654034892
  H   2.10124187881043      1.68133478517742     -0.00004660468955
  N   -1.75291328190377      0.38069949143955     -0.17793536664396
  O   -1.62970441002355      1.40301253864970     -0.84741465246963
  O   -2.79894197816223     -0.01434145864477      0.33918821161176
  N   -0.89237836214791     -1.77005178465055      0.22413787065394
  H   -0.15548924234189     -2.36307740521146      0.57608994713712
  H   -1.80047647858830     -1.91615721470969      0.63870468444318
