14
Coordinates from ORCA-job run
  C   0.67669194567062      0.11687712376175      0.10426524243190
  C   -0.56100853046123     -0.45809005187754      0.05738486124799
  C   1.71823602049530     -0.78469415985739      0.46720189073051
  N   2.55209766623361     -1.56507340968696      0.76203415845181
  C   1.04572382607866      1.55561903514150     -0.15945121630172
  H   0.54294965201562      1.94756176633363     -1.04347375005696
  H   0.77068236770443      2.19367005736231      0.68235376730163
  H   2.12331726232014      1.62347494461379     -0.31190764701272
  N   -1.73901484173976      0.33471005048856     -0.33704940730075
  O   -2.67989574641116     -0.29264456385917     -0.82580562525655
  O   -1.70863131656921      1.54903838282553     -0.15591340555387
  N   -0.89884109596775     -1.73913724925593      0.38558358603213
  H   -1.71416688658929     -2.09214709119875     -0.09242309346656
  H   -0.13014032277998     -2.38816483479135      0.46720063875314
