14
Coordinates from ORCA-job run
  C   0.66430459693173      0.23303071028805     -0.11239796319270
  C   -0.61483135669377     -0.21297804325026     -0.23941447908556
  C   1.62692912342469      0.20162744957362     -1.15625198113533
  N   2.52795203168039      0.22016076390699     -1.91632613688575
  C   1.11674766771427      0.72926280691222      1.23888546949901
  H   0.38031372819393      1.42290701102470      1.65595648172871
  H   1.24884734176861     -0.09842406048850      1.94565771986769
  H   2.07057295042350      1.24857809425593      1.15590585814366
  N   -1.16062261876060     -0.67600644686593     -1.53380652086395
  O   -0.54129076038733     -0.40117294503719     -2.55443382033317
  O   -2.21712992149046     -1.30976254948977     -1.48254286376911
  N   -1.54643563594878     -0.22618096995725      0.76016765768485
  H   -1.18934396317939     -0.35346759786672      1.69372116059566
  H   -2.36501318367677     -0.77657422300590      0.54487941774598
