14
Coordinates from ORCA-job run
  C   0.67060945885861      0.10708306615509      0.14801465905421
  C   -0.56449922084679     -0.45692120423755      0.00097121835962
  C   1.68702703081149     -0.82010746758592      0.51733708109930
  N   2.49951340066334     -1.62162830510402      0.81508528883705
  C   1.05847651714802      1.55568132880314     -0.01538110136678
  H   0.60185716048749      1.99961448584825     -0.89984350941395
  H   0.74362046391564      2.14764329346800      0.84605590703322
  H   2.14272301604869      1.62447850020973     -0.10932292214094
  N   -1.71637402198552      0.36276697659192     -0.41331098245395
  O   -2.63067832305943     -0.23131132145920     -0.98680267503839
  O   -1.69211990460887      1.56547328570732     -0.16561928240918
  N   -0.92315433439739     -1.75221349189724      0.23752035215237
  H   -1.71150316840869     -2.07433894854809     -0.30351767056923
  H   -0.16249807462659     -2.40922019795142      0.32881363685665
