15

C	-0.640777	-0.037669	-1.364771
C	0.0	0.0	0.0
Cl	0.164932	1.219031	-2.430903
H	1.08877	0.0	0.0
H	-0.2934	0.966263	0.439233
N	-0.369417	-1.348648	-2.089222
O	-1.163215	-1.641104	-2.986857
O	0.618415	-1.985706	-1.771423
N	-2.04538	0.117562	-1.320661
H	-2.434775	0.050428	-2.252425
H	-2.261852	1.019302	-0.916691
N	-0.461412	-1.153115	0.770736
H	-1.153595	-0.894965	1.460266
H	0.352734	-1.534208	1.240801
H	2.937383	0.0	0.0
