15

C	-0.288609	-0.112428	-1.495622
C	0.0	0.0	0.0
Cl	-1.890735	-0.887193	-1.874561
H	1.093402	0.0	0.0
H	-0.32872	-0.936288	0.462981
N	-0.409024	1.356642	-2.039261
O	-1.503259	1.890896	-2.159519
O	0.675237	1.888155	-2.259072
N	0.75025	-0.832594	-2.087297
H	0.78344	-0.747561	-3.092549
H	1.655914	-0.592116	-1.645886
N	-0.515859	1.203292	0.618046
H	-1.302365	1.007937	1.219162
H	0.231131	1.614897	1.167543
H	2.880427	0.0	0.0
