12

C	-0.468576	-0.014558	-1.459085
C	0.0	0.0	0.0
Cl	-2.274192	0.111526	-1.539572
H	1.094404	0.0	0.0
H	-0.338111	0.932231	0.460794
C	0.076277	1.140504	-2.17884
N	0.495887	2.059422	-2.778904
C	-0.086046	-1.252683	-2.142864
N	0.192029	-2.239164	-2.717219
C	-0.528443	-1.138813	0.735682
N	-0.966573	-2.049741	1.333166
Br	3.368146	0.0	0.0
