12

C	-0.48353	0.044097	-1.460062
C	0.0	0.0	0.0
Cl	0.159448	1.502923	-2.272143
H	1.093161	0.0	0.0
H	-0.33582	-0.941585	0.447041
C	-0.019725	-1.148901	-2.177361
N	0.332241	-2.098933	-2.772046
C	-1.950198	0.085845	-1.536378
N	-3.124354	0.111368	-1.579851
C	-0.536057	1.119041	0.761289
N	-0.98523	2.007323	1.38404
Br	3.387595	0.0	0.0
