12

C	-0.482827	-0.016646	-1.460923
C	0.0	0.0	0.0
Cl	0.155652	-1.46176	-2.29972
H	1.093104	0.0	0.0
H	-0.335036	0.933344	0.464994
C	-1.949629	-0.050951	-1.539043
N	-3.124145	-0.065598	-1.578211
C	-0.014304	1.188107	-2.155591
N	0.33853	2.145899	-2.737876
C	-0.536539	-1.132808	0.740633
N	-0.989537	-2.032462	1.344501
Br	3.391938	0.0	0.0
