12

C	-0.482866	0.004108	-1.461125
C	0.0	0.0	0.0
Cl	0.15718	1.441318	-2.31194
H	1.093111	0.0	0.0
H	-0.335534	-0.929244	0.472466
C	-0.016066	-1.206902	-2.145892
N	0.335216	-2.169066	-2.721342
C	-1.949584	0.039472	-1.538746
N	-3.124253	0.053377	-1.573676
C	-0.535859	1.139474	0.730349
N	-0.982453	2.046886	1.327027
Br	3.394214	0.0	0.0
