12

C	0.0	0.0	0.0
C	-0.399611	0.211896	-1.463169
Br	1.9274	0.0	0.0
H	0.366952	-0.229023	-2.103693
H	-0.354378	-0.916126	0.445657
H	-0.373134	1.29119	-1.633318
N	-0.4223	1.107868	0.917432
O	-0.500521	2.239279	0.456636
O	-0.541098	0.812403	2.099752
C	-1.701329	-0.307422	-1.905372
N	-2.434297	-0.71937	-2.735492
F	-2.334963	0.0	0.0
