12

C	0.0	0.0	0.0
C	-0.505716	0.018923	-1.429894
Br	1.914272	0.0	0.0
H	-1.62602	0.091694	-1.205735
H	-0.399677	-0.829	0.569877
H	-0.089403	0.878994	-1.957193
N	-0.430006	1.245931	0.723486
O	-0.39796	2.29639	0.090703
O	-0.681373	1.133956	1.914586
C	-0.166188	-1.208927	-2.12079
N	0.079456	-2.204755	-2.696231
F	-2.56515	0.0	0.0
