14

C	0.0	0.0	0.0
C	-0.295918	0.065009	-1.522644
Br	1.944995	0.0	0.0
H	0.126771	1.021147	-1.851097
H	0.279675	-0.715949	-2.020726
N	-0.527732	0.972345	0.850631
H	-1.578039	0.765144	0.699776
H	-0.289627	1.884475	0.47602
N	-0.412719	-1.386458	0.52175
O	-0.600129	-1.506386	1.72038
O	-0.450337	-2.290211	-0.306532
C	-1.661263	-0.013525	-2.060243
N	-2.487909	-0.059993	-2.897869
F	-2.624763	0.0	0.0
