14

C	0.0	0.0	0.0
C	-0.307895	-0.081577	-1.50509
Br	1.986672	0.0	0.0
H	0.371868	0.629875	-1.97791
H	-0.021379	-1.074446	-1.854081
N	-0.52088	1.115517	0.618861
H	-0.274222	1.105736	1.601632
H	-1.58259	0.892866	0.486859
N	-0.362769	-1.346617	0.710786
O	-0.46983	-2.363088	0.036123
O	-0.489383	-1.28091	1.925495
C	-1.637155	0.232565	-2.043311
N	-2.413766	0.500603	-2.886605
F	-2.619014	0.0	0.0
