14

C	0.0	0.0	0.0
C	-0.532695	-0.231717	-1.407477
Br	1.951184	0.0	0.0
H	-1.63548	-0.240562	-1.224791
H	-0.190846	-1.191734	-1.791597
N	-0.564899	1.124775	0.575224
H	-0.312246	1.177517	1.555343
H	-1.607366	0.910673	0.463737
N	-0.315928	-1.316551	0.820253
O	-0.493921	-1.166004	2.022473
O	-0.318342	-2.389889	0.229856
C	-0.14548	0.836339	-2.312689
N	0.149109	1.659621	-3.097256
F	-2.788921	0.0	0.0
