14

C	0.0	0.0	0.0
C	-0.407712	0.009483	-1.504156
Br	1.979986	0.0	0.0
H	-1.509287	0.005498	-1.546388
H	-0.056328	0.929696	-1.949553
N	-0.421908	1.180774	0.766005
H	-0.20024	2.008615	0.262731
H	-0.116378	1.137184	1.705781
N	-0.457697	-1.301403	0.785064
O	-1.540957	-1.857405	0.523631
O	0.219751	-1.619974	1.754992
C	0.004595	-1.222859	-2.153617
N	-0.077255	-2.369506	-2.418607
F	-1.822159	0.0	0.0
