16
Coordinates from ORCA-job run
  C   -0.75622603668869      0.16200501693180     -0.37611750950875
  C   0.59713262194254      0.02281476695776      0.36110871663116
  Cl  -0.71314901753930      1.56024052640586     -1.44991857859942
  H   0.48069487266797     -0.90092847858351      0.94832697621072
  N   -0.91394241180823     -1.12470251874553     -1.19888794849943
  O   -1.27156721253552     -2.10209638394994     -0.54572894726351
  O   -0.60767046771895     -1.12779992398536     -2.38344102758720
  N   -1.89576324371283      0.24877727871185      0.47283617722973
  H   -1.69429109798577      0.97504537987166      1.15263683259791
  H   -2.00850664172300     -0.63366343166113      0.95907059451147
  N   0.68984394020497      1.11996009534278      1.30243103402064
  H   1.15023374553498      1.89175477745930      0.83235504654546
  H   1.25159164818802      0.85627659904932      2.10116297938749
  N   1.70892823828151     -0.00650038844268     -0.56991921390038
  H   1.48061468913582     -0.46069791406675     -1.44551612401976
  H   2.50307637375646     -0.47848540129543     -0.15739900775614
