16
Coordinates from ORCA-job run
  C   -0.69631471497004      0.06063718594243     -0.34503535234400
  C   0.64756457019792     -0.06631511346308      0.39784822652631
  Cl  -0.62066619284790      1.45369933082881     -1.51029211379856
  H   0.54378541358583     -0.99223877029477      0.98032290525811
  N   -0.99098940786431     -1.15739463263728     -1.22000630309323
  O   -2.11140826923838     -1.20581250917791     -1.70640531651946
  O   -0.11460208088451     -2.00907091789969     -1.34521931500012
  N   -1.74275937894410      0.12225340816977      0.58164755985460
  H   -1.51154642612760      0.80663777659291      1.29162172311546
  H   -2.63338536491527      0.30414908964229      0.13898424534212
  N   0.69650767665797      1.03942743686632      1.33674934655018
  H   1.08728037873999      1.84352992635665      0.85698859549265
  H   1.29030633728355      0.81029793488641      2.12278858437537
  N   1.78250210000314     -0.04660593482477     -0.50223390380263
  H   2.62856431389130     -0.12151130083668      0.04979707273305
  H   1.74516104543240     -0.84268291015140     -1.12655595468986
