16
Coordinates from ORCA-job run
  C   -0.75636035908833      0.13211825656284     -0.38135926182428
  C   0.57209266284253     -0.06118669514086      0.37207461985957
  Cl  -0.58516314139649      1.48643688388519     -1.51584015196057
  H   0.38620144273508     -0.90224971866397      1.04679543666027
  N   -0.99625313067794     -1.16643100090564     -1.15671296226191
  O   -0.91457245891669     -1.18589653189194     -2.37082955625936
  O   -1.24018637966482     -2.12290494431983     -0.42419339730273
  N   -1.90758563342312      0.34128054780888      0.43262197281589
  H   -1.67449676807678      1.07022532021587      1.09872931934365
  H   -2.09629729885091     -0.51729419253802      0.93901602267594
  N   0.77343224555196      1.11724612070343      1.20366894916969
  H   1.43463464897952      0.91349504325689      1.94231053825837
  H   1.14452941922299      1.87937911446038      0.64829938909712
  N   1.59381771554887     -0.47761448028239     -0.56116977883970
  H   2.42850539354528     -0.77619191570505     -0.07389415762207
  H   1.83570164166890      0.27058819255424     -1.19951698180987
