16
Coordinates from ORCA-job run
  C   -0.62607539788669     -0.05742245775541     -0.42671144482097
  C   0.88181518574405     -0.00160610142883     -0.11324747540529
  Cl  -0.84463858436521      0.28154617294609     -2.22613010361713
  H   1.39559859640702     -0.64749882133280     -0.83072488759042
  N   -1.16304512417637     -1.47357544361769     -0.28855001792837
  O   -0.37069837773668     -2.39347017062316     -0.46376036229748
  O   -2.35727596809322     -1.58462365689335     -0.04191346639387
  N   -1.33860645264562      0.77527205217844      0.42580361666828
  H   -0.91090050419878      1.69368193042651      0.43289900392289
  H   -2.33189875919979      0.79250858720178      0.24424023869285
  N   1.20175637125365     -0.45822806459011      1.21672015243103
  H   0.55100818231385     -0.05749037111519      1.88240234673258
  H   1.14825609233017     -1.46654465780431      1.26566500186843
  N   1.25505339943205      1.40548211867017     -0.19404032348195
  H   2.14574454174412      1.50153119732893      0.27773253330241
  H   1.36390679907746      1.69143768640896     -1.15938481208301
