16
Coordinates from ORCA-job run
  C   -0.60773012148736      0.16315502432374     -0.45653294728054
  C   0.75202843063363      0.44551022873606      0.23831769063994
  Cl  -0.54075972846178      0.71165784096786     -2.18760201498442
  H   0.77109245863525      1.54513712162589      0.34026182698926
  N   -0.85571819774141     -1.33984809734906     -0.52211284779031
  O   0.02709815944836     -2.01575047316234     -1.03034554453248
  O   -1.91549888422049     -1.75754473451722     -0.07176609437305
  N   -1.64659306300822      0.75084606690988      0.29096308892378
  H   -1.61125696982370      1.75853002026476      0.20740153593590
  H   -2.55743414423752      0.40463034011600      0.01789931637406
  N   1.96672528086259      0.06411429008029     -0.42146523767883
  H   2.09838940704778      0.59146784609119     -1.27380532072095
  H   1.92818631379786     -0.92128583414723     -0.65015111193290
  N   0.68689669436516     -0.28317029215192      1.48662634673089
  H   1.57206565766913     -0.17852439995219      1.96504139183265
  H   -0.06749129347924      0.06107505216429      2.06526992186698
