16
Coordinates from ORCA-job run
  C   -0.64851948444490      0.00068346970120     -0.30568288490339
  C   0.66794284882833     -0.06521633230529      0.50074201368284
  Cl  -0.45174430740754      1.27666451126176     -1.62181314827242
  H   0.53931818713776     -0.92638823634784      1.16170516929343
  N   -0.92600647483177     -1.28648011863560     -1.07838179693236
  O   -1.98905322159639     -1.32630881214638     -1.68198460943653
  O   -0.10651060517526     -2.19707124367309     -0.99901911261604
  N   -1.74145762738274      0.18516338639538      0.53309710296698
  H   -1.53736339938722      0.89967374848547      1.21984576697599
  H   -2.61068140451640      0.32823847216824      0.03762786765790
  N   0.67457495547132      1.13387232729955      1.32372330548627
  H   0.93387289494965      1.92752048051857      0.74620284473184
  H   1.40313874352701      1.02618452765615      2.01936777223092
  N   1.89607720670035     -0.25504320952719     -0.23189464638283
  H   1.90478563973051     -1.16839751805748     -0.66651598110903
  H   1.99162604839731      0.44590454720656     -0.95701966337356
