16
Coordinates from ORCA-job run
  C   -0.72523146042086      0.12727832360526     -0.31742347819312
  C   0.68874049760787     -0.01221848318721      0.31919319181157
  Cl  -0.86146402660094      1.61537392442456     -1.23486144450536
  H   0.62276613675292     -0.94839333582897      0.89844912591393
  N   -0.86797093785895     -1.08429322008297     -1.24511555543894
  O   -0.98750836202386     -2.14295268578566     -0.62918523901292
  O   -0.78744298139182     -0.95744356478192     -2.45724059188489
  N   -1.82341707584166      0.04068500313266      0.59636425381321
  H   -1.94172718821184      0.90838721573603      1.09921680523106
  H   -1.70114466806767     -0.73722763635839      1.23224497568054
  N   1.02950402764481      1.03922459269237      1.24002547790093
  H   1.01596627804544      1.93334893484907      0.76403271965250
  H   0.41014338507319      1.06009042722837      2.03842685797376
  N   1.69910149437238     -0.00810112966413     -0.71034525452757
  H   1.62414425359033     -0.80238761192897     -1.33282981543831
  H   2.60554062733066     -0.03037075405010     -0.26095202897639
