16
Coordinates from ORCA-job run
  C   -0.65864047220705      0.23972316305030     -0.33966943098528
  C   0.68434894462591     -0.06786253835193      0.33969251247223
  Cl  -0.51399241361967      1.52764020505581     -1.52350273283976
  H   0.46081350352162     -0.89267756662980      1.03296675579744
  N   -1.04009859510414     -1.07619247842989     -1.08026391882482
  O   -1.02219266561596     -1.14172512544358     -2.29533751497082
  O   -1.33472157351984     -1.98437417474444     -0.30402061369322
  N   -1.63819132811677      0.58671502896345      0.63380067150725
  H   -1.85413761717746     -0.23305429684458      1.19070291886498
  H   -2.48496095614126      0.92934067657509      0.19593984631518
  N   1.14667089652319      1.14535180957883      0.99069900525080
  H   1.90767993804012      0.91909443143800      1.61955023234316
  H   0.39067057306852      1.55348551196557      1.52950810093104
  N   1.60176571363849     -0.58487978669563     -0.64309097500263
  H   2.01488819375466      0.19265062262432     -1.14564025805832
  H   2.34209785832965     -1.11223548211153     -0.20033459910724
