16
Coordinates from ORCA-job run
  C   -0.70063846736695      0.07869955482058     -0.33816014905086
  C   0.68459884728270     -0.08462868838829      0.33295072675924
  Cl  -0.68730891366705      1.48092534723884     -1.41379062374002
  H   0.57307953278367     -0.96746777637427      0.97165843744179
  N   -0.92784214360415     -1.20299824685716     -1.14496254082013
  O   -0.92261956836170     -1.18360822298821     -2.36166394145350
  O   -1.08497156567621     -2.18585805283007     -0.42416497835397
  N   -1.83011259915325      0.18683172158977      0.53320803204936
  H   -1.83641052024871     -0.58659261834737      1.18713303738093
  H   -1.82292397241194      1.07165223648541      1.02128931632007
  N   1.07013006357092      1.01734619015625      1.19213327911293
  H   0.48121990331128      1.08411429415481      2.01285262635430
  H   1.04680710326299      1.89785717207300      0.69151049337659
  N   1.64915033653639     -0.40253343457553     -0.68852847159832
  H   1.76634618283110      0.37809396206383     -1.32427034164940
  H   2.54249578091093     -0.58183343822159     -0.24719490212899
