16
Coordinates from ORCA-job run
  C   -0.69416660562362      0.33044782846575     -0.50087696847366
  C   0.67892783287349      0.47712830499503      0.19045246205376
  Cl  -0.67749966410718      1.15403762080660     -2.07592333707943
  H   0.85826967348128      1.56109365376699      0.19920776344775
  N   -0.87365494643977     -1.19994106080262     -0.78781050820347
  O   -0.60306585364747     -1.65967980604506     -1.88493489809125
  O   -1.24523737368495     -1.83627262582462      0.19594932727011
  N   -1.69835725450600      0.85591686318399      0.31630144154060
  H   -2.62887401481506      0.67586574706528     -0.03448274736049
  H   -1.56524976137495      0.51708732751553      1.26175139603574
  N   1.66552129282990     -0.30271614092617     -0.53561285803823
  H   2.58493548233859     -0.11689718613194     -0.15456989443914
  H   1.67808667400525     -0.06474339762719     -1.52084872811715
  N   0.56376962048125      0.04827463773193      1.56747845119295
  H   0.70757960421417     -0.95382861915277      1.61871384972745
  H   1.25001529397503      0.51422685297924      2.14520524853447
