16
Coordinates from ORCA-job run
  C   -0.66321042198681     -0.00631024417984     -0.61278391128449
  C   0.83355138496433      0.05243124186641     -0.18507429880910
  Cl  -0.75411346713590      0.32307659749107     -2.35860070951657
  H   1.39967863971654     -0.49649845767131     -0.94001912773714
  N   -1.09437875576656     -1.44846978437607     -0.38018353515840
  O   -0.52805698460040     -2.30106574536490     -1.05310397344203
  O   -1.88120876906977     -1.66220028762381      0.53787574433324
  N   -1.55344655282434      0.85191472251792      0.07305230932167
  H   -1.78850277073895      0.51105134158450      0.99398117810867
  H   -1.15800979360470      1.78360192555524      0.08386532388831
  N   1.08872384410531     -0.56380444903182      1.10160022358400
  H   1.08310472758245     -1.57387376351253      1.04199232950457
  H   0.40183020318615     -0.27922343888729      1.79124395826757
  N   1.19274679117841      1.46288658681411     -0.18747783982375
  H   1.35398465096812      1.74938930846802      0.77083451829134
  H   2.06630727402620      1.59709444635027     -0.67820218952788
