16
Coordinates from ORCA-job run
  C   -0.64719180604368      0.16530965630812     -0.44250516208039
  C   0.75191371145125      0.53862267382279      0.10379404093211
  Cl  -0.81258455604591      0.62491011896697     -2.18285741465847
  H   0.71054480420881      1.63386333928644      0.16903965576858
  N   -0.87831155426892     -1.34492623122636     -0.42881456116089
  O   0.10642132815934     -2.06929543891512     -0.53533239777926
  O   -2.03818868741886     -1.72657551004162     -0.34233700569393
  N   -1.64245488817755      0.72349562807924      0.39254223904243
  H   -1.61077444416595      1.73396390649415      0.33745890020191
  H   -2.56316360845093      0.39664139177632      0.12536866676912
  N   1.81675598560657      0.21562834231135     -0.80656812439790
  H   1.90500124845153     -0.78792254952718     -0.89526074051135
  H   2.67730272090923      0.58069249732371     -0.41870409484199
  N   0.96348099494775      0.03893942111195      1.45402629187923
  H   0.16002302712054      0.24194210876036      2.03773415483888
  H   1.10222572371675     -0.96428935453117      1.43041555169195
