16
Coordinates from ORCA-job run
  C   -0.58650931212705     -0.02134887074094     -0.63575544449506
  C   0.80579538653383     -0.02774369513825      0.02688020890766
  Cl  -0.42027676328357      0.36530843474267     -2.37182457946067
  H   1.40137641506807     -0.78095523919511     -0.49826622683995
  N   -1.15992925344753     -1.47426404119297     -0.66664891758065
  O   -0.40143286330423     -2.39607294291984     -0.36596113839087
  O   -2.33367560310400     -1.58364087561736     -0.97893708702728
  N   -1.49687011990927      0.78539203382973      0.04050193893968
  H   -1.11824914552705      1.25223823031008      0.84768423973731
  H   -2.13184074703957      1.32031183296522     -0.52506909711627
  N   0.61803036598807     -0.28884822014903      1.45107686933899
  H   0.25845119397392     -1.22688818598274      1.59092234719505
  H   1.52226245298781     -0.24011811511733      1.90644159210072
  N   1.42563255638685      1.25975369290214     -0.17726583535008
  H   1.18580841754568      1.88469165904242      0.58188342005276
  H   2.43042701925806      1.17318430226133     -0.22666229001134
