16
Coordinates from ORCA-job run
  C   -0.76407405870357     -0.01523454580128     -0.22323802467208
  C   0.67085649724902     -0.08001653993765      0.30803778438150
  Cl  -0.89363920107320      1.41666338418144     -1.33854663389244
  H   0.70748763019355     -0.99898830667168      0.89521195481098
  N   -1.01740416840594     -1.28266125043873     -1.06285309183703
  O   -0.67401529845529     -2.31920850513839     -0.51206498895699
  O   -1.57434927323463     -1.18433368564823     -2.14548067584170
  N   -1.68729034584428     -0.01044214214616      0.82686631739324
  H   -1.35666382997599      0.61455215224260      1.55280785198625
  H   -2.62517504503469      0.22274449272422      0.52862713872288
  N   0.83798818531308      1.03466777777912      1.23273197801327
  H   1.63939132852673      0.87440190274874      1.82947185891065
  H   0.98953376794511      1.89568164976279      0.71952472498257
  N   1.57611109442980     -0.23687413427244     -0.80621015720708
  H   2.48052752774507     -0.56030266372510     -0.49089542823774
  H   1.69271518932527      0.63035041434074     -1.31499060855627
