16
Coordinates from ORCA-job run
  C   -0.71150129765664      0.04635652235605     -0.35474829414693
  C   0.59210585559672     -0.11699366137304      0.43238433177628
  Cl  -0.45074425602192      1.31891800259068     -1.62965767074437
  H   0.39980654869026     -0.94504133826384      1.11653413395383
  N   -0.99793344117768     -1.28422748818172     -1.07824146790388
  O   -0.90963370230410     -2.26836375016029     -0.35740871760874
  O   -1.33624096165830     -1.27023523312008     -2.25171349149754
  N   -1.78515008189367      0.30439469738454      0.50237315065514
  H   -2.61919259044118      0.60306451916604      0.01446185551621
  H   -1.49508940767304      0.97892772758148      1.20069668317605
  N   0.76100986277918      1.08537162327673      1.23949799401490
  H   1.42158441291688      0.91278212511285      1.98644623196908
  H   1.11695267928636      1.84311016091402      0.66779656354080
  N   1.63703819175842     -0.53244981084440     -0.47376595223943
  H   2.42282518736476     -0.91370353961634      0.03535389535919
  H   1.95616300043395      0.23608944317732     -1.05000924582059
