14

C	0.0	0.0	0.0
C	-0.254147	-0.416279	-1.47907
Br	1.965093	0.0	0.0
H	0.285067	-1.354452	-1.642556
H	0.259159	0.340258	-2.082396
C	-0.519548	1.375687	0.36354
H	-0.185355	1.656982	1.363734
H	-0.148213	2.106824	-0.358955
H	-1.613325	1.319952	0.334468
C	-0.403939	-1.037513	0.943843
N	-0.622635	-1.899757	1.712442
C	-1.573226	-0.603798	-2.096602
N	-2.333993	-0.895152	-2.945576
Cl	-3.557906	0.0	0.0
