14

C	0.0	0.0	0.0
C	-0.303377	-0.185842	-1.520075
Br	1.965214	0.0	0.0
H	-0.136738	0.788945	-1.991713
H	0.464049	-0.855075	-1.915259
C	-0.555116	1.274117	0.598715
H	-1.648699	1.196576	0.541405
H	-0.196705	2.1352	0.029963
H	-0.243935	1.374004	1.640023
C	-0.381671	-1.186441	0.764792
N	-0.592437	-2.156506	1.3946
C	-1.55862	-0.761204	-2.013909
N	-2.296991	-1.359894	-2.705129
Cl	-3.646973	0.0	0.0
