14

C	0.0	0.0	0.0
C	-0.519543	-0.20337	-1.42709
Br	1.961589	0.0	0.0
H	-1.62053	-0.185844	-1.349118
H	-0.185747	0.640717	-2.039627
C	-0.4753	1.337195	0.553797
H	-0.095232	2.142664	-0.080023
H	-1.568987	1.326486	0.551011
H	-0.100724	1.480459	1.568875
C	-0.389601	-1.115233	0.86309
N	-0.626201	-2.032268	1.5592
C	-0.06067	-1.444573	-2.040768
N	0.321664	-2.430571	-2.550901
Cl	-3.595141	0.0	0.0
