14

C	0.0	0.0	0.0
C	-0.254768	-0.560818	-1.431105
Br	1.96529	0.0	0.0
H	0.279056	0.116887	-2.105291
H	0.264055	-1.522708	-1.492555
C	-0.516704	1.407266	0.217926
H	-0.195903	1.783563	1.191803
H	-0.130848	2.061855	-0.568098
H	-1.609629	1.3527	0.175899
C	-0.404915	-0.93886	1.043661
N	-0.604224	-1.729145	1.891449
C	-1.574602	-0.772544	-2.040863
N	-2.334092	-1.076891	-2.887572
Cl	-3.544577	0.0	0.0
