14

C	0.0	0.0	0.0
C	-0.508807	-0.20437	-1.429876
Br	1.962198	0.0	0.0
H	-0.146131	0.625415	-2.045538
H	-1.609137	-0.163012	-1.367187
C	-0.463297	1.345913	0.543226
H	-1.556393	1.339361	0.564786
H	-0.062935	1.507552	1.545448
H	-0.097237	2.139244	-0.113851
C	-0.400442	-1.107934	0.865582
N	-0.641752	-2.024853	1.560256
C	-0.062716	-1.459324	-2.024114
N	0.318472	-2.455368	-2.515117
Cl	-3.588399	0.0	0.0
