14
Coordinates from ORCA-job run
  C   1.12136458708181     -0.45400926468610     -0.01014421501423
  C   -0.27263311648610      0.09378617039867      0.31968407281030
  Cl  1.41242772340233     -0.48535454481737     -1.77966443024902
  H   -0.31433510839409      0.10342695612825      1.41618195357554
  H   1.20337757260352     -1.49119595753701      0.32459551423934
  C   2.16397025094188      0.33503194797025      0.63860943460342
  N   3.00263177616331      0.93336747759043      1.20099314092894
  C   -1.37586011134655     -0.82545460246048     -0.20037470756363
  H   -2.34826352773508     -0.44571372532067      0.12169101726862
  H   -1.26876425481645     -1.84618334448926      0.17861791747103
  H   -1.36990871014446     -0.86111073459976     -1.29172651998255
  N   -0.34488279059959      1.47704872740592     -0.11952658585307
  H   -1.12484973563513      1.94510875707307      0.32338960038436
  H   -0.48327455503541      1.52025213734407     -1.12232619261904
