18

C	-0.15846	-0.069597	-1.51753
C	0.0	0.0	0.0
F	-0.258926	1.183865	-2.121769
H	1.092768	0.0	0.0
N	0.883081	-0.849278	-1.989192
H	0.956447	-0.854372	-2.995347
H	1.754165	-0.599642	-1.475891
N	-1.531289	-0.653348	-1.915121
O	-1.5791	-1.571104	-2.730255
O	-2.502763	-0.112295	-1.392483
C	-0.51514	-1.239154	0.695238
H	-0.153247	-1.250795	1.724093
H	-1.604729	-1.291024	0.708432
H	-0.10373	-2.108966	0.179982
N	-0.517231	1.242922	0.607701
O	-0.033515	2.308978	0.232608
O	-1.366914	1.146384	1.500049
F	2.622272	0.0	0.0
