16

C	0.0	0.0	0.0
C	-0.472762	0.121863	-1.453313
Br	1.974712	0.0	0.0
H	-1.549073	-0.082681	-1.432802
H	0.020362	-0.6642	-2.034182
C	-0.47817	1.120212	0.909474
H	-0.155985	0.937185	1.936507
H	-0.057802	2.071612	0.578546
H	-1.571204	1.14394	0.859866
C	-0.360239	-1.312231	0.539605
N	-0.585507	-2.379378	0.977958
C	-0.219834	1.492349	-2.07185
H	-0.429802	1.457039	-3.143828
H	-0.884332	2.238249	-1.634412
H	0.816448	1.816467	-1.943603
Br	-3.905484	0.0	0.0
