14
Coordinates from ORCA-job run
  C   -0.85590242827977      0.13690742393244     -0.61265564299639
  C   0.35509057899406      0.65483925680282      0.16935650504108
  Br  -2.38232304628291      1.42523547342018     -0.30235497831911
  H   0.45494589736060      1.72564932350721     -0.02896228921382
  H   -0.66831422348915      0.24228120045683     -1.68141979863698
  N   -1.15007570311665     -1.20436979795326     -0.29940174964950
  H   -1.41505350370974     -1.32017325264756      0.67206838334058
  H   -1.87416659521035     -1.58676122739170     -0.89226424724607
  C   1.63255997139626     -0.07642399818873     -0.26089512293076
  H   2.49420532801516      0.31410637597610      0.28321960581562
  H   1.54186271060725     -1.14469627145952     -0.07004442535734
  H   1.80199680393728      0.07588889960680     -1.32933316151832
  C   0.12219590416466      0.48028871476659      1.60490070103036
  N   -0.05702169438671      0.27922787917178      2.74778622064065
