14
Coordinates from ORCA-job run
  C   -1.04021788931850     -0.12246679247792     -0.05398498434619
  C   0.31138275745678      0.57070023759082      0.17162390988015
  Br  -1.31345530070538     -1.56382300696067      1.23182848442986
  H   0.38211794182660      1.33318319837363     -0.61816281063325
  H   -1.84789254262228      0.58343467867612      0.17156035818372
  N   -1.07285700655517     -0.68405649486948     -1.38678656378889
  H   -1.07645917303089      0.07260181048543     -2.06390852350119
  H   -1.91873867929807     -1.22547427954466     -1.51756445581498
  C   1.51928988408007     -0.36105776905281      0.05922856793050
  H   1.55270568328862     -1.05051743673878      0.90217716987705
  H   1.44654122356142     -0.93430456556800     -0.86427825130940
  H   2.44081116439412      0.22374043878271      0.05308851621316
  C   0.30532511479681      1.29000688765290      1.44688699889603
  N   0.31144682212587      1.86703309365072      2.46929158398343
