14
Coordinates from ORCA-job run
  C   -1.07413834841135      0.00297353511185     -0.09224332754977
  C   0.29737869670865      0.62603952985988      0.19569513251527
  Br  -1.43435196180892     -1.45716874600944      1.24737920220454
  H   0.36623889177940      1.47000676063615     -0.50245423685383
  H   -1.85881485154314      0.72691865064104      0.12646720290417
  N   -1.17146031398745     -0.41403614305479     -1.44084290218793
  H   -2.12193398422727     -0.66327922891507     -1.68099083371399
  H   -0.57394251035831     -1.20683364457994     -1.63592231628677
  C   1.48229592544897     -0.31001699702127     -0.05049027361350
  H   1.41421736729869     -1.19601266804813      0.58113325370169
  H   2.41626829560163      0.20607474213529      0.17641737442337
  H   1.51727431271957     -0.61138268423339     -1.09905090310004
  C   0.34042844802815      1.18032989242220      1.54980576755245
  N   0.40054003275136      1.64538700105561      2.62609686000434
