14

C	-0.357127	-0.085467	-1.481984
C	0.0	0.0	0.0
F	-0.204611	1.246553	-1.954611
H	1.09171	0.0	0.0
H	-0.435272	0.891326	0.440784
N	0.480701	-1.002987	-2.123853
H	0.40479	-0.952215	-3.130663
H	1.445466	-0.897206	-1.811309
C	-1.781498	-0.402609	-1.740613
N	-2.91353	-0.62536	-1.958648
N	-0.515814	-1.170727	0.745429
O	0.061021	-2.244286	0.604638
O	-1.510627	-0.983472	1.453399
Br	3.467094	0.0	0.0
