14

C	-0.610845	-0.010573	-1.397641
C	0.0	0.0	0.0
F	-0.289096	-1.273204	-1.897253
H	1.088822	0.0	0.0
H	-0.366026	-0.879856	0.529758
N	-2.030535	0.144329	-1.39766
H	-2.343922	1.010312	-1.805225
H	-2.439411	0.009445	-0.483069
C	-0.023491	0.970086	-2.331978
N	0.38466	1.714715	-3.142223
N	-0.473631	1.18306	0.74945
O	-0.932693	0.999912	1.879344
O	-0.386986	2.276077	0.192189
Br	3.426397	0.0	0.0
