14

C	-0.401992	0.182342	-1.462125
C	0.0	0.0	0.0
F	-1.725248	0.647237	-1.533262
H	1.088957	0.0	0.0
H	-0.427608	-0.899336	0.432177
N	0.459328	1.093233	-2.116231
H	1.389705	1.102576	-1.703701
H	0.513249	0.933555	-3.112206
C	-0.448734	-1.15684	-2.110808
N	-0.466419	-2.195066	-2.662048
N	-0.487887	1.139747	0.812997
O	-1.294559	0.880116	1.708291
O	-0.053638	2.256877	0.550306
Br	3.430142	0.0	0.0
