14

C	-0.403928	0.027901	-1.460931
C	0.0	0.0	0.0
F	-1.760738	0.3544	-1.568407
H	1.089553	0.0	0.0
H	-0.377801	0.90787	0.463798
N	0.365273	1.073102	-2.059615
H	1.339179	1.002811	-1.763321
H	0.319938	1.018359	-3.069101
C	-0.282079	-1.261584	-2.188346
N	-0.224946	-2.177122	-2.922493
N	-0.536131	-1.140533	0.766087
O	-0.319271	-2.271735	0.33705
O	-1.143238	-0.881898	1.806948
Br	3.412204	0.0	0.0
