14

C	0.0	0.0	0.0
C	-0.528746	0.130203	-1.405489
Cl	1.786474	0.0	0.0
H	-0.246142	1.111123	-1.793126
H	-1.619964	0.055192	-1.358148
H	-0.124787	-0.648058	-2.049775
C	-0.528202	1.056016	0.936787
H	-0.2399	2.037089	0.552581
H	-0.127803	0.924305	1.940332
H	-1.620255	0.973263	0.950542
N	-0.351413	-1.390014	0.549458
O	-0.443709	-2.304207	-0.261528
O	-0.445595	-1.504504	1.765859
Br	-3.979676	0.0	0.0
