12
Coordinates from ORCA-job run
  C   0.69086704174590      0.51444235992426      0.21989527165484
  C   -0.46508929228314     -0.41414859799575      0.67096533181636
  Cl  1.58506324250060      1.08222159934140      1.66653433977291
  H   -1.09041128713481      0.16631033666776      1.35527335596860
  H   -0.01196905841280     -1.23164966778784      1.23908244040479
  C   1.60368738785658     -0.23010053959964     -0.64757330222713
  N   2.32213379640171     -0.87688505895980     -1.31491913844395
  C   0.14181128510156      1.66954736250849     -0.49015479277417
  N   -0.34572926538274      2.59345395181338     -1.02723032613748
  N   -1.17362949542788     -0.86021791404816     -0.50250298119843
  H   -1.12048635864955     -1.85650971750647     -0.64406077479670
  H   -2.13424799631543     -0.55646411435763     -0.52530942403964
