12
Coordinates from ORCA-job run
  C   0.63962534758646      0.45461007861353      0.09886893086522
  C   -0.36947860922173     -0.71141802315098      0.20069283384923
  Cl  0.41196871352276      1.54740076470508      1.50422734078517
  H   -0.15628843866799     -1.38345517477907     -0.63550731565001
  H   -0.14136352495215     -1.24420324233182      1.13234949183885
  C   2.00658172697248     -0.06944435727254      0.13092443255754
  N   3.07611637206529     -0.55485653285331      0.15974896875208
  C   0.41772037857606      1.21084034986934     -1.13382579514982
  N   0.25900685710572      1.78221199712884     -2.14758258105305
  N   -1.71345422100982     -0.19795444338105      0.09259717719805
  H   -2.11265504538465      0.00542180833681      0.99732258826599
  H   -2.31677955659242     -0.84015322488482     -0.39881607225927
