12
Coordinates from ORCA-job run
  C   0.45785204901078      0.64359698888285      0.03857545423954
  C   -0.68901596029621     -0.33040241133227     -0.31329639432331
  Cl  -0.06616588496037      1.69687852812140      1.39376534243634
  H   -1.54179168376699      0.28643070249756     -0.62308545411772
  H   -0.35471629013908     -0.90834335416238     -1.17961369383977
  C   1.64896435165596     -0.10162602273527      0.44736753092393
  N   2.61462263639587     -0.70643707990488      0.73203650177712
  C   0.76395353419758      1.48763149494510     -1.11827316782952
  N   0.95684032289856      2.13014138338229     -2.08291764421689
  N   -0.93363733698843     -1.21009195847776      0.80512341340003
  H   -1.66201907072928     -0.85334683222635      1.40699803667426
  H   -1.19388666727838     -2.13443143899029      0.49432007487598
