12
Coordinates from ORCA-job run
  C   0.61558714949183      0.46706990987116      0.16592939354035
  C   -0.34489699644895     -0.74289606575996      0.11906109306325
  Cl  0.29462045700661      1.40915566232328      1.65941600501445
  H   -0.12605987891475     -1.35238937519717      1.00481350278097
  H   -0.07457088806817     -1.32322056926866     -0.76766735932305
  C   2.00277670315280     -0.00062676962165      0.19782091781872
  N   3.09307233659589     -0.43804853716302      0.21884246396680
  C   0.40148108182411      1.32944770906541     -0.99657352708699
  N   0.25097034173251      1.99121239297007     -1.95510337896680
  N   -1.70512262083124     -0.27471956975815      0.00946001225659
  H   -2.14380277409112     -0.17806990959776      0.91361612230276
  H   -2.26305491144952     -0.88791487786355     -0.56561524536704
