12
Coordinates from ORCA-job run
  C   0.55199180202459      0.56511960803649      0.01262601114581
  C   -0.77798242828446     -0.19062086756813     -0.20858985890076
  Cl  0.44142921312378      1.50616437190385      1.53653618312387
  H   -0.69433181848751     -0.69586211211095     -1.17506983316042
  H   -1.56270877437452      0.57208577553895     -0.28980931258991
  C   1.66240475737008     -0.38202498542889      0.11680652768080
  N   2.55210001445807     -1.14772642240818      0.15603100361298
  C   0.78501264959514      1.49446651393283     -1.09464572843211
  N   0.91586067094292      2.21845657524957     -2.01078694870018
  N   -0.96273223583513     -1.16010851713468      0.84380507365064
  H   -1.50012989529145     -0.78428821209448      1.61140506167855
  H   -1.41191395524151     -1.99666172791643      0.50269182089072
