12
Coordinates from ORCA-job run
  C   0.61896316045182      0.46993848538517      0.14285646843162
  C   -0.34690934571737     -0.73664194941843      0.14832167799157
  Cl  0.31622698594053      1.46568566866950      1.60485834487232
  H   -0.08755169119094     -1.34978239501641     -0.71946229619587
  H   -0.12209707640477     -1.31494178836362      1.05334192408082
  C   2.00440418832691     -0.00270728793749      0.17818446044863
  N   3.09290915161792     -0.44430252289012      0.20500088077783
  C   0.39745638704332      1.29136239654815     -1.04755242780165
  N   0.24052512030055      1.91926898747401     -2.02758925138447
  N   -1.70623133623563     -0.26654074821173      0.03458127583364
  H   -2.27244660411538     -0.89841076091142     -0.51139142710641
  H   -2.13524894001699     -0.13392808532760      0.93885037005198
