12
Coordinates from ORCA-job run
  C   0.64416392735603      0.26655379506304     -0.36638161158256
  C   -0.35631825095250     -0.64983141249279      0.37320438299100
  Cl  0.52341742383863     -0.04223209017466     -2.13028595920434
  H   -0.06210416409642     -1.68297606519914      0.14937036164077
  H   -0.20660655508600     -0.47843271482555      1.44296313563942
  C   0.33261682129313      1.67265824027235     -0.10746380396545
  N   0.11383966350493      2.80286647200714      0.12493920901371
  C   2.00939402064236     -0.03492669757078      0.06843137485038
  N   3.07956068062447     -0.31872412039778      0.46189265575473
  N   -1.70344179436900     -0.29293062194972     -0.00107566850231
  H   -2.03158215103539     -0.83680901192815     -0.78592988928907
  H   -2.34393962172024     -0.40621577280396      0.77033581265373
