12
Coordinates from ORCA-job run
  C   0.62610839142452      0.47136303672143      0.09832885829681
  C   -0.34907309541855     -0.72302192213781      0.20250742379134
  Cl  0.37194348560950      1.55631790116323      1.50507548994248
  H   -0.10402659991937     -1.24901188679035      1.13373503613568
  H   -0.11946757835413     -1.38902176334665     -0.63407637155811
  C   2.00814632824393     -0.01182504808333      0.12389053610645
  N   3.09374680320020     -0.46107849929977      0.13705862575302
  C   0.37878158399612      1.22181213177734     -1.13320568319214
  N   0.20196815830348      1.79264793144160     -2.14429217192701
  N   -1.70717351829163     -0.24680567286732      0.09869342765987
  H   -2.29394224558624     -0.90490266772314     -0.39186171190573
  H   -2.10901171320784     -0.05647354085523      1.00514654089733
