12
Coordinates from ORCA-job run
  C   0.70314238900976      0.48449801720442      0.24766870580407
  C   -0.50125252398199     -0.40351817604683      0.65097213986407
  Cl  1.57540637543804      0.99573564574399      1.72813076394893
  H   -0.09813144321554     -1.24448439936707      1.22257614191476
  H   -1.12413958296575      0.19334768770295      1.32303881888538
  C   1.61128404924464     -0.28281195426891     -0.60487928566471
  N   2.32334927614208     -0.94724533398436     -1.26160948929663
  C   0.22042619017349      1.67025022804565     -0.46027729020412
  N   -0.21608830281669      2.61952011012026     -0.99699564822519
  N   -1.19110964044847     -0.80738461651602     -0.54837754755041
  H   -1.16116246207245     -1.80189587856574     -0.70807073587311
  H   -2.14172432450712     -0.47601133006834     -0.59117657360302
