12
Coordinates from ORCA-job run
  C   0.64168611715380      0.44463208336481      0.12322675273934
  C   -0.37450631376203     -0.71933880026650      0.16510754901316
  Cl  0.41412787188014      1.46937383852959      1.57912111770095
  H   -0.15372672052696     -1.29605360364590      1.07205526550233
  H   -0.16141281020772     -1.35287092128380     -0.70054109462227
  C   2.00622465809095     -0.08624656586701      0.13399953144258
  N   3.07537697082315     -0.57342799014566      0.14206192113323
  C   0.42832398409734      1.26072020309366     -1.07230326984562
  N   0.27495230218062      1.88229773155844     -2.05691176093044
  N   -1.71452547053837     -0.19251728711737      0.07592645578057
  H   -2.11652811274064     -0.03053406216117      0.98778214759925
  H   -2.31999247645029     -0.80603462605909     -0.44852461551308
