12
Coordinates from ORCA-job run
  C   0.62314284234108      0.46394055935437      0.14537309791705
  C   -0.35186609312420     -0.73528185332034      0.13904891392954
  Cl  0.33678668444470      1.44074247451709      1.62308777133937
  H   -0.10416899363886     -1.33622539437544     -0.74054437900815
  H   -0.12471631720240     -1.33003580491063      1.03262920151264
  C   2.00497442214238     -0.02011553909782      0.16571201255631
  N   3.08942522063004     -0.47220153651725      0.18205699114323
  C   0.40115537260219      1.30350498780523     -1.03228246727919
  N   0.24511011082880      1.94454981998507     -2.00384771463877
  N   -1.70851263604609     -0.25299603140763      0.04419236927736
  H   -2.28316617287983     -0.87045463012747     -0.50940215288997
  H   -2.13016444009781     -0.13542705190517      0.95397635614058
