12
Coordinates from ORCA-job run
  C   0.61835490252532      0.23784125864372     -0.43023648021629
  C   -0.34236152132778     -0.62795840810673      0.41588566291540
  Cl  0.33018561673008     -0.10039392454280     -2.16903955584324
  H   -0.10372556031703     -1.67479183075649      0.18937205142508
  H   -0.09109258240487     -0.44167801759705      1.46388699108054
  C   0.37961529781917      1.65882459913024     -0.17580177197676
  N   0.21204344415206      2.79607820743267      0.06502209455159
  C   2.00571570199102     -0.10474196385895     -0.11087797509637
  N   3.09410908623223     -0.42536720442691      0.19423016881354
  N   -1.70494114077738     -0.23244283914832      0.15446796206989
  H   -2.27582706719860     -0.29974687238382      0.98374960659658
  H   -2.12207617742422     -0.78462300438555     -0.58065875431998
