12
Coordinates from ORCA-job run
  C   0.64677138096843      0.31450446586945     -0.32599740384983
  C   -0.36256552849875     -0.69432951513612      0.26676476117177
  Cl  0.50406478696055      0.29820787285980     -2.11528424798145
  H   -0.20273394727598     -0.69963303232959      1.34877672854969
  H   -0.08607894524143     -1.68207553421889     -0.12297015274863
  C   0.36134637475002      1.66396271623934      0.16204367080422
  N   0.14720277728774      2.73525587397601      0.59309378771265
  C   2.01127649365585     -0.07468444567233      0.03568840238197
  N   3.08137108277483     -0.43761731238513      0.35737304505223
  N   -1.70672580505859     -0.26412470327397     -0.03426573250785
  H   -2.05352902054605     -0.68264868219877     -0.88507544168943
  H   -2.34139964977661     -0.47581770372981      0.72085258310465
