12
Coordinates from ORCA-job run
  C   0.64032463135425      0.45028924914926      0.10885534022535
  C   -0.37097264851605     -0.71598373117898      0.18662225773012
  Cl  0.41508864407568      1.51317196574820      1.53748452405992
  H   -0.15779365055605     -1.37280379963026     -0.66147249867990
  H   -0.14521636222346     -1.26638290753834      1.10851583204294
  C   2.00680097996752     -0.07543749379554      0.12788960781126
  N   3.07722529791071     -0.55991321123496      0.14169639656721
  C   0.41871824167558      1.23401682416979     -1.10671995724565
  N   0.25976300910435      1.83321822141028     -2.10421334331970
  N   -1.71369812037376     -0.19754532969596      0.08800326463485
  H   -2.31715038180597     -0.82486016769201     -0.42212674915552
  H   -2.11508964061280     -0.01676961971147      0.99646532532914
