12
Coordinates from ORCA-job run
  C   0.69001328673469      0.47458793138168      0.29730860737440
  C   -0.51172004469294     -0.45301932439973      0.60831369391380
  Cl  1.51397155484184      0.89962033363628      1.83179770372213
  H   -0.11126074305100     -1.32671286759105      1.13023503969814
  H   -1.15871485109717      0.08850908518206      1.30428271057378
  C   1.63240864921795     -0.22356550575977     -0.57712008354658
  N   2.37255044482258     -0.83582583257134     -1.25329779222951
  C   0.20957406504727      1.69801690887645     -0.34504418755746
  N   -0.22564319086008      2.67568881571768     -0.82923212771718
  N   -1.16410773457017     -0.78459331405949     -0.63375071193893
  H   -1.13732814391280     -1.76949021532712     -0.84552251996253
  H   -2.11074329248016     -0.44321601508565     -0.68797033233006
