12
Coordinates from ORCA-job run
  C   0.63475928423064      0.45099267516555      0.13346249106421
  C   -0.36197660575730     -0.73004420405874      0.14385659941519
  Cl  0.40277761523459      1.42336810060100      1.62398871520325
  H   -0.14601901935228     -1.33007924813846     -0.74468163211656
  H   -0.12467240499129     -1.33409970194767      1.02854592443616
  C   2.00766934113158     -0.05791554492066      0.11642587214906
  N   3.08406271812993     -0.52873816959546      0.09824809962167
  C   0.39964930633052      1.30266406962614     -1.03289024713621
  N   0.23303270361001      1.95392111598491     -1.99588474002424
  N   -1.71126353929811     -0.22273664988947      0.08343194742996
  H   -2.31063721388087     -0.82727069933477     -0.45804153937764
  H   -2.10838218538745     -0.10006174349236      1.00353850933515
