12
Coordinates from ORCA-job run
  C   0.68217379296813      0.34499415834561     -0.26501751497532
  C   -0.35155919244151     -0.72694818356238      0.17125425633088
  Cl  0.76010170922324      0.39185959928691     -2.05258191147889
  H   -0.28287464257055     -0.80296843768628      1.26142620045599
  H   -0.01044808753615     -1.67545339379715     -0.25460499471700
  C   0.26983604249710      1.65753938955626      0.23275370154518
  N   -0.08033776525273      2.68717150604611      0.67644601533482
  C   2.00587910726490      0.00074624344619      0.25741465209288
  N   3.03907699299690     -0.33094344349385      0.70806315828371
  N   -1.66773892583287     -0.34209886708639     -0.26732288254501
  H   -2.31770087629374     -0.24226755724857      0.49591065238350
  H   -2.04640815502274     -0.96263101380648     -0.96474133271074
