12
Coordinates from ORCA-job run
  C   0.60835940700532      0.23554281232701     -0.36243231398331
  C   -0.33267037499439     -0.78656699645863      0.35687137769575
  Cl  0.37410996393016      0.10436874617075     -2.13611485965750
  H   -0.06298631837569     -1.77383727551564     -0.02647874509445
  H   -0.07442167382926     -0.75192329099460      1.41938893161987
  C   0.26208142971298      1.59241403623058      0.05891376528812
  N   -0.07788274761284      2.64995184117645      0.44227138138880
  C   2.00363641389179     -0.05905859759078     -0.04350774619631
  N   3.10253862791747     -0.34693828793615      0.25764948810251
  N   -1.73838410677279     -0.56639517252039      0.19809187290469
  H   -2.02432656764155     -0.60511055443062     -0.77010806364857
  H   -2.03905405323119      0.30855273954201      0.60645491158037
