12
Coordinates from ORCA-job run
  C   0.61599809314815      0.40443159298922      0.12072747298824
  C   -0.35738171871423     -0.81252744227844      0.26073523319476
  Cl  0.37535913857725      1.51322410252816      1.51031694047382
  H   -0.09755154987329     -1.51196345572086     -0.53936372036575
  H   -0.11980760037485     -1.28611282200061      1.21664269531083
  C   2.00104142834874     -0.06118583235275      0.11819495567163
  N   3.09035671807041     -0.50240324065015      0.11286914007778
  C   0.31466113120335      1.12630299592431     -1.11464159098233
  N   0.00214599136572      1.65507905596445     -2.11646234785776
  N   -1.75528086193507     -0.51020900252108      0.19815446461116
  H   -2.04316537128241      0.12074125357178      0.93293575277663
  H   -2.02837539853376     -0.13437720545403     -0.70010899589902
