12
Coordinates from ORCA-job run
  C   0.58842487474491      0.43898567375609      0.13450280375582
  C   -0.31819144278415     -0.83062927466908      0.25339222215306
  Cl  0.25092717655380      1.53449968954735      1.51451239171955
  H   0.00031592945853     -1.51476804759298     -0.53868155038871
  H   -0.07772514044316     -1.28931182109759      1.21581327152463
  C   1.99672193005913      0.05091175922258      0.16898550316336
  N   3.10666479604945     -0.33399474241331      0.20245737725906
  C   0.27932763908040      1.14143939443941     -1.11005461565953
  N   -0.02931355038400      1.64957473510584     -2.12373614269087
  N   -1.72897209824488     -0.60772782055853      0.15535320833134
  H   -1.99976286756178     -0.25015361797482     -0.75106408461658
  H   -2.06941724652825      0.00917407223504      0.87951961544887
