12
Coordinates from ORCA-job run
  C   0.64077987360062      0.28048814555684     -0.26147393642442
  C   -0.34365034363315     -0.81934846948454      0.25696685051518
  Cl  0.64663134553334      0.26705896750411     -2.05530028908694
  H   -0.22893679862265     -0.85148747900796      1.34448874518105
  H   0.01451965378954     -1.76801965144504     -0.15072204040151
  C   0.18677013252182      1.59232483406771      0.19808969024613
  N   -0.24789120252220      2.60657351793671      0.60214250832102
  C   1.99311692780953      0.00802888575033      0.22044736729397
  N   3.05393568319138     -0.26975549481161      0.64320214293730
  N   -1.72438885093002     -0.63402790097964     -0.07377914552115
  H   -2.11173242507009      0.20001355924317      0.34717903357791
  H   -1.87815399566812     -0.61284891433007     -1.07224092663854
