12
Coordinates from ORCA-job run
  C   0.60236403968531      0.41196351038178      0.15807135130971
  C   -0.33899801240338     -0.83685794874369      0.20061116820174
  Cl  0.31143311536326      1.41819572556641      1.61445415399972
  H   -0.10295147247441     -1.36704968509637      1.12670724619236
  H   -0.04814844242157     -1.47403953597341     -0.63980793460560
  C   1.99964549020194     -0.01566422114397      0.14717068140527
  N   3.09955193478048     -0.42970259981485      0.13904106103093
  C   0.29974010226007      1.20667559025871     -1.03150738695475
  N   -0.00756593870850      1.78923047178131     -2.00482350853395
  N   -1.74389472165927     -0.56810306693626      0.13403430631511
  H   -2.05870164134526      0.01016077291357      0.90087972345299
  H   -2.01247445327868     -0.14380901319322     -0.74383086181354
