12
Coordinates from ORCA-job run
  C   0.68719497160845      0.50259152013620      0.25594221937715
  C   -0.50232850323780     -0.41109995657729      0.64539301797506
  Cl  1.51945342454785      1.04815593966802      1.74708108424690
  H   -0.08906030383340     -1.23849280682146      1.22917416213910
  H   -1.15054527003112      0.17505237441739      1.30294904468617
  C   1.62931149291352     -0.24909143443278     -0.57328987375914
  N   2.37005456298691     -0.90085031739325     -1.21070852007244
  C   0.18870008236469      1.66991212389046     -0.47147206886121
  N   -0.26091698959918      2.60303232670776     -1.02549495658538
  N   -1.16032419702213     -0.84134629645550     -0.56293082014696
  H   -2.11270327267014     -0.51957096154991     -0.63255917428203
  H   -1.11883599802765     -1.83829251158965     -0.70408411471722
