12
Coordinates from ORCA-job run
  C   0.61029349989590      0.40898855578804      0.13276456027747
  C   -0.34148114322691     -0.82890298786271      0.22801606222990
  Cl  0.36291824653914      1.45304536660946      1.57078924556584
  H   -0.08884579927225     -1.33846961939213      1.16144570199570
  H   -0.07639750540390     -1.48964350955977     -0.60283872823359
  C   2.00297297547515     -0.03200314991326      0.10097764952791
  N   3.09947223489309     -0.45434793344897      0.08078088178399
  C   0.28636649995484      1.17810519480204     -1.06778832791508
  N   -0.04397233403332      1.74006758752945     -2.04550857078013
  N   -1.74491897200041     -0.54770499263991      0.18770547214582
  H   -2.03015926791614     -0.14090897574176     -0.69322952102905
  H   -2.03624843490520      0.05077446382952      0.94788557443121
