19

C	-0.447869	-0.107644	-1.458396
C	0.0	0.0	0.0
Br	0.527937	1.117841	-2.602719
H	1.094567	0.0	0.0
N	-0.314056	-1.409231	-1.991681
H	-0.527889	-1.424597	-2.980633
H	-0.922315	-2.048324	-1.497443
N	-1.961456	0.350009	-1.502137
O	-2.262096	1.521926	-1.688128
O	-2.765753	-0.551151	-1.244009
C	-0.43775	-1.207472	0.829546
H	0.021321	-2.125348	0.458824
H	-1.525846	-1.322533	0.865804
H	-0.072649	-1.064451	1.84891
C	-0.449668	1.300801	0.660455
H	0.082862	1.402696	1.608453
H	-1.525817	1.312092	0.866182
H	-0.20457	2.169937	0.048719
Cl	3.469907	0.0	0.0
