19

C	-0.255722	0.077948	-1.505803
C	0.0	0.0	0.0
Br	-2.114838	0.637016	-1.976297
H	1.099292	0.0	0.0
N	0.651791	0.962831	-2.08904
H	1.58665	0.81371	-1.700883
H	0.669041	0.891158	-3.096582
N	-0.17957	-1.354174	-2.156066
O	0.764382	-1.549474	-2.917129
O	-1.035733	-2.1786	-1.860847
C	-0.53986	-1.211797	0.738011
H	-0.30684	-1.088984	1.799304
H	-0.077229	-2.140886	0.406969
H	-1.623845	-1.303118	0.626166
C	-0.43151	1.297525	0.681286
H	-0.140224	2.166373	0.090823
H	0.070258	1.3602	1.650435
H	-1.513086	1.322541	0.842375
Cl	3.392912	0.0	0.0
