19

C	-0.254889	0.067584	-1.505232
C	0.0	0.0	0.0
Br	-2.119905	0.602604	-1.977288
H	1.099275	0.0	0.0
N	0.642711	0.960457	-2.09267
H	0.660833	0.883045	-3.100287
H	1.579069	0.817231	-1.705724
N	-0.162145	-1.366262	-2.151616
O	0.773047	-1.545508	-2.926413
O	-1.001008	-2.205171	-1.84588
C	-0.539404	-1.206337	0.748276
H	-1.622333	-1.302527	0.631693
H	-0.312759	-1.070921	1.809512
H	-0.07179	-2.137277	0.429314
C	-0.434605	1.301877	0.67133
H	-0.145633	2.167355	0.074685
H	-1.516526	1.324758	0.832061
H	0.066152	1.372915	1.64037
Cl	3.393763	0.0	0.0
