19

C	-0.527522	0.005026	-1.426599
C	0.0	0.0	0.0
Br	0.427923	-1.409766	-2.510667
H	1.091844	0.0	0.0
N	-1.93126	-0.110136	-1.511874
H	-2.233152	-0.022469	-2.474399
H	-2.225315	-1.001023	-1.133791
N	-0.14964	1.27901	-2.190664
O	-0.886812	1.592835	-3.125428
O	0.861328	1.869532	-1.847006
C	-0.455331	-1.263963	0.730819
H	-1.532742	-1.254882	0.938071
H	0.066467	-1.310805	1.689555
H	-0.197695	-2.168942	0.177404
C	-0.489989	1.237022	0.757835
H	-1.581668	1.303556	0.753121
H	-0.144149	1.165183	1.792357
H	-0.068645	2.152074	0.342437
Cl	3.515432	0.0	0.0
