19

C	-0.553717	-0.038294	-1.431822
C	0.0	0.0	0.0
Br	0.387997	-1.377398	-2.49027
H	1.094244	0.0	0.0
N	-1.961433	-0.278547	-1.60224
H	-2.176114	-1.193503	-1.230898
H	-2.485321	0.428217	-1.09812
N	-0.275501	1.331921	-2.055514
O	0.864779	1.588293	-2.406686
O	-1.226975	2.11531	-2.058459
C	-0.444943	-1.238972	0.774462
H	-1.516255	-1.22079	1.005555
H	0.105368	-1.269088	1.717142
H	-0.207795	-2.158179	0.234283
C	-0.441228	1.267403	0.736572
H	-0.078587	1.20501	1.76508
H	-0.00142	2.163932	0.297361
H	-1.530606	1.387383	0.765593
Cl	3.477204	0.0	0.0
