19

C	-0.232084	-0.022061	-1.510728
C	0.0	0.0	0.0
Br	-0.338714	1.903083	-2.296212
H	1.099269	0.0	0.0
N	0.72885	-0.795023	-2.122829
H	0.67292	-0.830204	-3.12932
H	1.665989	-0.606445	-1.760231
N	-1.618561	-0.518003	-1.929513
O	-1.696421	-1.165309	-2.969663
O	-2.563594	-0.224896	-1.205042
C	-0.443477	-1.337665	0.603121
H	0.068393	-1.467829	1.559723
H	-0.159388	-2.173307	-0.039453
H	-1.522826	-1.363763	0.775343
C	-0.534118	1.1763	0.796274
H	-0.050456	2.107167	0.503678
H	-1.614964	1.28076	0.68149
H	-0.308692	1.002585	1.852526
Cl	3.421931	0.0	0.0
