17

C	0.0	0.0	0.0
C	-0.260657	-0.011695	-1.530203
Cl	1.783696	0.0	0.0
H	0.219942	-0.941656	-1.856446
H	0.349797	0.796976	-1.938007
N	-0.401187	1.334724	0.610631
O	-0.49874	1.380398	1.831278
O	-0.522771	2.294354	-0.143179
C	-0.625474	-1.119554	0.771069
H	-1.721771	-0.912055	0.670996
H	-0.351139	-2.066624	0.298655
H	-0.293226	-1.114258	1.809587
C	-1.648639	0.074123	-2.143013
H	-1.502793	0.030162	-3.232811
H	-2.14083	1.0004	-1.865588
H	-2.318424	-0.698077	-1.781708
F	-3.03276	0.0	0.0
