17

C	0.0	0.0	0.0
C	-0.562954	0.023599	-1.412151
Cl	1.771646	0.0	0.0
H	-1.655576	0.065786	-1.206488
H	-0.330916	-0.973031	-1.807382
N	-0.381404	1.265122	0.774905
O	-0.482543	1.173716	1.992964
O	-0.474402	2.31373	0.145968
C	-0.532132	-1.194396	0.756704
H	-0.158375	-1.210361	1.779268
H	-0.21357	-2.101078	0.236162
H	-1.628684	-1.057972	0.703757
C	-0.076181	1.073918	-2.404167
H	-0.369553	0.765576	-3.412963
H	-0.520199	2.046358	-2.203992
H	1.012493	1.185601	-2.396023
F	-2.916984	0.0	0.0
