17

C	0.0	0.0	0.0
C	-0.559989	-0.001633	-1.414
Cl	1.771479	0.0	0.0
H	-0.416289	-1.030989	-1.764836
H	-1.645644	0.125888	-1.21824
N	-0.387867	1.28324	0.745337
O	-0.648812	2.282735	0.084559
O	-0.346903	1.248789	1.972211
C	-0.537963	-1.171402	0.788195
H	-0.205217	-2.094542	0.3067
H	-0.179559	-1.145801	1.816059
H	-1.635089	-1.039827	0.713683
C	0.022902	0.954187	-2.448057
H	-0.457572	0.759947	-3.412583
H	1.100331	0.816191	-2.582011
H	-0.163798	1.992441	-2.181415
F	-2.917561	0.0	0.0
