16

C	-0.436176	-0.059123	-1.452203
C	0.0	0.0	0.0
F	-1.846287	-0.112717	-1.52378
H	1.09464	0.0	0.0
H	-0.34706	0.946476	0.425701
C	-0.065689	1.18802	-2.152979
N	0.184858	2.1876	-2.714539
C	0.113378	-1.258544	-2.199274
H	-0.298826	-2.168199	-1.760888
H	-0.175633	-1.212164	-3.25056
H	1.20047	-1.273848	-2.108448
C	-0.514035	-1.176093	0.8238
H	-0.030997	-2.109532	0.52963
H	-1.596883	-1.293167	0.736217
H	-0.26766	-1.010606	1.874806
Cl	3.525794	0.0	0.0
