16

C	-0.524934	0.002131	-1.42515
C	0.0	0.0	0.0
F	0.022136	1.093	-2.101672
H	1.093966	0.0	0.0
H	-0.321962	0.951684	0.439173
C	-0.131329	-1.222821	-2.155406
N	0.137643	-2.232369	-2.688919
C	-2.038156	0.152306	-1.518056
H	-2.334989	1.047421	-0.967484
H	-2.550055	-0.714896	-1.098875
H	-2.331491	0.265916	-2.562974
C	-0.500547	-1.173711	0.83633
H	-1.583179	-1.159789	0.99306
H	-0.016785	-1.143575	1.813946
H	-0.227651	-2.126495	0.37569
Cl	3.536161	0.0	0.0
