16

C	-0.402144	-0.145818	-1.462205
C	0.0	0.0	0.0
F	-1.772252	-0.470571	-1.563918
H	1.094664	0.0	0.0
H	-0.356374	0.960009	0.383852
C	-0.257675	1.1467	-2.163281
N	-0.177613	2.178755	-2.717589
C	0.395491	-1.218014	-2.180498
H	0.107412	-1.265478	-3.232819
H	0.195045	-2.184994	-1.715642
H	1.461556	-0.996574	-2.083129
C	-0.510906	-1.141487	0.872972
H	-0.162128	-0.987757	1.89651
H	-1.601799	-1.194726	0.878974
H	-0.116222	-2.104774	0.544062
Cl	3.501925	0.0	0.0
