14
Coordinates from ORCA-job run
  C   0.52252587905775     -0.72764832687493     -0.46273977720615
  C   -0.72807500881905      0.13245533032219     -0.66838061518391
  H   0.18725258353994     -1.76145180223516     -0.34700055066913
  H   -1.34849184060045     -0.27459810132863     -1.47055736577214
  H   1.10580400627762     -0.67244280345352     -1.38664301304661
  C   1.35943824003345     -0.28436565207556      0.73106123869552
  H   2.26416305821357     -0.89138752953008      0.79599528776009
  H   0.81466283526027     -0.40215735415336      1.66978121552895
  H   1.66061486464073      0.76149270460458      0.64115073040101
  C   -0.40880854133486      1.52953318041619     -0.94359872643189
  N   -0.11624335576342      2.63163109514346     -1.22287731469810
  N   -1.57739815978248      0.02976367833626      0.57986799133689
  O   -2.13177184672314     -1.05302906519768      0.73496144981879
  O   -1.60367271399992      0.98320464602622      1.34897944946670
