14
Coordinates from ORCA-job run
  C   0.37089768862233     -0.65708814469195      0.31976121998125
  C   -0.61777542801683      0.24987217394825     -0.41599102234393
  H   0.20659426686971     -1.67597518577719     -0.04405685146642
  H   -0.46785063065016      0.19862017325029     -1.49639328717971
  H   0.12256652744914     -0.63426977573034      1.38439932779216
  C   1.81323529838625     -0.22416604001598      0.08531661899927
  H   1.99662072490709      0.77715950954442      0.47995421125737
  H   2.49737071692755     -0.91191492380543      0.58541835507146
  H   2.05824018396625     -0.22385019885429     -0.97969888982020
  C   -0.53891384061247      1.63510092190317      0.03684506984802
  N   -0.41962735861955      2.74850441098457      0.38966103127694
  N   -2.01222565885968     -0.27937284216003     -0.17835508206532
  O   -2.54655956288978      0.01145463747376      0.88506639071124
  O   -2.46157292747985     -1.01407471606923     -1.05192709206212
