14
Coordinates from ORCA-job run
  C   0.86382072868186      0.27383086463134     -0.03874174604843
  C   -0.56446447793414      0.35414511551324     -0.57894673966453
  H   0.95346993137541      0.98679858789835      0.78457793949387
  H   -0.71184626136907     -0.31825793544891     -1.42642344829825
  H   1.52917037747305      0.61125388453147     -0.83884985460706
  C   1.22879312535850     -1.13534426321790      0.41341947722108
  H   1.07225554681370     -1.86513896152129     -0.38460034450472
  H   2.27979249788379     -1.17293646318496      0.70486268714524
  H   0.63647583986302     -1.44518612143324      1.27662326151031
  C   -0.93960010229532      1.71732385779975     -0.94308408693566
  N   -1.20273086394513      2.81749615471440     -1.25727047217764
  N   -1.50376618216730     -0.14392635288977      0.49472136352312
  O   -1.60043679470293      0.54870721303547      1.50098149050236
  O   -2.04193336503545     -1.22776558042793      0.29273047284033
