14
Coordinates from ORCA-job run
  C   0.35480944053295     -0.68851193868383      0.26678661798510
  C   -0.60681448106269      0.29854779117922     -0.39787289386080
  H   0.09364473682371     -0.75218351604454      1.32650306095230
  H   -0.44039691502445      0.34473354113949     -1.47617506308727
  H   0.17543872277819     -1.66900071294146     -0.18487321670974
  C   1.80813135611991     -0.26692952898583      0.08496565425692
  H   2.06749652469818     -0.18710787895620     -0.97356531369096
  H   2.00512769606728      0.69596680793957      0.56046851035338
  H   2.47261667519925     -1.00560159464135      0.53662431414587
  C   -0.51306473847362      1.63489810261996      0.18161705411621
  N   -0.38374294975858      2.71165695761303      0.63124700765163
  N   -2.01343005142889     -0.22495194128262     -0.22993568785265
  O   -2.54484101855351     -0.05329507100853      0.86069562841468
  O   -2.47597499791771     -0.83822101794692     -1.18648567267467
