14
Coordinates from ORCA-job run
  C   -0.72578789637762     -0.33665637343478      0.22359334988757
  C   0.47611961422187      0.64164364017077      0.18771757622650
  Br  -1.32407302482084     -0.44296327562122      2.13734652109899
  H   0.12035860879218      1.58423393550478      0.61831994226789
  N   -1.74018013528824      0.09512677475374     -0.66297550968762
  H   -2.11387465688853      0.99617110270220     -0.38853240574825
  H   -2.49554988517479     -0.57448243711278     -0.73703786766886
  C   -0.27025414974968     -1.67888202648866     -0.13528710874601
  N   0.13323797105281     -2.73991736603157     -0.43997184638608
  C   0.84267518886122      0.88516089968136     -1.22263267205424
  N   1.23541425859426      1.08122190842037     -2.31280121461571
  N   1.56798275094047      0.14942658994707      0.99722701602890
  H   2.09046594651471     -0.56263965507949      0.49985571033601
  H   2.20146540932217      0.90155628258821      1.23417850906092
