14
Coordinates from ORCA-job run
  C   -0.68972538122200     -0.24271542440148      0.39052489579819
  C   0.67519198520029      0.47644775112504      0.32983513670756
  Br  -1.90287819593909      0.90801069314357      1.52076547987813
  H   0.98582444254296      0.70383424232736      1.35257155499240
  N   -1.17030393325190     -0.47316744487335     -0.92136495699686
  H   -1.40098651858522      0.39695131312743     -1.38926451980593
  H   -1.97225316121676     -1.09057536540010     -0.93501568593379
  C   -0.55378807652470     -1.50541639628576      1.11367634626765
  N   -0.48843646334270     -2.52522259546410      1.69308397936827
  C   0.50584929111134      1.74831834600155     -0.40500001329424
  N   0.41490232268014      2.71695148059809     -1.06448234390542
  N   1.62804031924368     -0.43699876537829     -0.26098257807333
  H   1.39802270439270     -0.60422828530112     -1.23254607592645
  H   2.56954066491125     -0.07218954921884     -0.19280121907618
