14
Coordinates from ORCA-job run
  C   -0.74824775914903     -0.42196263056062      0.30265199290266
  C   0.42204990138075      0.60868910169221      0.29097941020119
  Br  -1.30145637567535     -0.64484879022836      2.16756522517123
  H   0.05216977483715      1.49816193665198      0.81146196987153
  N   -1.90797899070966     -0.05674749300765     -0.46094073994097
  H   -2.28910095036512      0.82631971732739     -0.14230774787363
  H   -1.69287780714337     -0.00829144512725     -1.45108048042843
  C   -0.22647493775604     -1.70243787992061     -0.18269178176977
  N   0.25278215437930     -2.68715139897384     -0.60893595195241
  C   0.66905215834885      0.97083172628193     -1.12191830790272
  N   0.89486059145308      1.22484293691790     -2.24750586384592
  N   1.58081528084025      0.10663655881519      0.99111502136549
  H   2.21650894601625      0.85935507505147      1.22180846154457
  H   2.07789801354294     -0.57439741491973      0.42879879265719
