14
Coordinates from ORCA-job run
  C   -0.74135183657670     -0.24941887640708      0.27336825926169
  C   0.61423610173714      0.47031827772637      0.44027471101216
  Br  -2.11966313278375      0.88298805513428      1.21875401163665
  H   0.75989662170646      0.67971891996981      1.50288013834016
  N   -1.00974671280735     -0.45706235258381     -1.10107547720761
  H   -1.16487428801954      0.42076017006138     -1.58525949337310
  H   -1.79786342629173     -1.07396723675447     -1.25149237997415
  C   -0.71872112966681     -1.52379969477261      0.98808009839545
  N   -0.74230594067521     -2.55154062254454      1.55661094989345
  C   0.55894732259245      1.75434830422269     -0.29059368264550
  N   0.56759666401460      2.73284489193217     -0.94167480421616
  N   1.65060139070408     -0.43312697532363     -0.00949570072588
  H   1.57223189374424     -0.58625378561836     -1.00720271947940
  H   2.56901647232212     -0.06580907504218      0.20582608908226
