14
Coordinates from ORCA-job run
  C   -0.81444609042556     -0.16842922838831      0.31605149768820
  C   0.59202548866629      0.47568005870658      0.37529531700623
  Br  -2.04618908218585      0.87293119688096      1.41973456742937
  H   0.90549887071605      0.49059452658589      1.42613513194032
  N   -1.26728378442674     -0.15962855004439     -1.04312616840267
  H   -0.58956579456867     -0.67538459198737     -1.59718879259749
  H   -2.17882182557959     -0.59320389052371     -1.12806300048829
  C   -0.71287174548718     -1.50288902021307      0.93207410658734
  N   -0.59830575627540     -2.58551757121765      1.37746526386232
  C   0.53733736265632      1.85892247461537     -0.10505380880210
  N   0.58018431788314      2.96194735548319     -0.50467357541810
  N   1.47501517916643     -0.33327917717807     -0.46315272509074
  H   2.11294925753509     -0.87742843185191      0.10122651366342
  H   2.00747360232568      0.23568484913247     -1.10672432737780
