14
Coordinates from ORCA-job run
  C   -0.47477359706777     -0.56702136017289      0.11339665711000
  C   0.63008576802363      0.46363963868165     -0.21599054705249
  Br  0.18986326258737     -1.90337236127727      1.36252848808492
  H   0.16035183147696      1.14623176985843     -0.94866114095489
  N   -1.56617049234652      0.15136939418210      0.74923282237091
  H   -2.20039800691407     -0.50017987985645      1.19700630883420
  H   -2.08785508880801      0.66121750496392      0.04102674715492
  C   -0.87323560679924     -1.27157387198031     -1.11295125264903
  N   -1.25833587982557     -1.77257139621592     -2.10526026229998
  C   1.75799985058252     -0.18082981476026     -0.89670931871093
  N   2.67116743030844     -0.65923822864966     -1.45813986742195
  N   1.07318046748678      1.10372588283783      1.00337237648435
  H   1.71732260715574      1.85505522432806      0.79069433490316
  H   0.26079745413973      1.47454749806079      1.48245465414682
