14
Coordinates from ORCA-job run
  C   -0.58202658367259     -0.55876164773936     -0.02079855069364
  C   0.48400734497790      0.53087852617240     -0.27228081207937
  Br  0.23261039413181     -1.87101444232544      1.31209646466448
  H   0.03754484418457      1.18610232090743     -1.02894374935052
  N   -1.75638353321987      0.06258732055400      0.42741943978416
  H   -1.54614958868196      0.68624031499847      1.19864509490316
  H   -2.49379418446141     -0.59068618571711      0.65488720763382
  C   -0.81947560673896     -1.34996842605038     -1.22465342053585
  N   -1.02484479719863     -1.95665256239925     -2.21021628220808
  C   1.72057000136797     -0.03750834496941     -0.83192637020361
  N   2.74355571342491     -0.42528498528746     -1.26015108897932
  N   0.65914827846760      1.30421464838165      0.94408971850977
  H   1.27607458583898      0.81446837122943      1.58208311095006
  H   1.06916313157969      2.20438509224504      0.72874923760495
