14
Coordinates from ORCA-job run
  C   -0.80460719152914     -0.34087473456253      0.32916980596805
  C   0.57050090418972      0.39482456839209      0.42261250107212
  Br  -1.97291723935632      0.38576734878890      1.71765877312140
  H   0.93310192972637      0.32796016521047      1.45744156132141
  N   -1.46731234731234     -0.24399211354768     -0.93958013316054
  H   -1.75747083794596      0.71401824083048     -1.10596357005082
  H   -0.80365602745102     -0.52180591989530     -1.65784395963130
  C   -0.54175777524243     -1.74870936557254      0.64595784549021
  N   -0.24513208564807     -2.85878431383545      0.89275048832749
  C   0.37037294692325      1.80497609539595      0.08609800669758
  N   0.21598538251429      2.92655179455460     -0.22496444505387
  N   1.44445766906668     -0.22574897443601     -0.56839936163469
  H   2.15429219543176      0.41999462444738     -0.88960147385811
  H   1.90414247663322     -1.03417741577035     -0.16633603860893
