14
Coordinates from ORCA-job run
  C   -0.70807534478965     -0.41150475696935      0.27803812592527
  C   0.48239390402769      0.58559114822469      0.18565119817319
  Br  -1.12239845542840     -0.58069212310529      2.20303571075995
  H   0.11620641706161      1.52972568813872      0.62175356358759
  N   -1.90683318284989     -0.00596957912273     -0.39119360896718
  H   -1.80602366799624     -0.08103106339619     -1.39723032239599
  H   -2.17779407717318      0.93487046464704     -0.13099146401128
  C   -0.29061051086203     -1.72357256895998     -0.21625668959875
  N   0.01194494359451     -2.76408333127122     -0.67023683661440
  C   0.73477853573464      0.82342975339667     -1.24098922274074
  N   0.90993828252424      1.01347130699457     -2.38650128316189
  N   1.67095500018137      0.03958094621776      0.80884884187181
  H   2.49750312703180      0.54737740992644      0.52076586855753
  H   1.58801502894352      0.09180670527889      1.81630611861488
