14
Coordinates from ORCA-job run
  C   -0.66242811191656     -0.29314669745770      0.19646801018042
  C   0.53315924437992      0.70667478022168      0.08195697638168
  Br  -1.12049327184889     -0.35839885278973      2.18061026295188
  H   0.15503547486099      1.67033467478633      0.44550980186965
  N   -1.73543346254866      0.10691220713829     -0.61496382035083
  H   -2.50223714024089     -0.55339537293859     -0.62631157352125
  H   -2.07062671633916      1.03398737065547     -0.38383785870755
  C   -0.21676461156033     -1.64214293700923     -0.13883071967658
  N   0.19486151088145     -2.70646806741077     -0.42109931813277
  C   0.85886966703026      0.84876807524700     -1.34538313009844
  N   1.15178754742069      0.95648932300429     -2.47716914876415
  N   1.73339438194356      0.38620606907945      0.80832072298110
  H   1.54965407503371      0.33545259358847      1.80179309267304
  H   2.13122141290391     -0.49027316611497      0.49193670221382
