14
Coordinates from ORCA-job run
  C   -0.43582294762835     -0.53909326965443      0.07073035580176
  C   0.57147722023046      0.60563537254820     -0.26492236827966
  Br  0.41179538653339     -1.82664651036087      1.26735968217253
  H   0.01212503450799      1.28292965989946     -0.92688862320382
  N   -1.55045104912215      0.06226073562514      0.77572983852847
  H   -2.13884044784841     -0.65457516561570      1.18549402274235
  H   -2.11503629058634      0.59141191303158      0.11595429143214
  C   -0.81995268526294     -1.25687947332181     -1.14995924388296
  N   -1.19155090392737     -1.76566350458475     -2.14400813259980
  C   1.70258182552149      0.07768184316580     -1.03217125540973
  N   2.61439838683131     -0.35189995851266     -1.63374864303060
  N   1.03652014306092      1.36517986991212      0.86860903864587
  H   1.66771088633082      0.80330372810059      1.42741069445809
  H   0.23504544135917      1.60635475976734      1.44141034262535
