14
Coordinates from ORCA-job run
  C   -0.73274107061644     -0.36504476735272      0.44961047183039
  C   0.62265133826306      0.40328464685959      0.33103889329927
  Br  -1.67556899607318      0.31446442445046      2.02126606649897
  H   1.15020239579680      0.33211030573776      1.29201069138864
  N   -1.59481090647525     -0.26799485095685     -0.69293121283637
  H   -1.05084330585723     -0.51945470624292     -1.51414009677373
  H   -1.92943853754640      0.68463266948306     -0.79355742696110
  C   -0.38951744268389     -1.76958743953445      0.69629537045731
  N   -0.02989608281515     -2.87413005271235      0.87494578048195
  C   0.33861768811302      1.81219644975048      0.05500069572860
  N   0.10997924322542      2.93328276002374     -0.20855504844244
  N   1.33723192758202     -0.18261768335817     -0.79907302966891
  H   1.87308338228293     -0.98537443082442     -0.49068696940063
  H   1.97205036680429      0.48423267467677     -1.21922418560197
