14
Coordinates from ORCA-job run
  C   -0.67839545492592     -0.35203250217809      0.19802191983602
  C   0.51699235944134      0.61971915374249      0.07478241534888
  Br  -1.11805457587772     -0.40435947988376      2.18838513235224
  H   0.14734951359812      1.60342869828152      0.40842367214968
  N   -1.75667451798796      0.08030973439290     -0.59428680965772
  H   -2.09054396284394      0.99730755200634     -0.32454187820243
  H   -2.52292790596304     -0.57974314107533     -0.61522500084602
  C   -0.28801119433736     -1.71397972893556     -0.15266006067807
  N   -0.01972274185411     -2.81237316092740     -0.47236428272719
  C   0.87338108333265      0.73408464212756     -1.34513046440601
  N   1.20974394127391      0.85383456544251     -2.46350350713467
  N   1.65943982923729      0.11827276396498      0.81416272592664
  H   2.51462591642361      0.54509952194905      0.48268674280065
  H   1.55279771048313      0.31343138109279      1.80124939523800
