14
Coordinates from ORCA-job run
  C   -0.68992899175994     -0.29393540473176      0.29660617551627
  C   0.54259682232750      0.63224402757516      0.17794618668945
  Br  -1.14278740601482     -0.42218863507527      2.20179548453494
  H   0.22052414674003      1.59646971036001      0.59705894155945
  N   -1.81153284773259      0.31514859344918     -0.37372868904214
  H   -2.65739255556551     -0.21577721064583     -0.19968238166135
  H   -1.64301753395874      0.32603574921459     -1.37620539578345
  C   -0.35567894891339     -1.64998355390086     -0.16029025879199
  N   -0.17304815394577     -2.72223916665941     -0.60747970804553
  C   0.81005879496492      0.83185900350314     -1.25172417610592
  N   0.99917209893738      0.98942251106828     -2.39998552948292
  N   1.69829854747186      0.02349754407415      0.80938636969272
  H   2.55551746590688      0.44466061206477      0.47543501188829
  H   1.64621856154221      0.14578621970386      1.81286796903220
