14
Coordinates from ORCA-job run
  C   -0.78464057444218     -0.19215694829617      0.46864990403509
  C   0.60403783963272      0.48645240978390      0.24049556270902
  Br  -1.84056946869991      0.97296040231065      1.63054345671615
  H   1.03797229512300      0.73213516189165      1.21933616302927
  N   -1.53483238248384     -0.47179222247449     -0.72151002939151
  H   -1.81589274003512      0.39631650659248     -1.16526022644303
  H   -0.93095502525274     -0.98937704683174     -1.35454548098869
  C   -0.51945238690478     -1.43897939082309      1.19409218450063
  N   -0.21932556425301     -2.42514824357563      1.75852401532475
  C   0.40122527457277      1.72777422611160     -0.50763611552115
  N   0.24219384246425      2.70118712490886     -1.14460083660909
  N   1.39675807888239     -0.44302829070345     -0.55926340941554
  H   1.87149369249146     -1.10171691544291      0.04702649998193
  H   2.09298711890500      0.04537322654835     -1.10785168792783
