14
Coordinates from ORCA-job run
  C   -0.50926825625866     -0.51652131132439     -0.01725134109957
  C   0.59997127704660      0.53856769135793     -0.31548905965752
  Br  0.26013845177120     -1.85064261477100      1.28864986086967
  H   0.16555156600344      1.17141385622867     -1.09878720904584
  N   -1.66324968396980      0.14414493059491      0.47094572431543
  H   -2.45397356446739     -0.48327076505147      0.54988814048082
  H   -1.48127414942570      0.56165206215456      1.37526411039709
  C   -0.82955560286136     -1.27102140440707     -1.22464405747195
  N   -1.09576995060237     -1.84315338805915     -2.21660436242945
  C   1.78784953374563     -0.11773832299112     -0.87570027899287
  N   2.74152532945080     -0.62798530296593     -1.33179820540806
  N   0.97182368329515      1.38898523865753      0.78428553301675
  H   0.24291116955307      2.04852774791572      1.01630051329612
  H   1.26232019671941      0.85904158266075      1.59594063172949
