14
Coordinates from ORCA-job run
  C   -0.64713912358347     -0.31120330262022      0.21517700483821
  C   0.51844411756947      0.71995462760594      0.07268845029069
  Br  -1.03362827023295     -0.41053467485546      2.21484255254585
  H   0.12959678120602      1.66902534775240      0.46230093519747
  N   -1.75732978461458      0.07031628764265     -0.55249184351401
  H   -2.50576013645700     -0.61002091882430     -0.55040044064740
  H   -2.10862683690410      0.98555992200313     -0.29938976097774
  C   -0.18127412345540     -1.64557310686882     -0.14991478167680
  N   0.24141690257658     -2.69953146440420     -0.45379466542442
  C   0.78954273466073      0.88838096337142     -1.36326095600950
  N   1.03978302100156      1.01567143655933     -2.50306136124295
  N   1.75132657773616      0.42051643045739      0.75191841211780
  H   2.16137993256473     -0.43919853688448      0.40642887122602
  H   1.60326820793224      0.34763698906521      1.74995758327678
