14
Coordinates from ORCA-job run
  C   -0.68576615909832     -0.36544045859145      0.28672394763265
  C   0.47885636142649      0.68505287548078      0.18981920893284
  Br  -1.11191622508884     -0.53457038570897      2.20417777822146
  H   0.09067701791011      1.60267916742292      0.64836631090418
  N   -1.89343492177558     -0.03163652947914     -0.40677137646651
  H   -1.75792369223959     -0.07413252854250     -1.41120957377159
  H   -2.22547837293040      0.88785768208990     -0.13911843519604
  C   -0.17987699021795     -1.65742367829715     -0.17803546165155
  N   0.29638250581905     -2.65606465047863     -0.57502031172297
  C   0.68291731716703      0.94177599757222     -1.24412364793770
  N   0.81491722303136      1.09438042716397     -2.40109528859127
  N   1.73711119386764      0.35717647050712      0.80758405695556
  H   1.62185385155813      0.23866312635789      1.80585929856595
  H   2.13168089057089     -0.48831751549696      0.41184349412499
