14
Coordinates from ORCA-job run
  C   -0.52617868770545     -0.52717250971690      0.07498616085808
  C   0.67778576805222      0.41198977301756     -0.16894341100273
  Br  -0.05424900883637     -1.92483026318686      1.34480592612775
  H   0.31324056455491      1.13784406170409     -0.91973256342237
  N   -1.59404688653580      0.27285085330993      0.65045827414942
  H   -2.30665489058263     -0.32825170665423      1.04764960925459
  H   -2.02581612366994      0.83011863025850     -0.08199842743375
  C   -0.90066747269998     -1.18631703181365     -1.18363879422709
  N   -1.25802537986779     -1.64660927730685     -2.20553221168431
  C   1.79093964102480     -0.31599920550404     -0.78683643951852
  N   2.69703182199044     -0.85952579269712     -1.29832705870193
  N   1.09262019182924      1.00203518863438      1.08512618833228
  H   1.81016261119165      1.69771236589659      0.92463220623804
  H   0.28485785125470      1.43615491405860      1.51635054103053
