14
Coordinates from ORCA-job run
  C   -0.67544330435370     -0.35932403779919      0.19263819313307
  C   0.50988732000055      0.62532184560948      0.07642429296329
  Br  -1.13532306939575     -0.40554052833222      2.17852170946788
  H   0.12546660137343      1.60607067293456      0.40215085519523
  N   -1.75041331851239      0.05648901057665     -0.61336622462769
  H   -2.09598536608305      0.97167833448962     -0.35242842400502
  H   -2.51010435679906     -0.61130255352735     -0.63467678183571
  C   -0.26726349840333     -1.71906071474174     -0.14591471256812
  N   0.01182156454715     -2.81750494895469     -0.45619078114523
  C   0.87900923256414      0.73829122994554     -1.34037499932774
  N   1.22278679292541      0.86154566340672     -2.45603689404915
  N   1.65064879328220      0.14034347134537      0.82925697675059
  H   1.53171876116587      0.33816001693033      1.81439140089098
  H   2.50419384768851      0.57583253811691      0.50460538915762
