14
Coordinates from ORCA-job run
  C   -0.82976829994373     -0.23853764953711      0.20991236809902
  C   0.48081037136159      0.55732817751257      0.42262626728713
  Br  -2.28173423710843      0.66452442614698      1.16230501101060
  H   0.63681191331325      0.66159483817210      1.50474878476821
  N   -1.12305703072071     -0.28002066103839     -1.18776768211538
  H   -1.91940707700639     -0.87287879412392     -1.38628726362257
  H   -0.29753064432967     -0.62115611241092     -1.67203158388046
  C   -0.65365397449827     -1.55196192825168      0.85469092850237
  N   -0.45512082259964     -2.61436001811556      1.31940537612434
  C   0.34855444614013      1.89924889279023     -0.15033077722120
  N   0.32695339973628      2.98478611579174     -0.59624623826544
  N   1.54418898308858     -0.17095876293149     -0.26804455663815
  H   1.93879102760213     -0.87361561136538      0.34602878310486
  H   2.28416194496490      0.45500708736083     -0.55900941715333
