14
Coordinates from ORCA-job run
  C   -0.75469335432453     -0.19099362363043      0.42900700422889
  C   0.65050250858490      0.44720508026417      0.30618587350980
  Br  -1.79707705441197      0.79448929599929      1.75703775890637
  H   1.12988091127073      0.37809175234329      1.28898952406557
  N   -1.40846675263412     -0.11301440623566     -0.84518103834049
  H   -2.32510514289328     -0.54427691414066     -0.80742552661014
  H   -0.82961723203277     -0.61601324224481     -1.51267422619000
  C   -0.57876783907425     -1.55500075689523      0.95712805704658
  N   -0.42728738466764     -2.65586804733877      1.34106513640733
  C   0.53842232474769      1.86422961110440     -0.05350531108137
  N   0.53631480820042      2.99170139806278     -0.38052062697582
  N   1.38488798254054     -0.30476968904094     -0.70864005654458
  H   1.70275494263922      0.28873642507512     -1.46212903025484
  H   2.17825128205506     -0.78451688332256     -0.30733753816729
