14
Coordinates from ORCA-job run
  C   -0.59396624096332     -0.54460988872670     -0.05256177875596
  C   0.49225271533359      0.53827066193799     -0.23952854498222
  Br  0.20481873449688     -1.96055520015021      1.18019105226220
  H   0.05318756152782      1.25197731219590     -0.94592174539748
  N   -1.75145879786938      0.06796167646346      0.44795106757995
  H   -2.50077727658112     -0.58399039235707      0.63712467920462
  H   -1.52218344687438      0.63304754476825      1.25786787430400
  C   -0.85647187634632     -1.24641197739193     -1.30571388618335
  N   -1.07852354428450     -1.77821054949155     -2.33003207743167
  C   1.71200109355365     -0.01544040529375     -0.84853227704422
  N   2.72227417828542     -0.39394358690407     -1.31394222461556
  N   0.69319120475179      1.22354399550822      1.02447236817345
  H   1.11755245030960      2.12891386135417      0.86692144901420
  H   1.30610324466029      0.68044694808731      1.62170404387204
