14
Coordinates from ORCA-job run
  C   -0.66521684683530     -0.24474841136975      0.30765719522295
  C   0.54527451525071      0.73195582977679      0.17241352440597
  Br  -1.11734057204582     -0.36322955751780      2.21104244536347
  H   0.20025790340524      1.67623350500634      0.60635236622068
  N   -1.80560351464917      0.29727559075117     -0.38124371525999
  H   -2.62813661526754     -0.27331716117188     -0.22287288279007
  H   -1.62243232409825      0.33458820066010     -1.38010139013888
  C   -0.24662943205278     -1.59000860607603     -0.11452404493381
  N   0.10387151886942     -2.63947123079232     -0.51488186277331
  C   0.76384746213806      0.94211856158494     -1.26679863218354
  N   0.89249764021061      1.06461011854685     -2.42771077615994
  N   1.78331255131198      0.34000351450812      0.79363623580135
  H   2.12567620680159     -0.53749995808476      0.42037327391843
  H   1.66962150696125      0.25948960417822      1.79565826330668
