14
Coordinates from ORCA-job run
  C   -0.62443655398281     -0.51020752811151     -0.04268393487007
  C   0.52852045705876      0.49694488603350     -0.25098383663196
  Br  0.06524067632330     -1.92035039414647      1.26035511747387
  H   0.14667586883917      1.20587021531605     -0.99448886140008
  N   -1.75097057956291      0.19083817541162      0.40997889226373
  H   -2.54239950386867     -0.40522703652661      0.61085890488074
  H   -1.50159510601779      0.77648987981453      1.19919173973345
  C   -0.90804960799429     -1.24511822033489     -1.27207984096112
  N   -1.14693071917138     -1.80394631931595     -2.27824170609617
  C   1.72340866573667     -0.15331777001886     -0.81231141195712
  N   2.71773687429127     -0.61008130751284     -1.24040743095526
  N   0.74761414247254      1.22117037632364      0.98808783952690
  H   1.31321409986172      0.66649286630631      1.62030226230058
  H   1.23197128601444      2.09044217676149      0.80242226669251
