14
Coordinates from ORCA-job run
  C   -0.70038465562992     -0.27255886839369      0.34866831802032
  C   0.59270214800227      0.57144293745410      0.34042207673790
  Br  -2.12196268413327      0.85160734186821      1.23735509683980
  H   0.77552420870619      0.92482642582070      1.35821208612901
  N   -1.02172848391732     -0.67242513147297     -0.97083493723191
  H   -1.75701074522024     -1.36725350444319     -0.99560235024762
  H   -1.28125243426550      0.12159080567382     -1.54641163342194
  C   -0.52515803649746     -1.44117846256554      1.20835924629332
  N   -0.42738044489880     -2.38892556693583      1.89551960849424
  C   0.38345328191817      1.74353945062315     -0.53592880108286
  N   0.26882287942061      2.62857674622128     -1.30088178891682
  N   1.67988745095560     -0.29374516582996     -0.06175036189598
  H   2.57218479144964      0.17082039652413      0.04980331702416
  H   1.56330272411001     -0.57631740454423     -1.02692987674162
