14
Coordinates from ORCA-job run
  C   -0.65444537523472     -0.16050724627262      0.38051718307848
  C   0.71313610672637      0.57675139328102      0.23849831296961
  Br  -1.85187726762224      1.01019553871470      1.50291857225870
  H   1.02606993347172      0.89486833953235      1.23681948596047
  N   -1.17292496814349     -0.47706717090078     -0.89687369872523
  H   -1.98377842102840     -1.08089373104508     -0.84853907251419
  H   -1.40050917185209      0.36075105365889     -1.42191943758278
  C   -0.44479696313454     -1.37785363585396      1.16146165226565
  N   -0.22589334536069     -2.35483035544387      1.77709643069734
  C   0.49102315013870      1.77332329281456     -0.58590217283726
  N   0.27860437126928      2.68577004720860     -1.29355999556958
  N   1.75455793092361     -0.23189390729219     -0.34853460220796
  H   1.41952206791608     -0.66799433218914     -1.19923531287143
  H   2.05231195193042     -0.95161928621249      0.29825265507816
