14
Coordinates from ORCA-job run
  C   -0.48936710073154     -0.53452573880964     -0.02062375000050
  C   0.55107825943372      0.58965280648224     -0.31541379155226
  Br  0.43639652219087     -1.93634410330935      1.10058699225642
  H   0.02863483199433      1.26578228313340     -1.00291386583659
  N   -1.62213499836664      0.03171057422844      0.61347128166179
  H   -1.38046929570237      0.38281800887029      1.53200649793696
  H   -2.37897764479677     -0.63496289498504      0.70307363307640
  C   -0.88127677095004     -1.20141775909113     -1.25804722765777
  N   -1.21028225809571     -1.70418932346774     -2.26859000250027
  C   1.71007368211226      0.03397237187101     -1.02504475257985
  N   2.63821299534471     -0.39771585930787     -1.59946100614086
  N   0.98350913810432      1.36071150764976      0.81984924035985
  H   1.36290592607126      0.77854609787165      1.55530757862794
  H   0.25369671339160      1.96596202886398      1.16779917234873
