14
Coordinates from ORCA-job run
  C   -0.79003360536820     -0.21087487255435      0.45214318782234
  C   0.61090105064191      0.45870470747513      0.27647135837892
  Br  -1.83210893989925      0.88724654161217      1.68850576313354
  H   1.04337897008906      0.62995421423903      1.27170217377442
  N   -1.53871070876629     -0.39423277725894     -0.75773665904356
  H   -0.93906383470532     -0.87407025933890     -1.42384177722438
  H   -1.80500854960440      0.50742813324805     -1.13959067797594
  C   -0.54868596615655     -1.51018550648912      1.08840083149335
  N   -0.26886015785327     -2.53942115151668      1.58183698816464
  C   0.43176854407693      1.75143374483240     -0.38569551132036
  N   0.29261398047178      2.76854394890071     -0.95553486092692
  N   1.39232155256255     -0.42681911388032     -0.58165562708218
  H   2.09834947107141      0.08589001040443     -1.09433170720201
  H   1.85313819343965     -1.13359761967361     -0.02067348199188
