14
Coordinates from ORCA-job run
  C   -0.49725644825377     -0.54877791200344      0.10760958061853
  C   0.65086601446562      0.43893457935100     -0.20467370429205
  Br  0.08448482808580     -1.88550457540631      1.39693107386250
  H   0.22555315567328      1.12481587996939     -0.96104327004855
  N   -1.58199108795133      0.21600845735872      0.69926558708647
  H   -2.06311679463939      0.73341759338565     -0.03181114232512
  H   -2.25226124839886     -0.40673523744651      1.13531399031025
  C   -0.88307563348550     -1.26002143344630     -1.11907696708791
  N   -1.25410745845315     -1.76666899142513     -2.11374814617987
  C   1.77570024890636     -0.25369638894258     -0.84195473528570
  N   2.69113382960388     -0.77086107119429     -1.36426249264189
  N   1.08013912407770      1.08351800157313      1.01707188318699
  H   0.26777273303205      1.48904226299988      1.46688185825291
  H   1.75615873733730      1.80852883522677      0.81249648454347
