14
Coordinates from ORCA-job run
  C   -0.68915983738860     -0.43234999963177      0.29626054450645
  C   0.47251746577219      0.59529279271021      0.17546093252486
  Br  -1.03823679609182     -0.62899351816561      2.23068461056298
  H   0.09699627809138      1.52633192634800      0.63140310875912
  N   -1.91865025760014     -0.05180017135940     -0.33122696580431
  H   -1.84504541173105     -0.10919713521032     -1.34086129306304
  H   -2.20712328446477      0.87748997292046     -0.04920299056949
  C   -0.25414637569867     -1.72895427507012     -0.22318911055936
  N   0.06495026846091     -2.75649469039629     -0.69495176482000
  C   0.67355763517131      0.85174853621737     -1.25615446427586
  N   0.80986117718089      1.06020878214374     -2.40376492532647
  N   1.69364085735189      0.07447749197558      0.75578236290163
  H   2.49814150927789      0.60340223130288      0.44400916285590
  H   1.64269677166860      0.11883805621527      1.76575079230758
