14
Coordinates from ORCA-job run
  C   -0.74618378943025     -0.28771907774037      0.22063371096260
  C   0.52915724697449      0.55115559020377      0.45453640611178
  Br  -2.29311449164966      0.79653259003964      0.93173173172178
  H   0.55041868732032      0.85248085167724      1.50475787213894
  N   -0.85733016146489     -0.62115706089551     -1.15055319615967
  H   -1.57721262502048     -1.31105935470112     -1.32369050739967
  H   -1.02733095802040      0.20131199096264     -1.71952510370876
  C   -0.69917086488724     -1.49660214001134      1.04032571988640
  N   -0.69702708640641     -2.47346120110066      1.69261696078672
  C   0.45429185005869      1.76653478706072     -0.38399582353989
  N   0.45575305248797      2.69145931976614     -1.10923291896421
  N   1.66903834508893     -0.29707068302489      0.18353108219415
  H   2.53096861270237      0.15661779967976      0.45802699038561
  H   1.70674218224657     -0.52902341191599     -0.80116292441579
