14
Coordinates from ORCA-job run
  C   -0.60095504268204     -0.53428909857628     -0.07054703272676
  C   0.49670612335893      0.54218537975389     -0.22233212034058
  Br  0.19236128204227     -2.01158743859792      1.09354885132403
  H   0.06071354729913      1.29022955790298     -0.89429969019825
  N   -1.74568247852929      0.06995415605575      0.46749648605647
  H   -1.50094041544048      0.60044113598562      1.29591375785150
  H   -2.50038125619438     -0.58039465767721      0.63934843499775
  C   -0.88446327992584     -1.18046983073669     -1.34867325839076
  N   -1.12520775975921     -1.66795078521653     -2.39079196583238
  C   1.70458790551379      0.00033797190288     -0.86496250321368
  N   2.70687723473369     -0.36865330261470     -1.35447089826684
  N   0.71693667905769      1.17137381879635      1.06752582007537
  H   1.15512993512914      2.07568231377984      0.94418986004108
  H   1.32531752539660      0.59414077924202      1.63705425862304
