14
Coordinates from ORCA-job run
  C   -0.82738924561108     -0.20610942635426      0.25062463418324
  C   0.50453618715228      0.57360529130061      0.36860260976093
  Br  -2.23016975257966      0.78901393701743      1.18406710964693
  H   0.69803254605218      0.74562095743815      1.43592990479790
  N   -1.16631924646382     -0.33477174321913     -1.13150560470699
  H   -1.97983367247698     -0.92277288819520     -1.26429398326681
  H   -0.36370591241633     -0.72620947441908     -1.61618115576514
  C   -0.65508662636263     -1.47706840320987      0.97679460226248
  N   -0.46283071686895     -2.51008312705062      1.50591163929834
  C   0.38043023604098      1.87781465757354     -0.28727962181023
  N   0.36682754307208      2.93267738549274     -0.80177307389492
  N   1.53077141124951     -0.22175663814231     -0.30448264522629
  H   1.93215386548876     -0.88895225306393      0.34391411388272
  H   2.27258338372366      0.36799172483194     -0.65932852916214
