14
Coordinates from ORCA-job run
  C   -0.60248655531822     -0.53503204805606     -0.04669856773100
  C   0.50690389463933      0.52099901058620     -0.24857985783206
  Br  0.14597587508426     -1.92209792506667      1.24987990398898
  H   0.09527307392115      1.21759836384516     -0.98786568627494
  N   -1.75794422658316      0.11485992365730      0.40973123690267
  H   -1.53309038589087      0.70414389653662      1.20360301101855
  H   -2.52167867959381     -0.51728647113546      0.60830875593877
  C   -0.85456148281482     -1.27610504092957     -1.27911199288624
  N   -1.06978259634606     -1.84152925731804     -2.28684180741475
  C   1.72835740358844     -0.07458448520272     -0.81327568697508
  N   2.74168066836896     -0.48582568272979     -1.24273769472523
  N   0.69553195962546      1.24565665505358      0.99524006225320
  H   1.28555444929859      0.71207330712675      1.62333830407539
  H   1.14026660202075      2.13712975363271      0.81601001966174
