14
Coordinates from ORCA-job run
  C   -0.66923773299898     -0.31992615992207      0.31761766325348
  C   0.52262334874425      0.65281709660699      0.16046517760259
  Br  -1.05918145152110     -0.46141108160295      2.23560541157937
  H   0.17590876529735      1.60529027578168      0.58664819394738
  N   -1.83319574874593      0.24418202917741     -0.31933169683119
  H   -2.65235792249414     -0.31792385263835     -0.11785153070421
  H   -1.69620046730374      0.25723253821528     -1.32665209082543
  C   -0.29594293643054     -1.66271719000096     -0.14806635580197
  N   -0.07963669493176     -2.72671139724571     -0.59996452958708
  C   0.73946975856481      0.85695835503573     -1.27714624458812
  N   0.88791381427706      1.02041657927674     -2.43051973325177
  N   1.71921966346699      0.09131808893708      0.75858225324774
  H   2.54917489568468      0.54383693613848      0.39779435863189
  H   1.69244270839105      0.21563778224066      1.76281912332731
