14
Coordinates from ORCA-job run
  C   -0.73376719837302     -0.44058388611653      0.30736777656390
  C   0.40194642596905      0.62831235025086      0.27971058320845
  Br  -1.28644646411413     -0.64399297561376      2.17478591168541
  H   0.00055253655447      1.51450278557384      0.78218416993903
  N   -1.90226082849122     -0.13008745396210     -0.46712000039249
  H   -1.68461965035057     -0.09305888195066     -1.45721419206366
  H   -2.31469249346202      0.74531677363450     -0.16683397693065
  C   -0.16798874257035     -1.71257111632427     -0.14972706199202
  N   0.34498507301430     -2.69011785615332     -0.55293015087203
  C   0.64128419411738      0.97168714608872     -1.13884672460518
  N   0.84714086211531      1.20392174580035     -2.27281949397279
  N   1.57359227460971      0.17744319584318      0.99276522333855
  H   2.10264666799434     -0.48794404514816      0.44107942585330
  H   2.17662734298676      0.95517221807733      1.22659851024018
