14
Coordinates from ORCA-job run
  C   -0.85141213725920     -0.29765662082527      0.24436804272290
  C   0.49030682972041      0.48066102566442      0.43264105396914
  Br  -2.23816858869390      0.63710059064963      1.25624686240292
  H   0.66928249374094      0.61415627950725      1.50830908606842
  N   -1.28552440055922     -0.45210761799130     -1.11419677504469
  H   -0.50934299092597     -0.83767585579354     -1.64548212671757
  H   -1.53858796692559      0.45111305966633     -1.50115826144933
  C   -0.65132657592301     -1.61582019664153      0.85581391208869
  N   -0.40026414628830     -2.65137414366738      1.35135007125906
  C   0.35704540944010      1.79999858227353     -0.18662479976722
  N   0.26334881473218      2.84332734167288     -0.71704468997854
  N   1.51889754748365     -0.28598137263658     -0.26394700520914
  H   1.89735579079251     -0.99606460523102      0.35184581599416
  H   2.27738992066541      0.30932353335258     -0.57112118633881
