16

C	-0.506555	-0.001393	-1.426165
C	0.0	0.0	0.0
Cl	0.100108	1.435413	-2.237166
H	1.089765	0.0	0.0
C	-0.081438	-1.185672	-2.162965
N	0.22736	-2.110917	-2.820346
N	-2.073455	-0.036052	-1.509333
O	-2.65318	0.808405	-2.161105
O	-2.549965	-0.942353	-0.843371
N	-0.432517	-1.204301	0.782495
O	-1.132025	-1.027738	1.774954
O	0.061346	-2.2575	0.40011
N	-0.471038	1.194442	0.756492
O	-1.563236	1.678865	0.454695
O	0.317185	1.631562	1.587385
Cl	2.675366	0.0	0.0
