15

C	0.0	0.0	0.0
C	-0.688153	-0.05395	-1.350806
Cl	1.774855	0.0	0.0
H	-1.878411	-0.024742	-0.88453
N	-0.499811	1.20112	0.608228
H	-1.527758	1.068713	0.609621
H	-0.193204	1.236534	1.573656
C	-0.367851	-1.232787	0.75586
N	-0.618346	-2.162805	1.43011
N	-0.529431	-1.323414	-2.094386
O	-1.376339	-1.536162	-2.960565
O	0.400887	-2.082607	-1.801263
C	-0.324241	1.021273	-2.225063
N	-0.020738	1.888461	-2.962321
H	-2.776526	0.0	0.0
