15

C	0.0	0.0	0.0
C	-0.578848	-0.039435	-1.408391
Cl	1.777491	0.0	0.0
H	-1.731986	-0.075902	-1.097398
N	-0.525928	1.19797	0.578502
H	-1.562221	1.026544	0.533161
H	-0.259205	1.237056	1.557125
C	-0.37348	-1.225259	0.753685
N	-0.563326	-2.141487	1.464185
N	-0.197464	-1.271588	-2.144395
O	0.616759	-1.182212	-3.066914
O	-0.742202	-2.313291	-1.778437
C	-0.209924	1.137203	-2.164133
N	0.0403	2.088422	-2.809008
H	-2.775435	0.0	0.0
