18

C	-0.539086	-0.021283	-1.421111
C	0.0	0.0	0.0
F	-0.109538	1.207021	-2.028404
H	1.099189	0.0	0.0
C	0.063164	-1.129556	-2.244374
H	1.150524	-1.037482	-2.20754
H	-0.23263	-2.087624	-1.820764
H	-0.280361	-1.054642	-3.282055
N	-1.967218	-0.050874	-1.404025
H	-2.318989	0.109849	-2.340747
H	-2.275352	0.701361	-0.796298
N	-0.411993	-1.203918	0.690782
H	-1.349153	-1.083902	1.059812
H	0.238847	-1.374307	1.448761
N	-0.5248	1.223371	0.65657
H	-0.125427	2.002902	0.137991
H	-0.073228	1.255249	1.567257
H	3.049502	0.0	0.0
