18

C	-0.361455	0.038261	-1.47858
C	0.0	0.0	0.0
F	-1.749057	-0.161373	-1.625522
H	1.102236	0.0	0.0
C	-0.011567	1.360562	-2.125538
H	-0.666428	2.14623	-1.744306
H	1.032776	1.607878	-1.910088
H	-0.152848	1.272486	-3.204749
N	0.290671	-1.042655	-2.179957
H	1.291704	-0.862877	-2.091091
H	0.122656	-1.864616	-1.603405
N	-0.454217	-1.253571	0.56976
H	0.149601	-1.497997	1.346454
H	-1.403615	-1.1309	0.902941
N	-0.543199	1.152161	0.750164
H	-0.074894	1.984142	0.398854
H	-0.177809	1.04461	1.694854
H	2.997541	0.0	0.0
