18

C	-0.534649	-0.02132	-1.429219
C	0.0	0.0	0.0
F	-0.296339	1.207335	-2.038784
H	1.09912	0.0	0.0
C	0.210797	-1.052589	-2.260757
H	-0.09926	-0.965682	-3.307942
H	-0.019903	-2.059681	-1.905626
H	1.28727	-0.880311	-2.17458
N	-1.973986	-0.192375	-1.385607
H	-2.126553	-1.009082	-0.802096
H	-2.312905	-0.394404	-2.320523
N	-0.421298	-1.303689	0.62116
H	-0.584648	-1.105339	1.602683
H	0.407236	-1.897263	0.604152
N	-0.486276	1.15475	0.70353
H	-1.478743	1.078656	0.887546
H	0.036559	1.272981	1.561708
H	3.021656	0.0	0.0
