18

C	-0.458022	-0.10744	-1.451172
C	0.0	0.0	0.0
F	-0.192115	-1.427159	-1.87101
H	1.099252	0.0	0.0
C	-1.941167	0.119275	-1.649289
H	-2.183322	-0.039632	-2.701963
H	-2.506542	-0.577926	-1.027184
H	-2.2035	1.139552	-1.364767
N	0.322847	0.754245	-2.307665
H	1.300922	0.564381	-2.077694
H	0.154482	1.696371	-1.968486
N	-0.561831	-1.083005	0.819673
H	0.065583	-1.181452	1.614739
H	-0.444978	-1.938418	0.284789
N	-0.398869	1.31127	0.512129
H	-1.217337	1.179948	1.096756
H	0.35781	1.655568	1.093575
H	3.003263	0.0	0.0
