18

C	-0.413451	-0.016445	-1.461223
C	0.0	0.0	0.0
F	-1.836228	-0.080643	-1.495455
H	1.095652	0.0	0.0
C	0.018454	1.232997	-2.188708
H	-0.489259	2.098725	-1.768347
H	1.095493	1.364513	-2.052439
H	-0.218255	1.128199	-3.250127
N	0.071875	-1.189613	-2.142612
H	1.077565	-1.059689	-2.236577
H	-0.038091	-1.948795	-1.474122
N	-0.398556	-1.268949	0.622617
H	-1.33947	-1.197686	0.992942
H	0.241806	-1.457269	1.385819
N	-0.448458	1.219598	0.660132
H	-1.427775	1.135869	0.912597
H	0.097618	1.34266	1.505404
H	2.965381	0.0	0.0
