18

C	-0.549232	0.031444	-1.423094
C	0.0	0.0	0.0
F	-0.461613	1.316676	-1.949612
H	1.095273	0.0	0.0
C	0.276538	-0.859512	-2.33386
H	1.32607	-0.559377	-2.277323
H	0.196	-1.896953	-2.00437
H	-0.089433	-0.771833	-3.363719
N	-1.971581	-0.278755	-1.380593
H	-2.317855	-0.306662	-2.334812
H	-2.034267	-1.214659	-0.996295
N	-0.364097	-1.334129	0.560479
H	0.479753	-1.71067	0.985404
H	-1.039153	-1.193909	1.303428
N	-0.470476	1.14206	0.750771
H	-1.465578	1.06669	0.921532
H	0.031474	1.179589	1.629258
H	3.008188	0.0	0.0
