14

C	0.0	0.0	0.0
C	-0.250927	0.069343	-1.570671
Cl	1.782996	0.0	0.0
H	0.478912	-0.6459	-1.976808
H	-0.340622	0.897173	0.508177
C	-0.550542	-1.170097	0.67158
N	-0.633683	-2.077497	1.426801
C	0.183055	1.388841	-2.070991
N	0.50825	2.434592	-2.501582
C	-1.580344	-0.273614	-2.268764
H	-1.958822	-1.23592	-1.919138
H	-2.344155	0.47493	-2.074137
H	-1.347263	-0.328188	-3.341472
H	-2.224988	0.0	0.0
