14

C	0.0	0.0	0.0
C	-0.531791	-0.052901	-1.431023
Cl	1.782409	0.0	0.0
H	-1.645245	-0.134439	-1.175643
H	-0.370225	0.914388	0.464252
C	-0.438407	-1.149153	0.802446
N	-0.553353	-2.114107	1.465069
C	-0.042591	-1.21258	-2.151053
N	0.345353	-2.128225	-2.780939
C	-0.263988	1.242681	-2.186
H	-0.809362	2.052094	-1.69127
H	-0.627935	1.164392	-3.212919
H	0.800902	1.490602	-2.216868
H	-2.726542	0.0	0.0
