14

C	0.0	0.0	0.0
C	-0.234043	0.023714	-1.585208
Cl	1.783	0.0	0.0
H	0.510563	-0.694022	-1.955018
H	-0.273076	0.963178	0.429159
C	-0.941375	-1.019984	0.549492
N	-0.997057	-2.123941	1.027091
C	0.171563	1.323979	-2.124395
N	0.474341	2.362922	-2.582926
C	-1.564141	-0.386676	-2.234768
H	-1.378375	-0.521896	-3.30695
H	-1.906192	-1.330858	-1.809373
H	-2.341293	0.364027	-2.092451
H	-2.015228	0.0	0.0
