17

C	-0.274878	-0.04516	-1.508397
C	0.0	0.0	0.0
Br	-2.170664	-0.523532	-1.93142
H	1.106393	0.0	0.0
C	-0.124842	1.300285	-2.089728
N	0.048291	2.371304	-2.546285
N	0.582308	-1.034965	-2.096344
H	1.533597	-0.889512	-1.743911
H	0.577443	-0.96412	-3.107248
C	-0.482441	-1.248919	0.710744
H	-1.562224	-1.200916	0.877367
H	0.030067	-1.327826	1.673787
H	-0.247922	-2.136972	0.123951
N	-0.577837	1.199926	0.594696
H	0.072303	1.96956	0.467748
H	-0.649613	1.052414	1.594783
Cl	3.412717	0.0	0.0
