17

C	-0.559441	-0.023128	-1.430197
C	0.0	0.0	0.0
Br	0.326462	1.501471	-2.466527
H	1.097287	0.0	0.0
C	-0.171601	-1.220159	-2.175019
N	0.077257	-2.206797	-2.763278
N	-1.966741	0.113727	-1.39749
H	-2.168959	0.879642	-0.759526
H	-2.357143	0.284049	-2.314502
C	-0.482266	-1.223338	0.768932
H	-1.56795	-1.213783	0.891881
H	-0.187051	-2.143371	0.261901
H	0.000302	-1.22706	1.750481
N	-0.524553	1.223616	0.634827
H	-0.494311	1.08437	1.638605
H	0.133324	1.970578	0.43395
Cl	3.440633	0.0	0.0
