17

C	-0.534067	0.038723	-1.438321
C	0.0	0.0	0.0
Br	0.059163	1.661668	-2.353436
H	1.095654	0.0	0.0
C	-0.020644	-1.087482	-2.237119
N	0.270082	-2.04693	-2.85266
N	-1.9964	0.059114	-1.435723
H	-2.319903	-0.866223	-1.168141
H	-2.324701	0.232232	-2.379865
C	-0.441583	-1.297105	0.68752
H	-0.155564	-2.187924	0.121518
H	-1.523688	-1.312466	0.86817
H	0.061534	-1.350738	1.655343
N	-0.428808	1.201109	0.695917
H	-1.314163	1.060612	1.163693
H	0.280317	1.452927	1.370963
Cl	3.42536	0.0	0.0
