17

C	-0.557211	-0.021925	-1.432925
C	0.0	0.0	0.0
Br	0.339828	1.501064	-2.467672
H	1.097364	0.0	0.0
C	-0.174819	-1.221021	-2.176708
N	0.11562	-2.195492	-2.765059
N	-1.961547	0.122422	-1.401081
H	-2.357929	0.282877	-2.317416
H	-2.16593	0.889559	-0.764328
C	-0.483406	-1.224341	0.766395
H	-0.005759	-1.227325	1.750948
H	-0.183656	-2.14381	0.260563
H	-1.570169	-1.216926	0.884144
N	-0.526249	1.223372	0.634446
H	0.132019	1.970482	0.434076
H	-0.498531	1.082961	1.637938
Cl	3.442152	0.0	0.0
