17

C	-0.322097	0.054458	-1.500977
C	0.0	0.0	0.0
Br	-0.051222	-1.805296	-2.336355
H	1.104745	0.0	0.0
C	-1.732389	0.332882	-1.782722
N	-2.862695	0.537734	-2.028524
N	0.525084	1.017501	-2.085314
H	0.433884	1.069454	-3.091528
H	1.493281	0.840877	-1.810273
C	-0.59587	-1.16015	0.763314
H	-0.160324	-2.107619	0.452518
H	-1.682258	-1.191347	0.636483
H	-0.378973	-1.027719	1.827324
N	-0.531302	1.2614	0.548413
H	-0.264312	1.289753	1.527576
H	-0.029317	2.019267	0.096753
Cl	3.432731	0.0	0.0
