17

C	-0.28422	-0.058955	-1.502847
C	0.0	0.0	0.0
Br	-2.234014	-0.403143	-1.858994
H	1.100152	0.0	0.0
C	-0.05041	1.250369	-2.133777
N	0.205174	2.235184	-2.72347
N	0.476968	-1.12481	-2.085023
H	1.436757	-1.043919	-1.73866
H	0.477892	-1.056823	-3.096636
C	-0.456822	-1.252438	0.734562
H	0.019129	-1.269425	1.718253
H	-1.543503	-1.255834	0.866132
H	-0.167736	-2.154061	0.192702
N	-0.483499	1.248482	0.558163
H	0.188338	1.595339	1.230116
H	-1.371405	1.109534	1.024928
Cl	3.362617	0.0	0.0
