17

C	-0.408054	0.011938	-1.487937
C	0.0	0.0	0.0
Br	0.101637	-1.676869	-2.363432
H	1.09631	0.0	0.0
C	-1.871397	0.10666	-1.593571
N	-3.043101	0.20302	-1.59755
N	0.214851	1.087728	-2.232866
H	0.023958	1.917528	-1.67239
H	1.22096	0.929233	-2.162485
C	-0.531281	-1.169926	0.811363
H	-1.627739	-1.200346	0.79565
H	-0.147606	-2.122046	0.445264
H	-0.201238	-1.052279	1.846763
N	-0.431005	1.305865	0.516302
H	-1.306013	1.216727	1.020969
H	0.276327	1.650035	1.154553
Cl	3.395172	0.0	0.0
