17

C	-0.261072	-0.025643	-1.517986
C	0.0	0.0	0.0
Br	-2.13082	-0.565622	-1.935904
H	1.106564	0.0	0.0
C	-0.128829	1.331787	-2.063371
N	-0.006888	2.425331	-2.475689
N	0.626166	-0.902922	-2.254599
H	0.471592	-1.85283	-1.933074
H	1.579623	-0.652367	-1.975937
C	-0.465204	-1.253581	0.715452
H	-1.54891	-1.238194	0.854004
H	0.02613	-1.301822	1.691199
H	-0.189808	-2.159386	0.172627
N	-0.60035	1.179375	0.616216
H	0.005982	1.975047	0.443653
H	-0.604282	1.041982	1.620805
Cl	3.410557	0.0	0.0
