17

C	-0.358852	-0.266466	-1.470999
C	0.0	0.0	0.0
Br	-2.323133	-0.529575	-1.692881
H	1.108513	0.0	0.0
C	-0.03558	0.899043	-2.29259
N	0.231773	1.818381	-2.974473
C	0.365275	-1.495624	-2.007985
H	1.433908	-1.362479	-1.810659
H	0.010158	-2.394844	-1.504462
H	0.188029	-1.602096	-3.079052
C	-0.4294	-1.095791	0.976949
H	-0.039208	-0.842995	1.964756
H	-1.5155	-1.191892	1.035542
H	0.010436	-2.051769	0.69058
C	-0.500959	1.296541	0.441131
N	-0.92134	2.322536	0.83024
Cl	3.268368	0.0	0.0
