17

C	-0.40178	0.089738	-1.491187
C	0.0	0.0	0.0
Br	0.162466	-1.557108	-2.416441
H	1.095295	0.0	0.0
C	-1.8543	0.162118	-1.646923
N	-3.023523	0.238439	-1.752891
C	0.304908	1.26357	-2.162937
H	1.378262	1.155317	-1.98867
H	-0.03981	2.198595	-1.713872
H	0.09341	1.280183	-3.233203
C	-0.532509	-1.217579	0.75146
H	-0.073353	-2.122888	0.356906
H	-0.258407	-1.132213	1.804351
H	-1.62092	-1.294904	0.67533
C	-0.464982	1.226892	0.648677
N	-0.872557	2.196726	1.173633
Cl	3.309644	0.0	0.0
