17

C	-0.319664	0.042834	-1.504939
C	0.0	0.0	0.0
Br	-2.276513	-0.144122	-1.836413
H	1.109581	0.0	0.0
C	0.039079	1.347762	-2.060077
N	0.33579	2.383444	-2.531582
C	0.416985	-1.060261	-2.258219
H	0.279036	-0.943044	-3.333779
H	1.479005	-0.981986	-2.002254
H	0.039402	-2.039194	-1.96145
C	-0.436955	-1.280547	0.711152
H	-1.518402	-1.424902	0.669207
H	0.068522	-2.142836	0.275193
H	-0.126403	-1.217842	1.755441
C	-0.520165	1.175824	0.685509
N	-0.962311	2.098912	1.263121
Cl	3.27303	0.0	0.0
