17

C	-0.526368	0.137272	-1.444478
C	0.0	0.0	0.0
Br	0.323466	1.695055	-2.293493
H	1.108599	0.0	0.0
C	-0.156823	-1.03992	-2.228726
N	0.021864	-2.020805	-2.852464
C	-2.040945	0.329816	-1.529928
H	-2.350252	0.429333	-2.571067
H	-2.328262	1.22983	-0.984743
H	-2.549557	-0.534384	-1.093836
C	-0.431564	-1.315773	0.662692
H	-0.062303	-2.159811	0.078445
H	-1.515155	-1.397619	0.783624
H	0.034986	-1.368395	1.647684
C	-0.478327	1.133064	0.787235
N	-0.93043	2.009845	1.426381
Cl	3.287332	0.0	0.0
