17

C	-0.493886	0.044175	-1.460841
C	0.0	0.0	0.0
Br	0.135361	1.70891	-2.301231
H	1.108458	0.0	0.0
C	0.091965	-1.061036	-2.219211
N	0.462402	-1.986903	-2.842019
C	-2.015035	-0.008111	-1.593117
H	-2.462186	0.791596	-0.999889
H	-2.382287	-0.973835	-1.236949
H	-2.309796	0.112643	-2.636242
C	-0.419196	-1.296925	0.708904
H	0.080911	-1.330035	1.678375
H	-0.0769	-2.159797	0.133633
H	-1.498246	-1.363397	0.868544
C	-0.519937	1.147227	0.735036
N	-1.004473	2.020864	1.354645
Cl	3.298414	0.0	0.0
