17

C	-0.356746	-0.044337	-1.47163
C	0.0	0.0	0.0
Br	-2.317524	-0.089628	-1.747505
H	1.096285	0.0	0.0
H	-0.054512	0.899452	-1.921074
C	0.29996	-1.210616	-2.183149
H	-0.098535	-2.167638	-1.843421
H	0.139433	-1.137816	-3.26087
H	1.37291	-1.171057	-1.96875
C	-0.495777	-1.141617	0.85744
H	-0.07994	-1.051427	1.859503
H	-0.140116	-2.082001	0.433209
H	-1.584053	-1.160818	0.924984
N	-0.415364	1.323901	0.574006
O	-0.21394	2.325288	-0.109446
O	-0.906319	1.343287	1.702593
Cl	3.309332	0.0	0.0
