17

C	-0.531075	0.006093	-1.433525
C	0.0	0.0	0.0
Br	-0.031711	-1.66748	-2.321554
H	1.091521	0.0	0.0
H	-1.622986	-0.00281	-1.420704
C	0.011961	1.17948	-2.230971
H	-0.381091	2.113819	-1.818791
H	-0.296973	1.114892	-3.275857
H	1.102093	1.196918	-2.167627
C	-0.538549	-1.108879	0.88357
H	-0.135006	-2.062383	0.543976
H	-0.200951	-0.951532	1.910626
H	-1.630388	-1.141439	0.86186
N	-0.469222	1.310753	0.570204
O	0.363118	2.137843	0.925859
O	-1.693501	1.481334	0.623309
Cl	3.416893	0.0	0.0
