17

C	-0.496875	-0.033993	-1.444933
C	0.0	0.0	0.0
Br	-0.032169	1.630445	-2.372173
H	1.090715	0.0	0.0
H	0.118686	-0.788763	-1.941213
C	-1.974265	-0.316046	-1.661862
H	-2.58937	0.450103	-1.191445
H	-2.195245	-0.342928	-2.730464
H	-2.237828	-1.286731	-1.23349
C	-0.444153	-1.228866	0.782775
H	-1.523603	-1.266316	0.927045
H	0.049351	-1.220083	1.757056
H	-0.106589	-2.125209	0.256095
N	-0.507431	1.218357	0.702118
O	0.282124	2.118959	0.96093
O	-1.7154	1.245862	0.972547
Cl	3.394697	0.0	0.0
