17

C	-0.394151	0.00101	-1.45503
C	0.0	0.0	0.0
F	0.169665	-1.076887	-2.05934
H	1.092867	0.0	0.0
N	-1.923386	-0.210833	-1.569195
O	-2.32636	-1.30433	-1.940536
O	-2.605809	0.738933	-1.201851
C	-0.08476	1.184434	-2.26663
N	0.166491	2.011965	-3.061651
C	-0.484985	-1.239888	0.715621
H	-1.560295	-1.230502	0.918494
H	-0.232543	-2.112851	0.11241
H	0.049034	-1.318103	1.661244
N	-0.411613	1.231852	0.688728
O	-0.259677	2.304229	0.101335
O	-0.804602	1.134746	1.854544
F	2.468609	0.0	0.0
