17

C	-0.363855	-0.021484	-1.461389
C	0.0	0.0	0.0
F	0.157296	-1.143815	-2.022424
H	1.091858	0.0	0.0
N	-1.897492	-0.152561	-1.605911
O	-2.534822	0.846106	-1.29118
O	-2.35371	-1.236202	-1.944693
C	0.026277	1.124846	-2.292142
N	0.289966	1.928639	-3.107079
C	-0.510272	-1.219577	0.730832
H	-1.594737	-1.216501	0.879032
H	-0.218756	-2.107662	0.169042
H	-0.025958	-1.263515	1.705904
N	-0.414947	1.254329	0.650297
O	-0.919329	1.185067	1.774662
O	-0.160788	2.310347	0.069396
F	2.471448	0.0	0.0
