14

C	-0.063094	-0.049311	0.02211
C	-0.564421	-0.178685	-1.403284
F	1.30505	0.164706	0.058523
H	-1.662324	-0.048155	-1.377322
H	-0.578013	0.812953	0.448041
C	-0.376112	-1.24986	0.804857
N	-0.555517	-2.205431	1.461721
N	-0.205659	-1.464177	-2.059399
O	-1.000107	-1.888356	-2.894072
O	0.860368	-1.987336	-1.737846
N	0.023327	0.926203	-2.230892
O	0.464736	0.645076	-3.340273
O	-0.021793	2.040107	-1.726493
Cl	-3.242457	0.661645	-0.043536
