14

C	0.0	0.0	0.0
C	-0.529459	-0.348412	-1.405704
Br	1.948096	0.0	0.0
H	0.196799	0.01572	-2.143487
H	-0.33826	-0.731241	0.728551
C	-0.385432	1.418236	0.415392
H	0.099106	1.677622	1.359162
H	-0.059446	2.133229	-0.345847
H	-1.469897	1.42256	0.509402
C	-1.829099	0.293804	-1.763761
N	-2.436492	0.854263	-2.612604
C	-0.601606	-1.802485	-1.573138
N	-0.598762	-2.966901	-1.728333
F	-2.601875	0.0	0.0
