14

C	0.0	0.0	0.0
C	-0.569006	-0.074944	-1.443265
Br	1.948406	0.0	0.0
H	0.26913	-0.096581	-2.154657
H	-0.309428	-0.887534	0.542542
C	-0.401409	1.247645	0.779083
H	-0.027812	2.149181	0.286637
H	0.026043	1.200058	1.783825
H	-1.493386	1.217634	0.802164
C	-1.381961	1.092008	-1.806218
N	-1.825769	2.074097	-2.275057
C	-1.315519	-1.321419	-1.645001
N	-1.702314	-2.389521	-1.945964
F	-2.580567	0.0	0.0
