14

C	0.0	0.0	0.0
C	-0.568445	-0.038336	-1.445311
Br	1.948337	0.0	0.0
H	0.269812	-0.029221	-2.157546
H	-0.309941	-0.900474	0.520264
C	-0.402529	1.227982	0.809646
H	-0.030884	2.141752	0.339027
H	0.025541	1.156174	1.812462
H	-1.494661	1.193927	0.831142
C	-1.393562	1.131206	-1.771937
N	-1.839201	2.127057	-2.208413
C	-1.30529	-1.283996	-1.68313
N	-1.700243	-2.342091	-2.006156
F	-2.582063	0.0	0.0
