14

C	0.0	0.0	0.0
C	-0.567061	-0.210607	-1.430194
Br	1.948588	0.0	0.0
H	0.272379	-0.291345	-2.137172
H	-0.309871	-0.831719	0.624452
C	-0.40076	1.316867	0.655974
H	-0.024551	2.166847	0.081003
H	-1.492873	1.289787	0.680112
H	0.024838	1.364159	1.661634
C	-1.391251	0.911129	-1.899764
N	-1.844835	1.837728	-2.463143
C	-1.304724	-1.476307	-1.516576
N	-1.6946	-2.567326	-1.712896
F	-2.578945	0.0	0.0
