11

C	0.0	0.0	0.0
C	-0.48203	-0.210308	-1.429886
F	1.377397	0.0	0.0
H	-1.582726	-0.220092	-1.400117
H	-0.370745	-0.796138	0.648112
H	-0.136155	0.621741	-2.051208
C	-0.428362	1.29282	0.560084
N	-0.623568	2.335028	1.067233
C	0.043623	-1.460636	-1.971758
N	0.463962	-2.458783	-2.419644
Cl	-3.381094	0.0	0.0
