11

C	0.0	0.0	0.0
C	-0.255148	0.33652	-1.494655
F	1.380144	0.0	0.0
H	0.572676	-0.160581	-2.010483
H	-0.379728	-0.975486	0.283642
H	-0.080284	1.408971	-1.612854
C	-0.42921	1.052504	0.930992
N	-0.499736	1.95662	1.678116
C	-1.448797	0.002329	-2.272294
N	-2.131368	-0.168849	-3.216998
Cl	-3.030785	0.0	0.0
