11

C	0.0	0.0	0.0
C	-0.428837	0.170542	-1.454014
F	1.377682	0.0	0.0
H	-1.523702	0.180102	-1.490931
H	-0.384269	-0.937968	0.398854
H	-0.046659	-0.689642	-2.013613
C	-0.408228	1.128466	0.855181
N	-0.520336	2.081001	1.531638
C	0.151441	1.379012	-2.036291
N	0.638665	2.330654	-2.520506
Cl	-3.289625	0.0	0.0
