16

C	0.0	0.0	0.0
C	-0.542452	0.152249	-1.435255
Cl	1.791608	0.0	0.0
H	-1.634933	0.299123	-1.332492
C	-0.415019	1.119564	0.858448
N	-0.617427	1.949317	1.665317
N	-0.429329	-1.228223	0.616874
H	-0.038672	-2.016528	0.113569
H	-1.452577	-1.242079	0.596382
N	-0.334253	-1.097349	-2.237186
O	-1.332004	-1.585559	-2.757865
O	0.809873	-1.538035	-2.323138
N	0.056561	1.275151	-2.214475
O	0.261122	1.09589	-3.411931
O	0.248751	2.313968	-1.593141
Cl	-3.382795	0.0	0.0
