18

C	0.0	0.0	0.0
C	-0.239853	0.045695	-1.579289
Br	1.954908	0.0	0.0
H	0.491768	-0.672382	-1.963634
C	-0.277502	1.219052	0.888736
H	-0.019464	2.121384	0.333447
H	0.3292	1.15344	1.793892
H	-1.328503	1.259288	1.161338
N	-0.564433	-1.220268	0.569412
O	-0.597071	-1.304634	1.819948
O	-0.557667	-2.237729	-0.179176
N	-8.5e-05	1.413328	-2.037318
H	-0.136378	1.386911	-3.042769
H	0.968077	1.656125	-1.857355
N	-1.490502	-0.363103	-2.186994
H	-1.641546	-1.316636	-1.871042
H	-2.22354	0.186293	-1.748985
H	-2.040757	0.0	0.0
