18

C	0.0	0.0	0.0
C	-0.419064	-0.081286	-1.48668
Br	1.945957	0.0	0.0
H	-1.489075	-0.107948	-1.472621
C	-0.449378	1.203016	0.773257
H	-0.117365	1.055636	1.799988
H	-0.067918	2.13739	0.371668
H	-1.544071	1.18846	0.729742
N	-0.57053	-1.15879	0.715366
O	-1.849372	-1.304151	0.312092
O	-0.048465	-1.520175	1.796224
N	0.054519	-1.322132	-2.1095
H	-0.162156	-2.04653	-1.440168
H	1.06201	-1.270974	-2.210007
N	-0.009208	1.133291	-2.17719
H	1.007276	1.17295	-2.198799
H	-0.350045	1.092874	-3.132832
H	-3.117361	0.0	0.0
