18

C	0.0	0.0	0.0
C	-0.244798	-0.043112	-1.552772
Br	1.958308	0.0	0.0
H	0.489354	-0.767733	-1.924748
C	-0.266027	1.257775	0.847723
H	-0.190114	2.129379	0.195608
H	0.48089	1.32807	1.643314
H	-1.255597	1.234545	1.292793
N	-0.426693	-1.224848	0.670978
O	-0.508118	-1.195246	1.916415
O	-0.358701	-2.277386	0.011331
N	0.014017	1.319149	-2.067659
H	0.959033	1.585839	-1.804027
H	0.003962	1.250972	-3.080889
N	-1.510508	-0.536109	-2.056699
H	-1.397719	-0.677955	-3.060025
H	-2.224831	0.15932	-1.88694
H	-1.871454	0.0	0.0
