16

C	0.0	0.0	0.0
C	-0.39914	-0.175346	-1.487247
F	1.372435	0.0	0.0
H	0.339599	0.390408	-2.059763
N	-0.506586	1.23627	0.472445
H	-1.40185	1.430645	0.031925
H	-0.627516	1.226843	1.476385
C	-0.379347	-1.159889	0.847273
N	-0.614226	-2.032612	1.59793
N	-1.702417	0.224089	-1.759911
H	-2.4655	-0.132434	-1.165624
H	-1.951728	0.170261	-2.735311
N	-0.044229	-1.637628	-1.871557
O	-0.929826	-2.480558	-1.775563
O	1.104628	-1.84075	-2.266179
Cl	-4.232796	0.0	0.0
