16

C	0.0	0.0	0.0
C	-0.462247	0.053122	-1.469059
F	1.41458	0.0	0.0
H	-1.550304	0.161704	-1.473554
N	-0.469291	1.110633	0.737353
H	-0.290006	0.967766	1.723702
H	-1.484426	1.149278	0.603179
C	-0.324286	-1.344597	0.554733
N	-0.482015	-2.408942	1.027843
N	-0.048648	-1.053943	-2.274695
H	0.897549	-1.333633	-2.046885
H	-0.686665	-1.826333	-2.130597
N	0.116255	1.316284	-2.058911
O	1.246863	1.242419	-2.536462
O	-0.577751	2.329082	-2.017146
Cl	-3.46054	0.0	0.0
