16

C	0.0	0.0	0.0
C	-0.45035	-0.040751	-1.457861
F	1.412116	0.0	0.0
H	-1.543098	0.020205	-1.468338
N	-0.471765	1.15118	0.671805
H	-1.431405	1.327184	0.360594
H	-0.511873	0.974887	1.669926
C	-0.316802	-1.282312	0.671738
N	-0.457076	-2.253042	1.318217
N	0.037186	-1.199287	-2.103891
H	1.040069	-1.133412	-2.224908
H	-0.406969	-1.324693	-3.002328
N	0.072118	1.257898	-2.113256
O	1.108187	1.174169	-2.776516
O	-0.576917	2.28119	-1.944381
Cl	-3.487665	0.0	0.0
