16

C	0.0	0.0	0.0
C	-0.400504	0.028873	-1.490016
F	1.405636	0.0	0.0
H	-1.442138	-0.283141	-1.578128
N	-0.440768	1.100514	0.750407
H	0.135184	1.899874	0.531124
H	-0.473654	0.926425	1.742327
C	-0.377638	-1.284459	0.584986
N	-0.674867	-2.33977	1.009028
N	0.500913	-0.700887	-2.33344
H	1.410651	-0.780581	-1.89833
H	0.147776	-1.616575	-2.567546
N	-0.407796	1.455314	-1.977622
O	-1.334113	1.786747	-2.703536
O	0.559293	2.163342	-1.677039
Cl	-3.403995	0.0	0.0
