16

C	0.0	0.0	0.0
C	-0.401381	0.150468	-1.498694
F	1.406558	0.0	0.0
H	0.441126	0.656923	-1.980003
N	-0.502612	1.080452	0.754117
H	-0.838743	0.791523	1.661128
H	-1.245046	1.548977	0.247298
C	-0.368146	-1.312941	0.577868
N	-0.633865	-2.321707	1.117167
N	-1.600721	0.843203	-1.680791
H	-1.807652	1.001976	-2.655757
H	-2.421998	0.423348	-1.211712
N	-0.347641	-1.25169	-2.17064
O	-1.295317	-1.571644	-2.879683
O	0.677367	-1.908394	-2.001453
Cl	-4.082666	0.0	0.0
