16

C	0.0	0.0	0.0
C	-0.469545	0.154118	-1.466705
F	1.406691	0.0	0.0
H	0.367001	0.614589	-2.00318
N	-0.538551	1.0325	0.763097
H	-0.740052	1.886367	0.270952
H	-0.197336	1.109698	1.705782
C	-0.338994	-1.299569	0.633322
N	-0.53231	-2.314503	1.190508
N	-1.643074	0.907971	-1.582643
H	-1.932171	0.978861	-2.548643
H	-2.44239	0.552672	-1.024127
N	-0.51092	-1.244344	-2.147649
O	-1.415535	-1.434941	-2.952713
O	0.42306	-2.009292	-1.917923
Cl	-4.281479	0.0	0.0
