16

C	0.0	0.0	0.0
C	-0.522037	-0.032011	-1.431389
F	1.404116	0.0	0.0
H	-1.619069	-0.076734	-1.336653
N	-0.511167	1.091498	0.722023
H	-0.77542	0.901154	1.67201
H	0.013816	1.936173	0.576686
C	-0.38598	-1.271733	0.648836
N	-0.673847	-2.284414	1.166146
N	0.000831	-1.135776	-2.161582
H	-0.49895	-1.254005	-3.03113
H	0.992143	-1.029979	-2.334789
N	-0.233976	1.287947	-2.148703
O	0.43991	2.16659	-1.61033
O	-0.675467	1.355337	-3.293389
Cl	-3.646799	0.0	0.0
