13

C	-0.334031	0.013941	-1.480067
C	0.0	0.0	0.0
Br	-2.255646	0.107367	-1.867512
H	1.098646	0.0	0.0
H	0.116474	0.890136	-1.945148
H	0.030781	-0.885858	-1.972281
C	-0.487959	-1.216552	0.643152
N	-0.895174	-2.184168	1.170759
C	-0.461823	1.246446	0.751746
H	-1.550985	1.319724	0.788799
H	-0.067766	1.226779	1.769311
H	-0.059023	2.132514	0.254231
Br	3.477245	0.0	0.0
