13

C	-0.499686	0.0729	-1.435948
C	0.0	0.0	0.0
Br	-0.081415	-1.509817	-2.486828
H	1.095178	0.0	0.0
H	-0.012745	0.909958	-1.936694
H	-1.584533	0.188117	-1.477529
C	-0.521135	-1.177113	0.68801
N	-0.993824	-2.103064	1.235044
C	-0.423865	1.273157	0.746818
H	-1.512213	1.38112	0.787804
H	0.008412	2.143515	0.247602
H	-0.031708	1.24831	1.764785
Br	3.517122	0.0	0.0
