13

C	-0.331661	0.014264	-1.480416
C	0.0	0.0	0.0
Br	-2.252546	0.108805	-1.870401
H	1.098637	0.0	0.0
H	0.120017	0.889913	-1.944382
H	0.033522	-0.885625	-1.972001
C	-0.489104	-1.215871	0.642229
N	-0.901946	-2.181743	1.168271
C	-0.461398	1.246254	0.752174
H	-1.550374	1.320868	0.786907
H	-0.069856	1.225072	1.77068
H	-0.056189	2.132071	0.256803
Br	3.475939	0.0	0.0
