13

C	-0.501515	-0.0744	-1.442725
C	0.0	0.0	0.0
Br	-0.110826	1.53435	-2.470101
H	1.095631	0.0	0.0
H	-0.007725	-0.892275	-1.965545
H	-1.584635	-0.202647	-1.485306
C	-0.458242	-1.234339	0.642806
N	-0.885366	-2.207161	1.145592
C	-0.501977	1.211307	0.785073
H	-0.175444	1.13511	1.823548
H	-1.594201	1.283056	0.760345
H	-0.07369	2.119919	0.362784
Br	3.511491	0.0	0.0
