13

C	-0.333094	0.01533	-1.47976
C	0.0	0.0	0.0
Br	-2.253731	0.102774	-1.869499
H	1.098635	0.0	0.0
H	0.033446	-0.882968	-1.972815
H	0.116215	0.892294	-1.942645
C	-0.489386	-1.216494	0.640868
N	-0.900764	-2.183585	1.165932
C	-0.46321	1.246303	0.750799
H	-0.071484	1.225838	1.769316
H	-0.059084	2.132286	0.254678
H	-1.552339	1.319834	0.785418
Br	3.479327	0.0	0.0
