15
Coordinates from ORCA-job run
  C   -0.83235805172632      0.26692592525738      0.22483864271987
  C   0.69816694120878      0.25241903134626      0.14989479662915
  Br  -1.35634154411063      1.53738455670568      1.60547665444816
  H   1.03598318623722      1.24160616292268     -0.18160746738070
  C   -1.39075518211687     -1.03538213826735      0.53091891574323
  N   -1.83511804101157     -2.08826749943684      0.80692971075566
  N   -1.43670269647166      0.81691083961334     -1.07746816226769
  O   -2.50709887193058      0.34936191271620     -1.42461221279126
  O   -0.79985999451561      1.71130544573406     -1.61352958485921
  N   1.12634051193748     -0.69396859160282     -0.95640785834517
  O   2.31893314097496     -0.97049544631873     -0.98261656224944
  O   0.27126520590436     -1.07302799701951     -1.74957547611823
  N   1.25788569532440     -0.25859509166968      1.37005001820623
  H   1.22371184017810      0.44840546433279      2.09303252243320
  H   2.22694786011796     -0.50458257431346      1.20367606307620
