15
Coordinates from ORCA-job run
  C   -0.70139972008527      0.57145991740494      0.14376026409157
  C   0.76380896521995      0.11580892504439      0.33345556587952
  Br  -0.79956107682193      2.46089214680078     -0.23754880438417
  H   1.19690708819867      0.69999267532425      1.14332688112917
  C   -1.41501838281415      0.31288717368696      1.37951689166910
  N   -1.94504110515482      0.03286466834436      2.39558521757375
  N   -1.44940448150889     -0.24647490310197     -0.97777034988942
  O   -1.85988129659691      0.37645037110287     -1.93450806512542
  O   -1.49766704353872     -1.46375575215387     -0.76478178609819
  N   1.54489826132672      0.53750022999698     -0.91306020736132
  O   1.04148743366022      0.17175501905453     -1.95702926151131
  O   2.59026106833672      1.09089057906809     -0.70902674223638
  N   1.01067395199633     -1.26333356052292      0.52100891458735
  H   1.21829811546059     -1.52532654543378      1.48417214499150
  H   0.30263822232150     -1.87261094461562      0.09389933668425
