15
Coordinates from ORCA-job run
  C   -0.80326544599441      0.42223086616279      0.25133663251413
  C   0.72130566388912      0.27609697705876      0.17722821653383
  Br  -1.22850656683622      1.88548392793025      1.44903240009279
  H   1.16083142574453      1.23793497551011     -0.08372055707363
  C   -1.45374943891477     -0.78765153758716      0.72065491312486
  N   -1.91034849071698     -1.77006965574565      1.17820888676630
  N   -1.35709375857600      0.82562590683493     -1.11937959760143
  O   -2.47781936839716      0.43433465968978     -1.39801989825732
  O   -0.62777082633599      1.55027580697879     -1.78098140109071
  N   1.07120391917723     -0.63421842914294     -1.00711558230848
  O   2.25485280639776     -0.63006835732252     -1.32288141989670
  O   0.18205468605090     -1.32895423770525     -1.49400599631025
  N   1.24526106381886     -0.20607346554355      1.39918009609265
  H   0.97306616675232     -1.16182384359681      1.59561783000500
  H   2.25097816394083     -0.11312359352153      1.43284547740898
