15
Coordinates from ORCA-job run
  C   -0.78568088841246      0.32426458486273      0.30434338078997
  C   0.72547881933124      0.20010457092280      0.08234314803477
  Br  -1.07981058614746      1.61805262573818      1.73070962545666
  H   1.10228004105355      1.16682705753140     -0.27237845685504
  C   -1.40577126995073     -0.93641573478425      0.66177126945324
  N   -1.89455278209346     -1.95635963038441      0.98263662166879
  N   -1.47008491380663      0.92710717034214     -0.93314682901497
  O   -0.82262045822749      1.77543992448940     -1.52811281628485
  O   -2.60105482265281      0.54322627902586     -1.17462181482468
  N   0.97717063268844     -0.75973958069867     -1.06468151520115
  O   2.14120474292803     -1.11030104022403     -1.21267948344332
  O   0.02368772163072     -1.07919661872151     -1.76686030233801
  N   1.35975245020947     -0.36729395002784      1.23965576411633
  H   2.29024123622835     -0.67447431352699      0.98062668497187
  H   1.44076007722123      0.32775865545519      1.97039472347039
