15
Coordinates from ORCA-job run
  C   -0.71775292969298      0.40325811870500      0.26227197760856
  C   0.80086629975491      0.13076342356387      0.15661281941757
  Br  -0.98065706117638      1.69185525723536      1.69518644623601
  H   1.31893519387736      1.08387909999026      0.06457682992726
  C   -1.48696460944018     -0.78965017462577      0.56673301477831
  N   -2.04063833589723     -1.76426787598379      0.92224898819081
  N   -1.23976140828230      1.06773304399214     -1.01264068116359
  O   -2.39738354740484      0.83900111324143     -1.32230672226179
  O   -0.44217676609296      1.80696594692977     -1.57288201418487
  N   1.05406773889190     -0.58337375336362     -1.16370301890450
  O   2.18733900465310     -0.49879087903686     -1.60761340564894
  O   0.11247796063490     -1.20922592150491     -1.64916811686866
  N   1.36099494766481     -0.65058779581156      1.19374698815738
  H   1.68914962129292     -0.10466917659454      1.97387047213417
  H   0.78150389121698     -1.42289042673676      1.49406642258227
