15
Coordinates from ORCA-job run
  C   -0.68288873574265      0.51957891881308     -0.14159884299757
  C   0.51154171020684     -0.38129110353673      0.23331515212955
  Br  -0.32830732273591      1.53146986568276     -1.73837238210475
  H   0.28219993839183     -0.83936099288429      1.19718372570267
  C   -1.11559696818976      1.41175802472742      0.91995852309933
  N   -1.51869724619088      2.13535529001215      1.75534860219628
  N   -1.84568888134212     -0.49562181939941     -0.37226908416080
  O   -2.31837857734328     -0.61129040210721     -1.48325073637945
  O   -2.14324323185632     -1.10234724799646      0.64648151633020
  N   1.71359440102222      0.53443317755308      0.51534463925094
  O   2.63786665971701      0.50629177164961     -0.28872664459309
  O   1.64206458467146      1.21245026629603      1.53501774759680
  N   0.72442652565849     -1.35543714763875     -0.75851100660443
  H   1.12984448898520     -0.95950201048941     -1.59717881534576
  H   1.31126265474786     -2.10648659068187     -0.42274239411990
