15
Coordinates from ORCA-job run
  C   -0.77602108471266      0.36531549549140      0.28463237754077
  C   0.73134391490872      0.17814178472304      0.07810909291787
  Br  -1.03175848961038      1.72633246687653      1.65420751980104
  H   1.14038645296806      1.11030078976670     -0.32979977278513
  C   -1.44083821607588     -0.85758866498532      0.68946921492610
  N   -1.96535451773837     -1.84836874187650      1.04368363883834
  N   -1.43390252505015      0.94003623607635     -0.98068684088896
  O   -2.57331669890112      0.57892655061657     -1.21766026435031
  O   -0.75854716324619      1.74721951940683     -1.60120927165136
  N   0.95106446031842     -0.85151107322634     -1.01526180740836
  O   -0.00397035871830     -1.13995576835158     -1.72847320991194
  O   2.09342215058031     -1.28004275438357     -1.11894232379347
  N   1.34297212921943     -0.34189356091660      1.26861303677390
  H   2.25011940612224     -0.72373001414998      1.02695724844089
  H   1.47340053993587      0.39681773493246      1.94736136155061
