16
Coordinates from ORCA-job run
  C   -0.56168134899140     -0.51120432690632     -0.28931093089600
  C   0.62557177789913      0.45892344117306     -0.25090203942712
  F   -0.56687570654311     -1.10988824417784     -1.55509153955128
  H   0.37197175744249      1.26755109614026     -0.95425822823051
  C   -1.89414172968991      0.17473712869846     -0.08334831122678
  H   -1.91549142995064      0.65486050349803      0.89318798649400
  H   -2.02830725863648      0.92946758853772     -0.86118829664279
  H   -2.70045661038303     -0.55617500770161     -0.15746426545881
  C   -0.35473666574254     -1.57584221160113      0.70824271035778
  N   -0.22170888450612     -2.39584939705610      1.53737327854457
  N   1.82669769633790     -0.28098560479503     -0.60698350151761
  H   2.60873933353353      0.35786089032212     -0.68918509484441
  H   1.70342346074462     -0.74417028216078     -1.49972850680296
  N   0.69957038741437      1.03364560179672      1.07346068249821
  H   1.20687809558758      1.90861712886577      1.05825587827411
  H   1.19954712548361      0.38745169536668      1.67594017842958
