16
Coordinates from ORCA-job run
  C   -0.53062974571489     -0.56694652438084      0.11714222928707
  C   0.59968587216634      0.47515585886037      0.01817987835284
  F   -0.02522156156873     -1.78901210269535     -0.30850553457558
  H   0.13419660026130      1.45816677755959      0.19210804348062
  C   -1.72167797514973     -0.21601738210383     -0.75043222318097
  H   -2.45144862839999     -1.02588812256767     -0.71162279401936
  H   -1.36871634048040     -0.08064751826324     -1.77163585526226
  H   -2.19524855208677      0.70413825307836     -0.40267241589973
  C   -0.94050968164036     -0.71516308522593      1.52650924242226
  N   -1.26874217620688     -0.77563327901707      2.65225225826873
  N   1.08359074902046      0.46002377651801     -1.34272220020265
  H   1.66886116392491     -0.35916232331775     -1.46078749761975
  H   1.63715389189072      1.28520178831966     -1.53256483163422
  N   1.64785239263785      0.14044090559292      0.97547656924940
  H   1.31685373415745      0.21364533052150      1.93174936909793
  H   2.41600025718871      0.79169764712126      0.86552576223568
