16
Coordinates from ORCA-job run
  C   -0.54054095660410     -0.52586357885200     -0.30117924202155
  C   0.61603827001622      0.47925225103731     -0.23728803901630
  F   -0.50608445617155     -1.11680151027915     -1.57031968516305
  H   0.35003784277999      1.28334520792868     -0.94125599767635
  C   -1.89652036100152      0.11850663284164     -0.11456512486626
  H   -1.94812609552828      0.59321064171630      0.86352771434461
  H   -2.67889137064231     -0.63624815453280     -0.20486654014039
  H   -2.04075877868002      0.87238218525279     -0.89145053809711
  C   -0.31980278360117     -1.59020975117511      0.69354342695095
  N   -0.17889596482890     -2.41207951076938      1.51957306984074
  N   1.84503971134507     -0.22212869200063     -0.57594971682030
  H   1.75027983634389     -0.68565871502911     -1.47200496913649
  H   2.60802185485724      0.44103646418474     -0.64404705811693
  N   0.64962396682368      1.04914519978694      1.09080445260761
  H   1.15777084579551      0.41472153177928      1.69893320051759
  H   1.13180843909625      1.93838979811049      1.08854504679324
