12

C	0.0	0.0	0.0
C	-0.388788	-0.031914	-1.46139
F	1.401005	0.0	0.0
H	-1.446587	-0.004046	-1.635877
H	-0.383937	0.896674	0.481674
H	0.095045	0.831347	-1.977904
H	0.040238	-0.948866	-1.919882
C	-0.388792	-1.2361	0.780198
H	0.040303	-2.124595	0.268787
H	0.094981	-1.19018	1.785161
H	-1.446588	-1.366242	0.899684
Br	-4.052608	0.0	0.0
