16
Coordinates from ORCA-job run
  C   0.63362020094551      0.00609339132409      0.65003811646252
  C   -0.86285714077339      0.12518867830174      0.29518654202555
  F   0.67830902251540     -0.60485444215946      1.89215930295438
  H   -1.41952375853161      0.42364701013306      1.18465950271871
  C   1.50869449845337     -0.76714166973880     -0.31538856481127
  H   1.49438469649717     -0.30745854961395     -1.30197929548423
  H   1.16494766961234     -1.79793690568107     -0.37571432474376
  H   2.52744819936605     -0.75794390116997      0.07424908804941
  C   1.13614171114772      1.38330227918425      0.82021525725502
  N   1.55015923568247      2.47510864266173      0.95006176046116
  N   -1.48440801824726     -1.16395578966116     -0.18618888540878
  O   -2.38933679181675     -1.06085770014357     -1.00350220764077
  O   -1.07976599998391     -2.18726388049536      0.34855812335888
  N   -1.09761183008858      1.16024455215658     -0.75580421244318
  O   -0.52642745989873      0.98261125384145     -1.82680565376262
  O   -1.83277423487982      2.09221703106043     -0.44974454899101
