16
Coordinates from ORCA-job run
  C   0.63278322705105     -0.21198676938875      0.43610468508399
  C   -0.72023245027548      0.27411143824152     -0.09085491436304
  F   0.57663994393872     -1.56969012416541      0.65216804448940
  H   -0.72509979653093      1.35402954910283     -0.24048709021902
  C   1.74771793282525      0.06822403247164     -0.55930761469284
  H   2.69408441992322     -0.22939097858386     -0.10700927723792
  H   1.79263350796322      1.12629156381668     -0.82090406176452
  H   1.59078820746103     -0.52049092809118     -1.46334646065830
  C   0.90783363627140      0.48296672456495      1.70548238680761
  N   1.19307373837217      1.09099643158906      2.66876713363715
  N   -1.88657897396948     -0.04739938205292      0.80640152542607
  O   -1.66075608560206     -0.56245627470086      1.89323375146064
  O   -2.97356791677921      0.27789663829969      0.34474390290147
  N   -1.00407954478422     -0.35782875852764     -1.42050216253711
  O   -1.44839036290353     -1.49839501108051     -1.40615183853021
  O   -0.71684948296114      0.32312184850475     -2.40033800980338
