16
Coordinates from ORCA-job run
  C   0.65077080401738     -0.11455720841313      0.60014827028456
  C   -0.84179613488725      0.16448243834546      0.33558752069731
  F   0.66688650100915     -1.10900270328881      1.56501455214650
  H   -1.30289596476334      0.67424024296965      1.17979313492792
  C   1.46887656146482     -0.54363796541880     -0.60119425934626
  H   1.53066028740858      0.26275797737931     -1.33385508643028
  H   1.03059591497815     -1.42631343406173     -1.05882618992409
  H   2.47774726543411     -0.77170366893226     -0.25423937479049
  C   1.23189002650916      1.09777620509625      1.20322071716710
  N   1.72281658750831      2.04605988445401      1.69250628962490
  N   -1.65337507390672     -1.07491025663117      0.10258373069735
  O   -2.82415966079427     -0.97984725399344      0.46009147863168
  O   -1.12265227080210     -2.03778984371176     -0.43440956300703
  N   -0.99225828312003      1.05221919681330     -0.86665646297279
  O   -0.79986244159821      2.24338866407582     -0.65054521420236
  O   -1.24224411845773      0.51683772531731     -1.93921954350404
