16

C	0.0	0.0	0.0
C	-0.520523	0.141145	-1.447535
Cl	1.786529	0.0	0.0
H	-1.613117	0.237426	-1.329267
C	-0.346776	1.21753	0.771922
N	-0.577494	2.16944	1.42199
N	-0.514381	-1.212648	0.563865
H	-0.254464	-1.26124	1.543465
H	-1.539295	-1.120563	0.513737
C	-0.205026	-1.081546	-2.308543
H	-0.614583	-1.971741	-1.834068
H	0.872216	-1.206669	-2.436095
H	-0.664548	-0.956573	-3.291629
C	-0.00904	1.360373	-2.067408
N	0.406908	2.312319	-2.616529
Cl	-3.508122	0.0	0.0
