16

C	0.0	0.0	0.0
C	-0.518349	0.17091	-1.44424
Cl	1.786568	0.0	0.0
H	-1.607328	0.289521	-1.321407
C	-0.346291	1.205629	0.790907
N	-0.564869	2.148201	1.458791
N	-0.517138	-1.221163	0.540437
H	-0.267042	-1.281211	1.522258
H	-1.542537	-1.129553	0.484409
C	-0.232679	-1.046675	-2.322795
H	-0.682699	-1.929701	-1.872885
H	0.841389	-1.208772	-2.433609
H	-0.670383	-0.887149	-3.31055
C	0.019278	1.386876	-2.048738
N	0.460823	2.335114	-2.583446
Cl	-3.505914	0.0	0.0
