16

C	0.0	0.0	0.0
C	-0.353331	-0.311515	-1.509323
Cl	1.787545	0.0	0.0
H	0.548146	-0.067719	-2.07525
C	-0.341795	1.408809	0.298387
N	-0.560891	2.531516	0.569858
N	-0.583681	-0.94863	0.887477
H	-1.596691	-0.94966	0.705737
H	-0.447901	-0.651225	1.847931
C	-1.490087	0.493344	-2.14457
H	-1.59994	0.167186	-3.182285
H	-1.22439	1.55283	-2.143982
H	-2.432183	0.359313	-1.614315
C	-0.533327	-1.755626	-1.680092
N	-0.64596	-2.898807	-1.923134
Cl	-3.937082	0.0	0.0
