16

C	0.0	0.0	0.0
C	-0.392231	0.05328	-1.546824
Cl	1.797183	0.0	0.0
H	0.542035	-0.058537	-2.10353
C	-0.378019	1.253683	0.670614
N	-0.592063	2.281619	1.196689
N	-0.482708	-1.103119	0.769466
H	-0.263512	-1.96758	0.284299
H	-1.507549	-0.999452	0.784875
C	-1.036298	1.36171	-2.008094
H	-0.354172	2.193286	-1.813754
H	-1.979373	1.51718	-1.486628
H	-1.219287	1.309405	-3.085188
C	-1.17194	-1.128758	-1.923662
N	-1.65558	-2.104979	-2.362834
Cl	-3.412474	0.0	0.0
