16

C	0.0	0.0	0.0
C	-0.499112	0.206075	-1.458648
Cl	1.792133	0.0	0.0
H	-1.579472	0.385592	-1.333226
C	-0.368384	1.188756	0.793206
N	-0.57071	2.147538	1.440489
N	-0.497245	-1.167365	0.663284
H	-0.261415	-1.987475	0.116822
H	-1.520412	-1.062793	0.682846
C	-0.306693	-1.030949	-2.334263
H	0.735605	-1.360441	-2.340592
H	-0.9516	-1.83514	-1.977214
H	-0.604023	-0.802532	-3.35927
C	0.113366	1.379469	-2.074156
N	0.610088	2.299482	-2.610542
Cl	-3.473808	0.0	0.0
