16

C	0.0	0.0	0.0
C	-0.512307	-0.205878	-1.43547
Cl	1.83575	0.0	0.0
H	-1.599947	-0.041685	-1.347656
C	-0.312562	1.371333	0.459855
N	-0.500652	2.466724	0.844638
N	-0.505721	-1.038733	0.839211
H	-0.256267	-0.845202	1.803157
H	-1.532248	-0.977131	0.758795
C	-0.253542	-1.616405	-1.962958
H	0.81601	-1.836003	-1.984161
H	-0.755313	-2.339938	-1.323888
H	-0.652843	-1.698197	-2.976285
C	0.048519	0.795073	-2.339334
N	0.52826	1.526679	-3.123404
Cl	-3.495948	0.0	0.0
