16

C	0.0	0.0	0.0
C	-0.32043	-0.730739	-1.359778
Cl	1.799398	0.0	0.0
H	0.40081	-0.354857	-2.092384
C	-0.388499	1.411756	-0.133417
N	-0.627464	2.553205	-0.271989
N	-0.569082	-0.539421	1.186654
H	-0.473106	-1.549561	1.195845
H	-1.563177	-0.305494	1.201902
C	-1.730808	-0.519377	-1.900287
H	-1.870024	0.531679	-2.161261
H	-2.515927	-0.765622	-1.184987
H	-1.859555	-1.123095	-2.802701
C	-0.030601	-2.152672	-1.168233
N	0.186795	-3.296217	-1.00818
Cl	-4.35808	0.0	0.0
