16

C	0.0	0.0	0.0
C	-0.35487	0.348359	-1.517404
Cl	1.846593	0.0	0.0
H	0.596526	0.455879	-2.04404
C	-0.355928	1.125422	0.873723
N	-0.537039	2.060921	1.560449
N	-0.490792	-1.210216	0.558105
H	-1.512039	-1.086067	0.624453
H	-0.314364	-1.973989	-0.087256
C	-1.131193	1.649707	-1.74037
H	-1.297548	1.780778	-2.812907
H	-2.088343	1.611017	-1.224127
H	-0.536218	2.491815	-1.378648
C	-0.983168	-0.813575	-2.143891
N	-1.344113	-1.775508	-2.713403
Cl	-3.4353	0.0	0.0
