16

C	0.0	0.0	0.0
C	-0.515874	-0.338729	-1.415096
Cl	1.7943	0.0	0.0
H	-1.603795	-0.173018	-1.347519
C	-0.340882	1.405583	0.328028
N	-0.546461	2.516981	0.651973
N	-0.517184	-0.95601	0.930979
H	-1.542696	-0.888581	0.846843
H	-0.268311	-0.67025	1.872501
C	-0.250522	-1.7911	-1.807895
H	-0.655543	-1.973591	-2.805484
H	0.819427	-2.00854	-1.815667
H	-0.744285	-2.45106	-1.097898
C	0.03605	0.584157	-2.403881
N	0.472949	1.286425	-3.238472
Cl	-3.50076	0.0	0.0
