16

C	0.0	0.0	0.0
C	-0.264732	0.180823	-1.546337
Cl	1.841155	0.0	0.0
H	0.449143	0.933272	-1.893792
C	-0.375911	1.242452	0.685695
N	-0.61112	2.270853	1.202253
N	-0.579031	-1.116903	0.647275
H	-1.577701	-0.93195	0.784999
H	-0.472071	-1.95102	0.079932
C	-1.670216	0.609776	-1.948776
H	-2.435826	-0.09705	-1.639409
H	-1.6951	0.734454	-3.035254
H	-1.926214	1.558477	-1.476205
C	0.092496	-1.08207	-2.19687
N	0.342883	-2.104747	-2.718048
Cl	-4.153342	0.0	0.0
