18
Coordinates from ORCA-job run
  C   -0.50028885518622     -0.41184218644133      0.43795630675841
  C   0.57341564983033      0.36755780838976     -0.34116418041065
  Cl  -0.29992363577649     -2.17848911927396      0.17255168804100
  H   0.49798903519726      1.39576524272567      0.05860313375239
  N   -0.27368366272051     -0.18185371403704      1.85794059137960
  H   -0.89864269438610     -0.76955215977215      2.39875406723002
  H   -0.50036312966736      0.78535046113025      2.06906395122852
  C   -1.90233897707577     -0.04970520442096     -0.03270015789316
  H   -2.05679559437511      1.02970605992511      0.08329592293800
  H   -2.04676612067823     -0.32538756580789     -1.07704026264295
  H   -2.64688390563365     -0.57048347564449      0.57307762482700
  N   0.29633308580171      0.31847582753743     -1.77355608988874
  H   -0.35714895289419      1.04381404369897     -2.04076047638330
  H   1.15159455422104      0.47616284347034     -2.29129911942617
  C   1.98052352400474     -0.13817353539475     -0.06975723672865
  H   2.14489183795689     -1.07560885445949     -0.60376120889378
  H   2.71411370071956      0.59473559029155     -0.41793187831988
  H   2.12597414066210     -0.30847206191700      0.99572732443232
