18
Coordinates from ORCA-job run
  C   -0.78931626331802     -0.27535773442561      0.00873131561550
  C   0.57996001773168     -0.01034008329924     -0.63938899174116
  Cl  -2.06462490566562      0.49967470713884     -1.09158113596514
  H   0.52138705157262     -0.45219262614687     -1.65029499049871
  N   -0.98406698523709     -1.68873249063362      0.07602002911496
  H   -1.84607042497208     -1.91379638257742      0.55781215078183
  H   -1.02912131556267     -2.08574153998282     -0.85596188898982
  C   -0.95100892179378      0.34354579025987      1.38105558550241
  H   -0.89797021320498      1.42979396294891      1.32878487750948
  H   -1.92429526261328      0.07583553417548      1.79953639308583
  H   -0.15595726487556     -0.02905591199116      2.02697413414094
  N   1.58033096697526     -0.64984375370309      0.21231925471660
  H   1.37303209956020     -1.63756247061776      0.29259653082856
  H   2.49851251769852     -0.54052416215764     -0.20136801293178
  C   0.94000923799653      1.45966293281685     -0.78329362979146
  H   1.07418197701660      1.91173064981651      0.20065384992927
  H   1.88841941626303      1.54953832901694     -1.32092855562733
  H   0.18559827242865      2.01236524936183     -1.34166691567998
