18
Coordinates from ORCA-job run
  C   -0.76035634474743     -0.40916241666975      0.03099396033120
  C   0.34994832823149      0.17800372880262     -0.85563214387108
  Cl  -1.92426289010334     -1.27401786530227     -1.03367133499216
  H   -0.14248679813007      0.82020616363566     -1.59584159318233
  N   -0.17249525958691     -1.40959210878863      0.92266397733126
  H   -0.87426458974856     -2.09178509335602      1.18271770968644
  H   0.13839323092776     -0.95209259426836      1.77310954115867
  C   -1.55423830544006      0.66295412432603      0.76574511887385
  H   -1.93242808362562      1.41792524758093      0.07274262272534
  H   -0.92874577058529      1.15487086435907      1.51465316426953
  H   -2.40384750937127      0.20612946325917      1.27638870239654
  N   1.00127822454357     -0.90981768300279     -1.56892499076744
  H   1.82229175082229     -0.56144342074401     -2.04847702564515
  H   1.29244976409196     -1.59975011448126     -0.88477005727264
  C   1.32230794215161      1.03156643110215     -0.03245323992787
  H   1.80143806935418      0.43031854209266      0.74556000711624
  H   2.11394682105890      1.39980493491544     -0.69048614447257
  H   0.85207142015678      1.90488179653935      0.42568172624219
