18
Coordinates from ORCA-job run
  C   -0.73819627253645     -0.33794200196505      0.16540046745494
  C   0.41975139895304      0.14506291435107     -0.71894038821854
  Cl  -1.91645562461357     -1.21025622399042     -1.04089411048255
  H   -0.02951649783379      0.73286338699346     -1.53215868213954
  N   -0.25295403823545     -1.21280863399356      1.15005700012759
  H   -0.99016727980084     -1.65094814311178      1.68489050802754
  H   0.36495273065561     -1.89977854654165      0.73391402567270
  C   -1.57199048865964      0.77746346190479      0.76023751022785
  H   -0.98947405545794      1.30175328753712      1.51928675769688
  H   -1.89089140057589      1.47846161439754     -0.01264830141999
  H   -2.46589550088975      0.36669402675987      1.23374590785804
  N   1.14161211345745     -1.03095023107016     -1.20490769463840
  H   0.59961342044707     -1.48992402052984     -1.92744755106421
  H   2.02508761736659     -0.74789375209785     -1.60997964085511
  C   1.38629034680046      1.02755617155928      0.06048760726047
  H   0.90335922935793      1.93826675382068      0.41598314682556
  H   1.79095347200254      0.48175014353071      0.91319629025088
  H   2.21292082956262      1.33062979244578     -0.58922285258408
