18
Coordinates from ORCA-job run
  C   -0.87843516094560     -0.28935829445004     -0.07254598125067
  C   0.49537284137276     -0.03787293045410     -0.72445211183596
  Cl  -2.13962029134902      0.52531990706019     -1.09079273993752
  H   0.40442871656687     -0.45426362103072     -1.73246845701728
  N   -1.12476592886928     -1.70642114842015     -0.14554401842707
  H   -0.30205434681062     -2.16696790514382      0.23014914950372
  H   -1.93882901053342     -1.95535526231437      0.40382402851097
  C   -0.99381408419087      0.29755300701336      1.32805016041962
  H   -1.97539123748430      0.05976061610128      1.74420391539922
  H   -0.23244104515383     -0.15577264448492      1.96937045532231
  H   -0.88148510419872      1.38281317888187      1.33824607808724
  N   1.48050529924201     -0.85392076980478      0.00206979121370
  H   1.93751879440673     -0.29380759601690      0.71258916730826
  H   2.19891404597863     -1.17385374282175     -0.63465361807506
  C   0.89886542177404      1.42895707185978     -0.81527413728302
  H   0.14900593982632      2.03366674924251     -1.32560023541733
  H   1.83835270073632      1.51062371897311     -1.36777306116122
  H   1.06287244963196      1.85089966580945      0.18060161464005
