18
Coordinates from ORCA-job run
  C   -0.83633746951786     -0.27509831960008     -0.10656807560536
  C   0.55063231069321      0.00331751378538     -0.70940525204385
  Cl  -2.07243729081810      0.38944908336236     -1.23884018871250
  H   0.48028807926762     -0.30464513257827     -1.76082640731431
  N   -1.01568762279282     -1.72130506199922     -0.10077088637847
  H   -1.98966318369356     -1.93815825109024      0.08128706459107
  H   -0.46894577652360     -2.08371462992697      0.67467436176282
  C   -1.04961865833080      0.37307073783773      1.25201086774740
  H   -2.01317979315328      0.06112224519831      1.66069891743695
  H   -1.03992089473115      1.46226652436302      1.19666297300809
  H   -0.25135913096320      0.03998826028816      1.92017673892076
  N   1.50895534851151     -0.81929947224851      0.03874998136891
  H   1.56297882478123     -1.73596907046323     -0.38811463862738
  H   2.43200052097434     -0.40595520765093     -0.00967348789914
  C   0.96441336641487      1.46321858458734     -0.63807724256992
  H   0.19204527896420      2.11828777585107     -1.04253132655066
  H   1.17149227963155      1.75452374183325      0.39433983673229
  H   1.87534381128580      1.61890067845084     -1.22279323586671
