18
Coordinates from ORCA-job run
  C   -0.76291000932566     -0.29009757724450     -0.02910934318382
  C   0.58352009786669      0.00774557468069     -0.72850808677718
  Cl  -2.08542298720300      0.55198846400737     -1.01968240533338
  H   0.47109193178339     -0.36634311368039     -1.75558505971585
  N   -0.96422668413924     -1.70353185831953     -0.02618014494847
  H   -1.82438479446943     -1.94847776528407      0.44944991812920
  H   -1.01510171993948     -2.05803718595725     -0.97496845226874
  C   -0.86962527336617      0.25058530635033      1.38224309354279
  H   -0.08115892074237     -0.18495182436309      1.99927348301829
  H   -1.83537860664944     -0.01906830019925      1.81573781051920
  H   -0.79029929298374      1.33649089808750      1.39699133767664
  N   1.69413733385089     -0.71347747222464     -0.11857792306867
  H   1.39308459536196     -1.64904073691736      0.12784741120875
  H   1.98564205199308     -0.24569254370874      0.73176497347728
  C   0.94376844627151      1.48276752802171     -0.80019626912463
  H   0.16601384041719      2.07277387945700     -1.28222867314181
  H   1.86983082211512      1.58674190314857     -1.36779003844774
  H   1.12041916915871      1.89062482414565      0.19951836843812
