18
Coordinates from ORCA-job run
  C   -0.50938655432476     -0.31979025785278      0.38996500207131
  C   0.53654491101288      0.49583051557264     -0.40541619986163
  Cl  -0.23041834983967     -2.12492916065550     -0.01204896119212
  H   0.26322863721656      1.53804657015468     -0.19794631965763
  N   -0.37750107803149     -0.07080872190082      1.78029752924677
  H   0.51638497159140     -0.38295283863141      2.13520193213551
  H   -1.10992956822817     -0.53180610907252      2.30602818482792
  C   -1.93130341166815     -0.02220991268361     -0.04637137609115
  H   -2.63930165712111     -0.61347614992302      0.53860809510542
  H   -2.08451943017528     -0.27041957580834     -1.09510880822111
  H   -2.13927859948874      1.03850488809287      0.11698761425360
  N   0.50450769894436      0.32547520945006     -1.84864486723397
  H   -0.38259022257597      0.62317179602434     -2.23283024043589
  H   0.63794483586099     -0.65075881490591     -2.08528547800340
  C   1.96298623933216      0.27678038051706      0.08373003383356
  H   2.09947521213160      0.60379343904712      1.11615484498319
  H   2.24874704609008     -0.77471304211699      0.00240654964658
  H   2.63240931927332      0.86226178469213     -0.54672753540693
