18
Coordinates from ORCA-job run
  C   -0.79074414788216     -0.36338426570780      0.04724830791315
  C   0.39063437817735      0.20064636204289     -0.78699191448505
  Cl  -1.90478749536083     -1.15407602339127     -1.15811728832144
  H   -0.05309259239732      0.84874921344466     -1.55117714153471
  N   -0.44842499990691     -1.37983918532954      1.00968469577973
  H   0.14822832049993     -2.08615830310754      0.59696294262325
  H   0.01642119743781     -0.96723971316932      1.80905996569342
  C   -1.59015151278897      0.72482529415517      0.73943963471420
  H   -1.00787955078124      1.16739344805177      1.55182832338475
  H   -2.49851694984000      0.29470587301480      1.16120026073289
  H   -1.86247431314041      1.51202421447020      0.03424359834781
  N   1.18406779626604     -0.79610781540476     -1.48896903140031
  H   0.59301424965805     -1.41512898060218     -2.02975139934505
  H   1.72888167599032     -1.34912514656920     -0.83809831600650
  C   1.33387155122887      1.03567948116394      0.07088323020075
  H   2.17371879002409      1.35438790802080     -0.54792801362755
  H   1.73674501943463      0.44739165605781      0.90197926335352
  H   0.85048858338071      1.92325598285958      0.47950288197714
