13
Coordinates from ORCA-job run
  C   0.46857317106652     -0.71024692556455     -0.08278820548813
  C   -0.88254986382697     -0.30923732682469      0.47522956897847
  F   0.26830795828120     -1.07004985681309     -1.42773879867601
  H   -1.54468118345467     -1.18560975235936      0.40797454919975
  H   0.81875024427875     -1.61516040086423      0.42536175454798
  H   -0.76168242469716     -0.06740308874291      1.53585673385193
  C   1.51441339039430      0.37775324681309     -0.03333116349068
  H   2.43263893768352      0.03499001915528     -0.51340604984974
  H   1.73956419514702      0.63565686910987      1.00452241378787
  H   1.14843640100377      1.26916315065410     -0.53967259632355
  N   -1.38409007265085      0.86807065454626     -0.22641616261202
  H   -2.27081377877896      1.15480041494323      0.16756614797701
  H   -1.54786697444647      0.61927299594701     -1.19415819190288
