13
Coordinates from ORCA-job run
  C   0.38755861447589     -0.19737781885351     -0.37949358730721
  C   -0.82955717711831      0.16642425705559      0.45348699840689
  F   0.34983773224174      0.59081891675503     -1.54098508605968
  H   -0.73590112375775      1.21710251672353      0.74692754694496
  H   0.30866209903669     -1.23706006477641     -0.71919333135496
  H   -0.82394326719324     -0.42728125129952      1.37316421539504
  C   1.70524840626973      0.04740404752169      0.31769990759597
  H   1.79419139468512     -0.58317759044888      1.20550592730041
  H   2.53786599098093     -0.17609240286843     -0.35107843894275
  H   1.77874499545551      1.09359806670954      0.62229497168730
  N   -2.11478781932145     -0.00611039373897     -0.21058079529876
  H   -2.09384559779687      0.49520127188310     -1.09010640916568
  H   -2.26307424795799     -0.98444955466278     -0.42764191920153
