13
Coordinates from ORCA-job run
  C   0.49410498056193     -0.73770005294047     -0.05652084712390
  C   -0.94970562933942     -0.33045744359132     -0.28098415893110
  F   0.85060701985726     -1.60341944158937     -1.09780466717597
  H   -1.55825304567712     -1.23812982350815     -0.28212088834681
  H   0.56737554771090     -1.30636438433706      0.87489384785053
  H   -1.02804513373723      0.11513234569621     -1.28351581149770
  C   1.45742288397747      0.42509607312549     -0.04857710528674
  H   2.48329183852382      0.06319556138699      0.03699324213674
  H   1.25174076522502      1.08101972882706      0.79906897935182
  H   1.37032109718135      0.99430923114383     -0.97803198815165
  N   -1.38940467873670      0.54123653241096      0.80806494016370
  H   -2.39403147859753      0.49366196915270      0.90987079730296
  H   -1.15742416694977      1.50341970422312      0.59866365970809
