12

C	-0.575952	0.018525	-1.407307
C	0.0	0.0	0.0
Cl	0.034973	1.417513	-2.350911
H	1.098643	0.0	0.0
H	-1.65614	0.164343	-1.330877
H	-0.348901	-0.926996	0.468148
C	-0.320756	-1.217383	-2.142305
N	-0.15806	-2.240965	-2.693804
N	-0.566668	1.136889	0.741801
H	-0.022316	1.955101	0.48627
H	-0.362421	0.981921	1.722842
Br	3.638086	0.0	0.0
