12

C	-0.369642	-0.077746	-1.489092
C	0.0	0.0	0.0
Cl	-2.137409	-0.379346	-1.739268
H	1.094357	0.0	0.0
H	0.14392	-0.924765	-1.945609
H	-0.386798	0.932205	0.418063
C	-0.026852	1.140792	-2.212961
N	0.232756	2.127129	-2.794451
N	-0.424425	-1.133693	0.797411
H	0.209504	-1.907267	0.648085
H	-1.367053	-1.424001	0.570558
Br	3.562006	0.0	0.0
