12

C	-0.432988	0.030394	-1.47782
C	0.0	0.0	0.0
Cl	0.050819	-1.466041	-2.334372
H	1.093019	0.0	0.0
H	0.076997	0.853771	-1.983221
H	-0.330786	0.951593	0.433386
C	-1.879221	0.194678	-1.61656
N	-3.039514	0.354874	-1.706725
N	-0.503682	-1.097769	0.792959
H	-0.009914	-1.946013	0.550473
H	-1.496254	-1.241253	0.649697
Br	3.62676	0.0	0.0
