12

C	-0.455716	0.020442	-1.451066
C	0.0	0.0	0.0
Cl	-2.218386	-0.369444	-1.578546
H	1.094252	0.0	0.0
H	0.064787	-0.755669	-2.015031
H	-0.315558	-0.962718	0.420365
C	-0.233884	1.3107	-2.094804
N	-0.060915	2.340176	-2.629495
N	-0.511953	1.150255	0.727312
H	0.237497	1.556667	1.268822
H	-1.26309	0.893895	1.349545
Br	3.570609	0.0	0.0
