12

C	-0.487402	-0.007182	-1.447986
C	0.0	0.0	0.0
Cl	0.083503	-1.439966	-2.340964
H	1.09213	0.0	0.0
H	-0.083606	0.864371	-1.968608
H	-0.317941	0.964251	0.424523
C	-1.948142	0.036476	-1.504503
N	-3.120685	0.094815	-1.498518
N	-0.511672	-1.148604	0.728221
H	0.22479	-1.532471	1.303161
H	-1.290631	-0.896891	1.319476
Br	3.634031	0.0	0.0
