12

C	-0.428544	0.030517	-1.479775
C	0.0	0.0	0.0
Cl	0.048162	-1.469072	-2.334924
H	1.093025	0.0	0.0
H	0.088598	0.850355	-1.983399
H	-0.332199	0.951724	0.431667
C	-1.874273	0.201284	-1.619253
N	-3.039122	0.346732	-1.66688
N	-0.503563	-1.09837	0.791771
H	0.002296	-1.942156	0.559477
H	-1.492692	-1.253541	0.636387
Br	3.619517	0.0	0.0
