16

C	0.020522	-0.011211	0.020617
C	-0.486722	0.028334	-1.423977
F	1.414679	-0.206822	-0.023709
H	-1.58268	0.00346	-1.401157
C	-0.133457	1.335761	0.632522
N	-0.223611	2.341877	1.232221
N	-0.577484	-1.061987	0.746352
H	-0.453625	-0.919966	1.740936
H	-1.583874	-1.089367	0.537462
N	-0.045716	-1.290499	-2.073889
O	0.975517	-1.255746	-2.763918
O	-0.736318	-2.282177	-1.879398
N	0.029049	1.16166	-2.103799
H	1.018505	1.035615	-2.276455
H	-0.446619	1.288626	-2.986352
Cl	-3.621444	-0.372641	-0.202127
