16

C	0.019176	-0.008619	0.021186
C	-0.493368	-0.067922	-1.420863
F	1.413437	-0.20474	-0.01464
H	-1.5892	-0.092681	-1.392032
C	-0.135048	1.376579	0.540858
N	-0.225614	2.420897	1.071177
N	-0.574261	-1.008926	0.818553
H	-0.444018	-0.801294	1.800741
H	-1.581982	-1.049269	0.618192
N	-0.052523	-1.426988	-1.981529
O	0.966803	-1.437741	-2.675188
O	-0.741316	-2.40406	-1.718693
N	0.017878	1.017558	-2.177866
H	-0.46186	1.084217	-3.06482
H	1.006752	0.881285	-2.346024
Cl	-3.622548	-0.387104	-0.163111
