15

C	-0.489989	-0.02792	-1.440827
C	0.0	0.0	0.0
F	-0.014688	1.176648	-2.020336
H	1.09257	0.0	0.0
H	-0.325265	0.935699	0.469406
C	0.125018	-1.163559	-2.224256
H	-0.153228	-1.080067	-3.279762
H	1.210326	-1.104791	-2.119478
H	-0.229596	-2.11892	-1.833887
N	-1.92105	-0.049749	-1.518937
H	-2.198777	0.033397	-2.491106
H	-2.288474	0.753363	-1.018632
C	-0.505376	-1.129337	0.764027
N	-0.888741	-2.047244	1.389711
H	2.8621	0.0	0.0
