15

C	-0.275973	-0.033402	-1.502821
C	0.0	0.0	0.0
F	-1.654745	-0.160903	-1.740441
H	1.093662	0.0	0.0
H	-0.37496	0.912714	0.471313
C	0.20719	1.253373	-2.130999
H	-0.359607	2.099601	-1.735389
H	1.266495	1.384225	-1.890884
H	0.069965	1.194093	-3.211975
N	0.366561	-1.156251	-2.147136
H	1.358828	-1.082242	-1.908911
H	0.031919	-2.006103	-1.700438
C	-0.522925	-1.17161	0.677636
N	-0.939838	-2.134941	1.206634
H	2.807915	0.0	0.0
