15

C	-0.452826	-0.051559	-1.454514
C	0.0	0.0	0.0
F	-0.077117	1.205427	-2.002928
H	1.09261	0.0	0.0
H	-0.340108	0.938296	0.451159
C	0.298591	-1.105061	-2.233908
H	1.368464	-0.942055	-2.085294
H	0.030172	-2.097725	-1.868254
H	0.048424	-1.031336	-3.297275
N	-1.868889	-0.212729	-1.578104
H	-2.336557	0.529873	-1.069928
H	-2.127191	-0.140507	-2.556733
C	-0.499623	-1.126769	0.770878
N	-0.881056	-2.033166	1.413928
H	2.862568	0.0	0.0
