13

C	-0.396985	0.087244	-1.436518
C	0.0	0.0	0.0
Cl	-2.180309	0.128918	-1.723936
H	1.094718	0.0	0.0
H	0.017832	0.971987	-1.90866
H	-0.395287	-0.920376	0.441043
N	0.123213	-1.084197	-2.219017
O	-0.090492	-2.205532	-1.770344
O	0.716982	-0.835103	-3.26632
N	-0.415196	1.235426	0.670867
H	-1.217535	1.079338	1.26607
H	0.365464	1.517976	1.250533
F	2.633623	0.0	0.0
