13

C	-0.267429	0.071835	-1.470309
C	0.0	0.0	0.0
Cl	-2.020514	0.219124	-1.93674
H	1.094437	0.0	0.0
H	0.244112	0.911971	-1.933724
H	-0.434755	-0.907672	0.42098
N	0.242458	-1.146131	-2.186845
O	0.902458	-0.953911	-3.205313
O	-0.047778	-2.24278	-1.718625
N	-0.418775	1.197403	0.720241
H	-1.263315	1.605187	0.33669
H	0.336138	1.869036	0.65486
F	2.617098	0.0	0.0
