13

C	-0.627326	0.00364	-1.363936
C	0.0	0.0	0.0
Cl	-0.056512	-1.343685	-2.379513
H	1.0942	0.0	0.0
H	-1.715886	-0.039172	-1.349031
H	-0.34809	-0.918319	0.488939
N	-0.343412	1.285213	-2.115741
O	0.672356	1.910936	-1.845752
O	-1.176316	1.60006	-2.969385
N	-0.528514	1.197066	0.694525
H	0.272907	1.807676	0.80758
H	-0.825003	0.938586	1.626334
F	2.662539	0.0	0.0
