13

C	-0.339946	-0.012644	-1.452213
C	0.0	0.0	0.0
Cl	-2.096251	-0.113216	-1.863002
H	1.102808	0.0	0.0
H	0.048768	0.87564	-1.942963
H	-0.359802	0.961216	0.38477
N	0.316282	-1.149753	-2.194183
O	0.310627	-2.25953	-1.67514
O	0.7881	-0.884274	-3.297631
N	-0.61691	-1.086522	0.776461
H	-0.053952	-1.910952	0.604016
H	-0.459341	-0.852658	1.751274
F	2.647057	0.0	0.0
