13

C	-0.604759	0.025785	-1.38207
C	0.0	0.0	0.0
Cl	-0.040826	-1.331656	-2.377845
H	1.092466	0.0	0.0
H	-1.693726	0.004519	-1.396331
H	-0.342575	-0.933112	0.472756
N	-0.272215	1.317199	-2.084332
O	-1.229308	2.052446	-2.336218
O	0.899147	1.553801	-2.336794
N	-0.430551	1.210472	0.7
H	0.364824	1.535067	1.230241
H	-1.201303	1.045594	1.331018
F	2.649998	0.0	0.0
