17

C	-0.624453	-0.031336	-1.395126
C	0.0	0.0	0.0
Cl	0.00369	-1.361162	-2.376473
H	1.092769	0.0	0.0
N	-2.034369	-0.10107	-1.296062
H	-2.309509	0.664768	-0.686614
H	-2.449633	0.012193	-2.212225
N	-0.212782	1.248564	-2.184337
O	0.767012	1.880603	-1.814169
O	-0.92646	1.533348	-3.145476
N	-0.409345	-1.201354	0.678615
H	0.213562	-1.384965	1.45222
H	-1.373913	-1.154932	0.978405
N	-0.531437	1.232854	0.63966
H	-0.483542	1.076089	1.640335
H	0.127344	1.979712	0.43775
Cl	3.461834	0.0	0.0
