17

C	-0.375095	0.026665	-1.490184
C	0.0	0.0	0.0
Cl	-2.159479	0.116537	-1.673285
H	1.100762	0.0	0.0
N	0.221351	1.103575	-2.201855
H	1.229035	0.949494	-2.179169
H	0.031088	1.918598	-1.622414
N	0.072698	-1.277233	-2.164569
O	-0.551055	-2.300756	-1.888675
O	1.047575	-1.22007	-2.903354
N	-0.557302	-1.109975	0.758966
H	0.198961	-1.540407	1.279217
H	-0.937752	-1.815757	0.140309
N	-0.395155	1.30012	0.540341
H	0.338264	1.607097	1.168953
H	-1.237968	1.152633	1.085019
Cl	3.358977	0.0	0.0
