17

C	-0.471151	-0.082922	-1.453079
C	0.0	0.0	0.0
Cl	-2.324292	-0.469246	-1.476551
H	1.098809	0.0	0.0
N	-0.141729	1.064413	-2.136355
H	-0.490611	1.105294	-3.08043
H	-0.33466	1.870225	-1.555028
N	0.080598	-1.278864	-2.226113
O	0.336696	-2.299821	-1.602038
O	0.175936	-1.144786	-3.441588
N	-0.541639	-1.055728	0.854486
H	-0.454643	-1.938239	0.362295
H	0.104604	-1.118763	1.637368
N	-0.411585	1.31053	0.497597
H	0.332812	1.676544	1.077143
H	-1.242158	1.171898	1.062408
Cl	3.374884	0.0	0.0
