17

C	-0.62459	0.04012	-1.395175
C	0.0	0.0	0.0
Cl	0.006963	-1.235639	-2.444408
H	1.092775	0.0	0.0
N	-2.03458	-0.03753	-1.300254
H	-2.311569	0.693813	-0.650668
H	-2.45	0.124126	-2.208959
N	-0.214897	1.360386	-2.116752
O	-0.932337	1.697553	-3.058132
O	0.768383	1.969745	-1.718412
N	-0.409412	-1.234622	0.615582
H	0.212061	-1.458002	1.380131
H	-1.37462	-1.205038	0.915274
N	-0.5323	1.198034	0.702054
H	0.125508	1.955106	0.537879
H	-0.48192	0.990168	1.692773
Cl	3.460188	0.0	0.0
