17

C	-0.638741	0.005426	-1.386433
C	0.0	0.0	0.0
Cl	0.161111	-1.284422	-2.429913
H	1.093501	0.0	0.0
N	-2.026443	-0.135197	-1.285789
H	-2.474784	-0.192592	-2.187963
H	-2.215081	-0.932774	-0.689446
N	-0.337872	1.29091	-2.142522
O	-1.197682	1.652498	-2.945833
O	0.735816	1.831747	-1.942261
N	-0.477495	-1.248428	0.652778
H	0.079186	-2.011749	0.274548
H	-0.196168	-1.16704	1.624462
N	-0.463286	1.17869	0.689155
H	-1.364962	1.019813	1.117707
H	0.222422	1.46599	1.37302
Cl	3.461262	0.0	0.0
