17

C	-0.500989	-0.057571	-1.442516
C	0.0	0.0	0.0
Br	-0.1544	1.685096	-2.324353
H	1.094302	0.0	0.0
H	-0.299708	-0.968674	0.430513
C	0.268777	-1.114068	-2.212059
H	-0.046561	-1.129378	-3.256447
H	0.060141	-2.093595	-1.764042
H	1.340847	-0.92846	-2.130222
N	-1.93411	-0.286301	-1.604342
H	-2.142055	-1.182899	-1.170669
H	-2.443295	0.423347	-1.088006
C	-0.540094	1.122141	0.87385
H	-0.187302	0.983932	1.898661
H	-1.635616	1.149026	0.899073
H	-0.178296	2.090696	0.528248
Cl	3.577278	0.0	0.0
