17

C	-0.384996	0.067815	-1.473554
C	0.0	0.0	0.0
Br	-0.310095	-1.893811	-2.261762
H	1.095304	0.0	0.0
H	-0.299795	0.977225	0.403761
C	-1.818078	0.476963	-1.757009
H	-2.018989	0.482151	-2.830999
H	-1.964185	1.489566	-1.364433
H	-2.524671	-0.204998	-1.2814
N	0.533644	0.894033	-2.127818
H	0.43098	0.89799	-3.1334
H	1.49482	0.69793	-1.852755
C	-0.582837	-1.113655	0.851069
H	-0.16863	-2.079573	0.565512
H	-0.325581	-0.934068	1.898405
H	-1.673711	-1.170634	0.775344
Cl	3.528969	0.0	0.0
