17

C	-0.302307	-0.022937	-1.486266
C	0.0	0.0	0.0
Br	-2.289474	-0.31058	-1.782428
H	1.099643	0.0	0.0
H	-0.328605	-0.953312	0.422508
C	0.026112	1.292415	-2.176823
H	-0.137	1.205679	-3.254469
H	1.085232	1.49894	-1.98706
H	-0.579205	2.120025	-1.804636
N	0.369956	-1.163137	-2.046986
H	1.324467	-1.170517	-1.68436
H	0.403915	-1.089631	-3.05873
C	-0.543037	1.175899	0.79057
H	-0.084781	2.115296	0.474801
H	-0.303766	1.044909	1.848518
H	-1.628959	1.262707	0.692627
Cl	3.500062	0.0	0.0
