16

C	0.0	0.0	0.0
C	-0.384584	-0.051478	-1.482203
Br	2.043621	0.0	0.0
H	-0.238547	-1.097156	-1.815203
H	0.320429	0.562054	-2.04924
C	-0.407017	1.292918	0.68062
H	-0.028479	2.151036	0.126301
H	-1.49716	1.33749	0.704252
H	-0.008382	1.324477	1.698589
N	-0.531598	-1.101069	0.678155
H	-0.263575	-1.995004	0.294211
H	-0.415346	-1.071747	1.680283
N	-1.714661	0.497267	-1.656956
H	-2.022778	0.375337	-2.613304
H	-2.420425	0.061966	-1.060358
Br	-4.729428	0.0	0.0
