16

C	0.0	0.0	0.0
C	-0.464458	-0.244659	-1.432542
Br	1.963868	0.0	0.0
H	-1.553184	-0.099915	-1.405719
H	-0.025441	0.525277	-2.074459
C	-0.441229	1.380745	0.463045
H	-0.066585	1.582482	1.470135
H	-0.069812	2.159833	-0.207292
H	-1.535328	1.389183	0.471171
N	-0.484842	-1.081674	0.828388
H	-0.240795	-0.896294	1.794997
H	-1.508839	-1.037923	0.759437
N	-0.071729	-1.573041	-1.914942
H	-0.776741	-1.879426	-2.575618
H	-0.140407	-2.197601	-1.115585
Br	-3.919762	0.0	0.0
