16

C	0.0	0.0	0.0
C	-0.416763	-0.457027	-1.387076
Br	2.093295	0.0	0.0
H	0.009557	0.225172	-2.132991
H	-1.509358	-0.356876	-1.38263
C	-0.408514	1.424271	0.290013
H	-0.063619	1.732007	1.280714
H	-1.504144	1.446338	0.262588
H	0.010349	2.109714	-0.44889
N	-0.469009	-0.889321	0.937648
H	-0.342566	-1.855301	0.675628
H	-0.275308	-0.672425	1.900874
N	-0.070885	-1.861584	-1.593912
H	-0.7181	-2.276979	-2.250222
H	0.868013	-1.934259	-1.964236
Br	-4.08638	0.0	0.0
