16

C	0.0	0.0	0.0
C	-0.419345	-0.102158	-1.460596
Br	2.065215	0.0	0.0
H	-0.152095	-1.106306	-1.824866
H	-1.513602	-0.033555	-1.434752
C	-0.410813	1.310636	0.633321
H	-0.017424	2.142188	0.05187
H	-0.039843	1.376437	1.659926
H	-1.506224	1.330484	0.633727
N	-0.48482	-1.088052	0.712268
H	-0.389445	-1.03456	1.712214
H	-0.261615	-1.99481	0.336135
N	0.115341	0.983925	-2.26961
H	1.062184	0.771782	-2.55539
H	-0.455577	1.094524	-3.096822
Br	-4.215478	0.0	0.0
