16

C	0.0	0.0	0.0
C	-0.376684	0.133103	-1.469846
Br	2.086047	0.0	0.0
H	-1.469565	0.21993	-1.451175
H	0.050906	1.058098	-1.880652
C	-0.407366	1.208179	0.808756
H	-1.501392	1.25875	0.789293
H	-0.064718	1.099043	1.838868
H	0.010697	2.123082	0.386155
N	-0.445204	-1.203521	0.59808
H	-0.440399	-1.919045	-0.124345
H	-1.416971	-1.051964	0.873825
N	-0.018717	-1.071681	-2.211791
H	-0.611829	-1.159504	-3.025583
H	0.945652	-1.01643	-2.512853
Br	-3.8696	0.0	0.0
