16

C	0.0	0.0	0.0
C	-0.425397	-0.228292	-1.449928
Br	1.997043	0.0	0.0
H	-0.027537	0.576178	-2.084708
H	-1.518257	-0.150746	-1.422246
C	-0.442248	1.362535	0.492127
H	-0.036324	2.157809	-0.136587
H	-0.10578	1.510148	1.519714
H	-1.536117	1.389326	0.459239
N	-0.456051	-1.025437	0.888801
H	-0.379548	-1.904083	0.382088
H	-1.454605	-0.851315	1.0247
N	-0.062257	-1.57099	-1.897266
H	-0.710235	-1.877186	-2.610412
H	0.871775	-1.568498	-2.286129
Br	-3.920582	0.0	0.0
