16

C	0.0	0.0	0.0
C	-0.296487	-0.895389	-1.236412
Br	1.984175	0.0	0.0
H	0.320952	-1.790183	-1.126448
H	0.07294	-0.357215	-2.116428
C	-0.485659	1.4284	-0.166387
H	-0.187762	2.039382	0.690498
H	-0.092596	1.88625	-1.077009
H	-1.580749	1.401572	-0.208193
N	-0.481604	-0.6597	1.190663
H	-1.497149	-0.711594	1.08619
H	-0.306991	-0.065315	1.995277
N	-1.65275	-1.3234	-1.472916
H	-1.962008	-1.9615	-0.751522
H	-2.330251	-0.568466	-1.45639
Br	-4.316347	0.0	0.0
