16

C	0.0	0.0	0.0
C	-0.295813	-0.471752	-1.455629
Br	1.969133	0.0	0.0
H	0.234725	-1.421475	-1.587776
H	0.173864	0.247384	-2.136817
C	-0.500341	1.406105	0.270791
H	-1.593055	1.402671	0.200505
H	-0.214769	1.718761	1.277366
H	-0.088446	2.111495	-0.454155
N	-0.48742	-0.877413	1.028196
H	-1.479264	-0.68203	1.154294
H	-0.38955	-1.845584	0.740721
N	-1.667662	-0.665785	-1.847496
H	-2.244174	0.152349	-1.689029
H	-2.114657	-1.385192	-1.293275
Br	-4.333658	0.0	0.0
