17

C	-0.271377	-0.170449	-1.492471
C	0.0	0.0	0.0
Br	-0.629961	1.757377	-2.470567
H	1.098507	0.0	0.0
H	-1.247952	-0.57197	-1.767705
N	0.782351	-0.838679	-2.061738
H	0.755533	-0.954909	-3.062407
H	1.697711	-0.569657	-1.675342
C	-0.469435	-1.281158	0.690067
H	-0.061044	-2.160232	0.187371
H	-1.565197	-1.355959	0.705436
H	-0.110393	-1.290744	1.72378
C	-0.561053	1.231594	0.680554
H	-1.646452	1.314388	0.551808
H	-0.101509	2.138191	0.289777
H	-0.34375	1.174099	1.752222
H	2.995799	0.0	0.0
