17

C	-0.466705	0.017103	-1.438469
C	0.0	0.0	0.0
Br	0.003171	-1.633117	-2.410792
H	1.096089	0.0	0.0
H	0.119734	0.766562	-1.981472
N	-1.905511	0.170862	-1.577592
H	-2.137183	0.297272	-2.556742
H	-2.174736	1.012108	-1.083577
C	-0.514375	-1.176	0.812329
H	-0.162507	-1.079991	1.843917
H	-0.121636	-2.115931	0.422026
H	-1.608202	-1.226005	0.812225
C	-0.381631	1.32961	0.662086
H	0.20817	1.43385	1.576939
H	-0.123783	2.180952	0.023187
H	-1.443749	1.393604	0.930933
H	3.016974	0.0	0.0
