19

C	-0.418591	0.002632	-1.4616
C	0.0	0.0	0.0
Cl	0.298755	-1.409747	-2.257099
H	1.09169	0.0	0.0
N	-1.943978	-0.065576	-1.650892
O	-2.533727	0.928776	-1.230202
O	-2.469048	-1.067114	-2.113089
C	0.039613	1.25621	-2.190883
H	1.122751	1.344706	-2.100944
H	-0.221549	1.18377	-3.249771
H	-0.441689	2.13639	-1.768634
N	-0.384881	-1.301408	0.636925
O	-1.579307	-1.610069	0.6222
O	0.509757	-1.965348	1.15319
C	-0.539381	1.106473	0.88151
H	-0.251046	2.085707	0.495529
H	-1.625626	1.068007	0.972768
H	-0.090539	0.997794	1.873884
Br	2.758645	0.0	0.0
