15

C	-0.44139	-0.006294	-1.433948
C	0.0	0.0	0.0
Cl	-2.391761	0.233015	-1.446807
H	1.09243	0.0	0.0
H	-0.135442	0.888167	-1.965745
N	-0.061778	-1.182503	-2.050822
H	-0.398585	-1.289863	-2.994098
H	-0.243946	-1.980857	-1.458341
N	-0.450881	-1.154286	0.700462
H	-1.383038	-1.004333	1.067185
H	0.183513	-1.325681	1.47205
N	-0.375222	1.288256	0.629954
O	-0.829566	1.271922	1.780702
O	-0.117731	2.314045	-0.004316
H	2.602576	0.0	0.0
