15

C	-0.59084	-0.133758	-1.392902
C	0.0	0.0	0.0
Cl	-0.054211	1.247643	-2.473587
H	1.091164	0.0	0.0
H	-0.120987	-1.014931	-1.827985
N	-2.008866	-0.289603	-1.367077
H	-2.364458	-0.43342	-2.303232
H	-2.449317	0.532306	-0.970938
N	-0.394257	-1.137831	0.762645
H	0.242491	-1.234525	1.544223
H	-1.353539	-1.072557	1.071617
N	-0.49768	1.301589	0.604425
O	0.189544	2.309944	0.47895
O	-1.592807	1.274078	1.193604
H	2.780967	0.0	0.0
