15

C	-0.507918	0.049934	-1.435107
C	0.0	0.0	0.0
Cl	-0.130789	-1.568948	-2.23718
H	1.090992	0.0	0.0
H	-1.598764	0.093525	-1.477991
N	0.07984	1.157193	-2.08404
H	-0.11971	1.158538	-3.074136
H	1.084599	1.149608	-1.925892
N	-0.489423	-1.100027	0.757871
H	-1.385269	-0.879956	1.172502
H	0.189097	-1.315485	1.478238
N	-0.450348	1.326615	0.605468
O	0.310548	2.285403	0.576631
O	-1.588472	1.35132	1.0985
H	2.814864	0.0	0.0
