15

C	-0.62466	-0.058741	-1.391531
C	0.0	0.0	0.0
Cl	-0.202124	-1.64711	-2.160455
H	1.089133	0.0	0.0
H	-1.719769	-0.114166	-1.286508
N	-0.166456	0.973371	-2.281924
H	-0.302437	1.855848	-1.805332
H	-0.745201	0.968006	-3.11263
N	-0.343402	-1.117864	0.850113
H	-0.954914	-1.770809	0.381987
H	0.529557	-1.591151	1.065709
N	-0.428432	1.236529	0.706226
O	-1.068948	2.116505	0.093131
O	-0.058315	1.360485	1.871161
H	2.603494	0.0	0.0
