15

C	-0.308105	-0.06151	-1.47403
C	0.0	0.0	0.0
Cl	-2.103463	-0.394951	-1.778981
H	1.098542	0.0	0.0
H	-0.173876	0.91803	-1.928825
N	0.47575	-1.126652	-2.025139
H	1.406218	-1.053544	-1.596987
H	0.572621	-0.999377	-3.02507
N	-0.415095	-1.11309	0.778914
H	-1.096632	-1.673962	0.288979
H	0.397683	-1.675673	0.998325
N	-0.430511	1.303117	0.592036
O	-0.658594	1.356439	1.797817
O	-0.407105	2.292977	-0.151117
H	2.63721	0.0	0.0
