15

C	-0.391335	0.12858	-1.486091
C	0.0	0.0	0.0
Cl	-0.593912	-1.529549	-2.220774
H	1.092682	0.0	0.0
H	-1.367247	0.596522	-1.605013
N	0.585991	0.85361	-2.243034
H	1.506452	0.630799	-1.856824
H	0.415848	1.835949	-2.065162
N	-0.487106	-1.090967	0.788168
H	-1.019786	-1.73277	0.219942
H	0.317936	-1.586576	1.154681
N	-0.369492	1.288797	0.672706
O	-0.25391	1.333385	1.894876
O	-0.669117	2.271303	-0.027264
H	2.684688	0.0	0.0
