15

C	-0.532804	0.095944	-1.397428
C	0.0	0.0	0.0
Cl	-2.460928	0.361454	-1.269963
H	1.095278	0.0	0.0
H	-0.238709	1.013439	-1.89619
N	-0.222474	-1.054836	-2.108437
H	-0.407104	-1.871093	-1.538598
H	-0.661688	-1.100702	-3.014755
N	-0.385265	-1.217511	0.639626
H	0.373425	-1.486659	1.258474
H	-1.225293	-1.085812	1.188931
N	-0.339222	1.220234	0.760308
O	-0.176217	2.299099	0.184867
O	-0.654449	1.104882	1.950949
H	2.570464	0.0	0.0
