15

C	-0.285034	-0.035906	-1.490944
C	0.0	0.0	0.0
Cl	-2.062707	-0.294487	-1.799946
H	1.09388	0.0	0.0
H	-0.052508	0.930223	-1.929174
N	0.469485	-1.064032	-2.162632
H	0.285421	-1.940618	-1.682943
H	1.447864	-0.840825	-1.947826
N	-0.415943	-1.118376	0.760845
H	0.365186	-1.732853	0.941819
H	-1.219162	-1.603676	0.390874
N	-0.46988	1.292674	0.588622
O	-0.974586	1.310595	1.709217
O	-0.253206	2.303957	-0.08888
H	2.667566	0.0	0.0
