13

C	0.0	0.0	0.0
C	-0.622281	-0.040874	-1.375561
Br	1.94083	0.0	0.0
H	-1.730518	-0.10052	-1.038735
H	-0.337986	0.897552	0.516302
H	-0.31862	-0.863954	0.581366
C	-0.249872	-1.228566	-2.119178
N	0.02775	-2.185975	-2.745705
C	-0.400667	1.229642	-2.185519
H	0.662172	1.434491	-2.348896
H	-0.893197	1.156186	-3.1583
H	-0.84714	2.069199	-1.643965
H	-2.947249	0.0	0.0
