17

C	0.0	0.0	0.0
C	-0.313707	-0.35221	-1.50944
F	1.386217	0.0	0.0
H	0.645081	-0.206974	-2.014401
C	-0.382706	1.368379	0.418993
N	-0.549629	2.425438	0.900784
N	-0.461447	-0.893986	1.004548
H	-1.479392	-0.766616	1.05164
H	-0.2754	-1.848494	0.722718
N	-1.185045	0.629727	-2.255281
O	-0.883236	1.814119	-2.132611
O	-2.018057	0.187594	-3.035526
C	-0.800634	-1.768671	-1.709734
H	-0.074154	-2.470468	-1.290169
H	-1.774871	-1.890556	-1.236496
H	-0.894102	-1.981212	-2.77421
Cl	-3.341153	0.0	0.0
