15

C	-0.504722	-0.014697	-1.428321
C	0.0	0.0	0.0
F	-0.048913	1.079543	-2.099813
H	1.094299	0.0	0.0
H	-0.314492	-0.91736	0.50304
N	0.084865	-1.241048	-2.121818
O	-0.153294	-2.31606	-1.576241
O	0.667788	-1.082958	-3.184112
C	-2.004881	-0.096014	-1.613901
H	-2.459631	0.790859	-1.170272
H	-2.398199	-0.990027	-1.130848
H	-2.238034	-0.121159	-2.681809
C	-0.532567	1.152631	0.700281
N	-0.959767	2.091549	1.264572
H	2.716221	0.0	0.0
