15

C	-0.384676	0.072745	-1.460164
C	0.0	0.0	0.0
F	-0.181927	-1.133846	-2.06019
H	1.093526	0.0	0.0
H	-0.318888	0.916214	0.502149
N	-1.886691	0.356696	-1.601163
O	-2.271985	1.419409	-1.117395
O	-2.593407	-0.46343	-2.175682
C	0.387155	1.140344	-2.192663
H	1.448108	0.946226	-2.0053
H	0.160961	1.090598	-3.260507
H	0.129549	2.125335	-1.8049
C	-0.562998	-1.157012	0.670562
N	-1.00838	-2.088289	1.231831
H	2.753028	0.0	0.0
