15

C	-0.383688	-0.034706	-1.456618
C	0.0	0.0	0.0
F	-1.761793	-0.047107	-1.644632
H	1.093257	0.0	0.0
H	-0.366524	0.912336	0.472031
N	0.024021	1.3106	-2.068233
O	-0.339575	2.314574	-1.4616
O	0.609733	1.307381	-3.147151
C	0.257504	-1.166804	-2.200135
H	1.338236	-1.107269	-2.039891
H	-0.114856	-2.102313	-1.779611
H	0.017127	-1.118195	-3.261294
C	-0.506448	-1.167685	0.693919
N	-0.894736	-2.121077	1.261466
H	2.723329	0.0	0.0
