15

C	-0.384335	0.067471	-1.460424
C	0.0	0.0	0.0
F	-0.181472	-1.141264	-2.056732
H	1.093545	0.0	0.0
H	-0.318746	0.918202	0.498473
N	-1.88561	0.350948	-1.603956
O	-2.271492	1.414413	-1.121814
O	-2.591956	-0.469561	-2.179002
C	0.387409	1.133398	-2.195158
H	0.162733	1.08025	-3.26348
H	1.448208	0.940774	-2.004944
H	0.128429	2.118987	-1.810595
C	-0.564694	-1.155144	0.672611
N	-1.019269	-2.091091	1.218952
H	2.752726	0.0	0.0
