15

C	-0.381772	-0.086141	-1.457346
C	0.0	0.0	0.0
F	-1.754214	-0.165339	-1.64334
H	1.091066	0.0	0.0
H	-0.376474	0.923437	0.443387
N	-0.02194	1.262897	-2.08911
O	-0.590928	2.24285	-1.615642
O	0.759234	1.282449	-3.034204
C	0.313721	-1.20512	-2.171427
H	1.388302	-1.106989	-1.988883
H	0.096303	-1.180977	-3.239093
H	-0.0375	-2.146193	-1.744288
C	-0.498452	-1.149388	0.730377
N	-0.884741	-2.087859	1.323119
H	2.721304	0.0	0.0
