14
Coordinates from ORCA-job run
  C   -0.46242448537757      0.17337132213660     -0.11296975049857
  C   0.90532465291686      0.13113248531490      0.03426297808127
  C   -1.40846262895256     -0.90720511335121      0.31881371250985
  H   -1.31567197927697     -1.09375759543850      1.38790853622763
  H   -2.43690045847792     -0.61785293399944      0.09507634078322
  H   -1.17618107383620     -1.84696375233912     -0.18043689222190
  N   -1.03757151283484      1.28145078209054     -0.63156320120902
  H   -0.46390013570698      1.99725711913349     -1.05347968891200
  H   -1.99746825422724      1.23812803828040     -0.92546397304476
  N   1.63184432146446     -0.96662549652359      0.63259742900655
  O   1.00236780000057     -1.94928099136013      1.02628516746879
  O   2.85262977558268     -0.83549506241801      0.70513944435140
  C   1.69548679873555      1.21512662737478     -0.43188329187577
  N   2.21292717999014      2.17971457109930     -0.86628681066668
