14
Coordinates from ORCA-job run
  C   -0.49652398904522      0.05058307736451      0.01727205345139
  C   0.88187405059673      0.06116351294237      0.08999386844886
  C   -1.18205425314768     -0.75031954358749     -1.05342841605308
  H   -0.50519409864000     -1.02341691048877     -1.85971176334924
  H   -2.01227330201385     -0.17654684925970     -1.47214553546278
  H   -1.58429463759672     -1.66954679086269     -0.61776427642205
  N   -1.30743981822120      0.70077318165752      0.86079390258516
  H   -0.91316935490142      1.20446811707464      1.64062308319735
  H   -2.30349339530998      0.60371370055508      0.77093302101508
  N   1.62089173156941      0.77510689736741      1.10456019976015
  O   0.98288678076357      1.40048638916023      1.96421736921373
  O   2.84652158525141      0.72159330095047      1.05734096081424
  C   1.68070062591740     -0.64704358667991     -0.84825282806689
  N   2.29156807477755     -1.25101449619367     -1.65243163913193
