14
Coordinates from ORCA-job run
  C   -0.44317737089005      0.19886567923001     -0.13168470897668
  C   0.91318994040921      0.08137442109858      0.06200226559439
  C   -1.47794377410380     -0.72408504653830      0.44051512203156
  H   -1.14403616857661     -1.75665883914174      0.43167725006943
  H   -1.67251485087552     -0.46127254227474      1.48149492863487
  H   -2.40766037514743     -0.63080213661789     -0.12316713626036
  N   -0.92394114305593      1.24706850848774     -0.83882067195220
  H   -1.86468984924716      1.20320238973507     -1.19158749102132
  H   -0.28222057085849      1.85332140880976     -1.32932630226310
  N   1.53970389078873     -0.96138094520726      0.84167330519266
  O   2.74742431840514     -1.11968828488171      0.67072198059364
  O   0.84479000595379     -1.60792171092140      1.62686767672435
  C   1.79533628151910      0.94831630890732     -0.63755459056188
  N   2.37573966567901      1.72866078931457     -1.30181162780535
