14
Coordinates from ORCA-job run
  C   -0.45672616086336      0.16565285273030     -0.14483186799982
  C   0.90802323097767      0.11306013074370      0.02523490421518
  C   -1.41775231382096     -0.90712429182862      0.27352547225046
  H   -2.44391233212105     -0.58958758483539      0.07893430806088
  H   -1.30318264540621     -1.14381542276030      1.32999740651467
  H   -1.21997270783899     -1.82809016770591     -0.27430819218103
  N   -1.00337412078407      1.22402091102637     -0.78303138058172
  H   -1.99730037258077      1.36233488836530     -0.73506904096560
  H   -0.43958071575629      2.03302230565485     -0.99808834711924
  N   1.61509598490830     -0.98991053821916      0.63734777795580
  O   0.98016753746297     -1.99401100621905      0.96179256621430
  O   2.82674974665105     -0.84198588209444      0.78902973124435
  C   1.71077264554375      1.21008774804406     -0.38581296510057
  N   2.24099222362797      2.18734605709832     -0.77372037250766
