14
Coordinates from ORCA-job run
  C   -0.49738406478622      0.03344682559767      0.05114332444038
  C   0.87852243451947      0.12591649849465     -0.00006761502689
  C   -1.21320381096014     -0.91810664123479     -0.86534067342374
  H   -2.15051131486858     -0.47371732080653     -1.20747217410700
  H   -1.44515151188221     -1.83972011860459     -0.32346446732074
  H   -0.61298796245911     -1.17875683538924     -1.73434470377038
  N   -1.27778487077581      0.73814152117847      0.88097985410599
  H   -0.84854369349051      1.31713153239537      1.58659867923347
  H   -2.26149775101237      0.53659521328272      0.92472868735861
  N   1.65394836408158      0.97268288654072      0.87569743342789
  O   1.05068853358144      1.65865666952177      1.71378753414422
  O   2.87398939911980      0.96528947308986      0.73832593018108
  C   1.63844671697543     -0.63885632436008     -0.92627612185354
  N   2.21346953195724     -1.29570337970601     -1.71529568738935
