14
Coordinates from ORCA-job run
  C   -0.48979660502867      0.00456615925393      0.12176571317653
  C   0.87500192101649      0.11302348914517     -0.05320524919860
  C   -1.27834405398937     -0.88365050356405     -0.79876034186848
  H   -1.60865421777029     -0.30747500998521     -1.66748039077360
  H   -2.16226718387702     -1.27162288153213     -0.28747937091914
  H   -0.68579290280152     -1.72310398179370     -1.15756983652111
  N   -1.20180399926326      0.71194672236650      1.00839989044698
  H   -2.17316628121697      0.49487074464755      1.14701013242185
  H   -0.71446782028373      1.29481220361422      1.67255372795352
  N   1.72165988697526      0.94413040871410      0.76759284470155
  O   2.92790861181499      0.92727723189007      0.53924479293078
  O   1.18915277710569      1.62806866699258      1.65444523851765
  C   1.55046239607158     -0.64146778048440     -1.04983146010651
  N   2.05010747124683     -1.29037546926462     -1.89468569076144
