14
Coordinates from ORCA-job run
  C   -0.44096683493204      0.17216433718307     -0.15371583736757
  C   0.91823035601214      0.02564905053021     -0.00283930220646
  C   -1.48934692226567     -0.72188067441089      0.43541594828853
  H   -2.35842748042199     -0.76128542208598     -0.22532576520689
  H   -1.80696988820180     -0.29449830600911      1.38913298179445
  H   -1.12520574949580     -1.71976428388709      0.63796242511115
  N   -0.91780604154418      1.19702978654283     -0.89028723529847
  H   -1.90261153069703      1.39545129258720     -0.90391579823598
  H   -0.29814188632486      1.92404588273028     -1.21699144433201
  N   1.56266281000100     -1.05261572545352      0.71569513724075
  O   0.91344566348162     -1.69688958276720      1.53951945581456
  O   2.75108343713510     -1.23599639753985      0.45329091951624
  C   1.79079963316534      0.96210593376632     -0.61731992447051
  N   2.40425443408816      1.80748410881371     -1.16162156064778
