14
Coordinates from ORCA-job run
  C   -0.49771242122995      0.08008123365520      0.03771483830359
  C   0.88175287939405      0.03735245000851      0.02787781544849
  C   -1.26892805551460     -1.03845880584988     -0.60368641716779
  H   -2.23750864878918     -0.67919750976886     -0.95807085770802
  H   -0.72895323384794     -1.47256321154809     -1.44306576177577
  H   -1.44436014258208     -1.82957975300957      0.13020021923110
  N   -1.22541723006465      1.01170140928594      0.66719831653345
  H   -0.75345096352315      1.80332723100305      1.07820138339810
  H   -2.22070534540938      1.03572091908438      0.53091229454401
  N   1.71661261144230      1.05241198698533      0.62389071621075
  O   1.16489498545376      1.99385017867702      1.21269188297407
  O   2.93274309747741      0.92291855148686      0.51668512763571
  C   1.58054877549697     -1.01000969789781     -0.63084536284079
  N   2.10048369169645     -1.90555498211206     -1.18970419478689
