14
Coordinates from ORCA-job run
  C   -0.44195073530614      0.15962385918148     -0.16370943866908
  C   0.91875020955526      0.06033278368035      0.00369062920718
  C   -1.46781827345984     -0.70228615326662      0.50760674049073
  H   -1.72438899454953     -0.26586965044243      1.47444264743676
  H   -2.37153836371504     -0.74409765788818     -0.10471506393855
  H   -1.10151275176860     -1.70700767934016      0.68820713838285
  N   -0.94252153782228      1.11074333475305     -0.98645576470440
  H   -0.34793839823752      1.83919575042712     -1.35166492362072
  H   -1.93207894120226      1.28791045837598     -0.96012958214736
  N   1.57417061903288     -0.96079943164267      0.79157390121894
  O   2.75869642744043     -1.16963725475886      0.53548354999926
  O   0.92836239938670     -1.53305409203310      1.67107143873452
  C   1.78002467427757      0.91787211378099     -0.73246185914775
  N   2.37074366636838      1.70907361917306     -1.37393941324238
