14
Coordinates from ORCA-job run
  C   -0.46311929728770      0.20212735626437      0.02030910946824
  C   0.90849662253986      0.11118944051678     -0.05888728085831
  C   -1.39133678524726     -0.95485122758081      0.24397267892378
  H   -1.21548190247068     -1.74490896489339     -0.48379427904284
  H   -1.21980725116199     -1.39244439376783      1.22719548808562
  H   -2.42876833907746     -0.62172912181915      0.17699607470530
  N   -1.04935499890627      1.41687205736198     -0.04842306433116
  H   -0.50594270325908      2.23202198995456     -0.29115057022298
  H   -2.04379679448720      1.47600314416678     -0.17658634634785
  N   1.65249466092526     -1.12376081676985      0.04745637540683
  O   2.85972608357960     -1.05255567118273     -0.17758771139331
  O   1.05106118472137     -2.15316878054934      0.35647339028237
  C   1.67559453768477      1.27879346174313     -0.31301263510726
  N   2.17023498244677      2.32641152655551     -0.52396122956842
