14
Coordinates from ORCA-job run
  C   -0.48822138593470     -0.04043089217010      0.11912161642490
  C   0.86265055438353      0.18500893442081     -0.04899574232110
  C   -1.22116517593474     -0.89165452524239     -0.87875214115847
  H   -2.04775032112959     -1.41649819375523     -0.39429645217121
  H   -1.63410596680487     -0.25518980133557     -1.66612976064644
  H   -0.56732782566457     -1.62558734759610     -1.34561237474596
  N   -1.24305699829695      0.52988083043857      1.06817523445122
  H   -2.18739652907564      0.21256764577717      1.19972412948078
  H   -0.78990244144761      1.07148023868865      1.78923306894607
  N   1.65529083467474      0.99024547640274      0.84945804369204
  O   1.08157431807559      1.55071861352675      1.79487109225702
  O   2.85905097149180      1.07498145784355      0.62403107900480
  C   1.58686185564038     -0.42570763478913     -1.10821717448608
  N   2.13349811002265     -0.95881480220973     -2.00361061872756
