14
Coordinates from ORCA-job run
  C   -0.46977331707785      0.17297373442933     -0.08019008292961
  C   0.89348039040664      0.16599955631872      0.10757972040825
  C   -1.33431729551868     -1.04912270985338     -0.16256916437017
  H   -2.35621543286594     -0.76632850956598     -0.42055305387434
  H   -1.33167379095737     -1.59045394681359      0.78308069270628
  H   -0.95482214640413     -1.74055255812952     -0.91354829128271
  N   -1.10363925944496      1.35212933019927     -0.27432352482122
  H   -2.10588737732998      1.38118324755539     -0.21045526605620
  H   -0.61341036055730      2.21873338550616     -0.10992609935598
  N   1.69056950060113     -1.03068521281536      0.26451324362715
  O   2.91003497397676     -0.87112973714683      0.29927419010535
  O   1.11793784063086     -2.11693997163194      0.35475534210896
  C   1.60399610599839      1.39361426575363      0.16320884310237
  N   2.05272016854244      2.48157912619411      0.19815345063187
