14
Coordinates from ORCA-job run
  C   -0.47974286444724      0.16520244986458     -0.01787502756065
  C   0.89662327967452      0.18135336971219     -0.00600834562613
  C   -1.32621111641269     -1.07159166518867     -0.02646349181913
  H   -1.13277104726955     -1.68509757285503      0.85198039231856
  H   -2.38425250664599     -0.80383452004134     -0.06361752007633
  H   -1.08456655606596     -1.69348994912848     -0.88853161636541
  N   -1.15153965824608      1.33569616761205     -0.08509621309584
  H   -2.14019165219089      1.34412560651957      0.09402872542992
  H   -0.65907541548150      2.20992259527467      0.02713192722742
  N   1.72884651175551     -1.00177909183002      0.01918417254071
  O   2.94433895359460     -0.81149352359395      0.02134233138354
  O   1.18697196375885     -2.10754514325223      0.03414093561925
  C   1.58701247990933      1.42182981489094      0.01270715198872
  N   2.01555762806706      2.51870146201572      0.02707657803535
