14
Coordinates from ORCA-job run
  C   -0.49765349567414      0.09093580984817      0.02836162164019
  C   0.87988392299316      0.01295942369531      0.05861749062009
  C   -1.27232865770480     -0.97204083130276     -0.69809622042678
  H   -2.23904713867248     -0.58462109771349     -1.02643381540455
  H   -1.44996425510696     -1.81671571298490     -0.02694606643640
  H   -0.73071716523164     -1.34298105910590     -1.56653690009253
  N   -1.22274530072169      1.00384623299741      0.68788430675514
  H   -0.74447199310707      1.76220511704897      1.15140591652425
  H   -2.21080282448382      1.06528183294464      0.51586822264301
  N   1.71982150115649      0.97234255299287      0.73414919523768
  O   2.93526765725288      0.81685702571312      0.65778556653950
  O   1.17251842624392      1.89657749280586      1.35373837397527
  C   1.57246181759169     -1.01429927111610     -0.63704617785820
  N   2.08677750546447     -1.88834751582319     -1.23375151371669
