14
Coordinates from ORCA-job run
  C   -0.49092746194545      0.11323955526199      0.00109897900389
  C   0.87413440226330     -0.04791745947021      0.12352283301701
  C   -1.25829516838134     -0.78921510335326     -0.92307379936435
  H   -2.11844576005704     -0.26102029648296     -1.34041460362446
  H   -1.62557873268766     -1.65427273082091     -0.36452117546799
  H   -0.64130571161053     -1.15278311197257     -1.74216054604340
  N   -1.22443560506412      0.96815429889870      0.72643352735182
  H   -0.75249757312420      1.62432738903774      1.33066834950441
  H   -2.19164024918300      1.10763163865436      0.49217673808142
  N   1.69851540690773      0.75974400003861      0.99079938587892
  O   2.90799551160310      0.54895802161750      0.98274515727658
  O   1.14465728415678      1.61637553704046      1.69549421649482
  C   1.57679068829760     -1.00865569812438     -0.65285331634965
  N   2.10203296882483     -1.82256604032507     -1.32091574575902
