14
Coordinates from ORCA-job run
  C   -0.48373521845010      0.14294694643194     -0.01209805419066
  C   0.87429741327596     -0.07009386284615      0.11766360718605
  C   -1.27821602162468     -0.73109195785335     -0.94085160878311
  H   -0.67881512683757     -1.07796420252007     -1.78049459978281
  H   -2.14161028612406     -0.18643514077993     -1.32857206467564
  H   -1.63751576645723     -1.60991735620529     -0.39844615917849
  N   -1.17791776922737      1.05793079954003      0.67334604097255
  H   -2.16931491913531      1.14297087071873      0.53633417052141
  H   -0.70185118006467      1.64360194699924      1.34288027622869
  N   1.71940654984884      0.68633449703739      1.00873302439421
  O   1.19613198691220      1.57133269693760      1.70248541314717
  O   2.91524155909177      0.40912508635552      1.03025632058403
  C   1.53686716774133     -1.06873704043198     -0.64521164587921
  N   2.02703161105088     -1.91000328338367     -1.30602472054419
