14
Coordinates from ORCA-job run
  C   -0.48524339614375     -0.03625066134350      0.09959937157842
  C   0.87418695034182      0.16561303178065     -0.03003342678716
  C   -1.21815867954645     -0.89019480026611     -0.89600691122415
  H   -1.95486645311673     -0.28063340159247     -1.42660841900966
  H   -1.74999770982634     -1.68880709031882     -0.37179119090390
  H   -0.55044404165428     -1.33977717868857     -1.62665114279507
  N   -1.24353673456617      0.49351055114220      1.06733683145399
  H   -0.81994365467346      1.08246555639286      1.76785017577991
  H   -2.22808439951589      0.29515253692513      1.09602665386301
  N   1.64909564202653      0.97419593047864      0.88262859069610
  O   2.85484257834656      1.07029621421061      0.67210212354013
  O   1.05984109481804      1.52606823365372      1.82349448698928
  C   1.62097021163887     -0.42822111517242     -1.08371722048325
  N   2.19133859187124     -0.94241780720192     -1.97522992269767
