14
Coordinates from ORCA-job run
  C   -0.46713881570422      0.16809808438721     -0.02158039646789
  C   0.83931774849514     -0.26135571738526     -0.13834941564675
  C   -1.22210373298886     -0.05550940117398      1.25822999392761
  H   -0.63836919127390     -0.60327565978897      1.99366652511237
  H   -2.13595153075578     -0.61736992429192      1.04888788504527
  H   -1.50516890355480      0.90929948575807      1.68869878075831
  N   -1.16069738600167      0.76916718132072     -0.99727558839220
  H   -0.69863355334092      0.99798269607475     -1.86407545691523
  H   -2.08418969977548      1.11758704554412     -0.80941924375022
  N   1.63660683432937     -0.07290481968191     -1.32925984558121
  O   1.11761113189813      0.50103296816407     -2.29753655364251
  O   2.78919677578666     -0.49494941063349     -1.31292535515740
  C   1.51057613977412     -0.91139033180219      0.93280704428651
  N   2.01894418311207     -1.44641219649121      1.84913162642333
