14
Coordinates from ORCA-job run
  C   -0.48911057519650      0.12358032400927      0.02031331798011
  C   0.87626474704689     -0.06410905637136      0.09376885334784
  C   -1.29811722279347     -0.73966388758024     -0.90577217646089
  H   -0.72716659858588     -1.04022550921703     -1.78231247973280
  H   -1.60966709902885     -1.64560048831475     -0.37880506044769
  H   -2.19428720323896     -0.20952225524072     -1.23550485606386
  N   -1.18414205161138      0.96688717797689      0.79467359251852
  H   -0.68397262589681      1.59022180753144      1.41046753017933
  H   -2.15671536544966      1.12755619714173      0.59968041262066
  N   1.74209374213478      0.70329590095987      0.95630602765953
  O   2.94773689888496      0.47861100311833      0.89669316564296
  O   1.22524650853130      1.54046678643653      1.71099387554673
  C   1.53375634187652     -1.01300540391148     -0.73476143158673
  N   2.01808050332707     -1.81749259653846     -1.44374077120371
