14
Coordinates from ORCA-job run
  C   -0.47084493522235      0.14903153379612     -0.05196035720344
  C   0.85639435281028     -0.22678768803511     -0.08567265513504
  C   -1.27135295532408     -0.02690597211009      1.20758052469769
  H   -1.67420108896511      0.93954921916505      1.52369266932148
  H   -2.10907624274780     -0.70151431983513      1.01361519809489
  H   -0.67842803743812     -0.43624991439621      2.02177583399627
  N   -1.15232015327276      0.63454404725995     -1.09876458195567
  H   -2.08876875287814      0.97373606783533     -0.96263892172087
  H   -0.66121741096646      0.83800114327227     -1.95580475355808
  N   1.69527545568433     -0.08808141768328     -1.25438615752696
  O   2.86322454356643     -0.45454500606957     -1.16032136144132
  O   1.19337322623643      0.38848016849888     -2.28259709572350
  C   1.50762791453779     -0.76823814428242      1.05660742035065
  N   1.99031408397954     -1.22001971741581      2.02987423780390
