14
Coordinates from ORCA-job run
  C   -0.44541006594572      0.19910962181700     -0.14137826678444
  C   0.91271117524610      0.05101213893253      0.02538027388197
  C   -1.48684138593632     -0.71050813452080      0.43900185986933
  H   -1.30392335128026     -1.74485429601295      0.15277367545870
  H   -2.47990206154296     -0.40872392812830      0.10118106999338
  H   -1.45540248755039     -0.67959792720604      1.52784009044790
  N   -0.91513518644036      1.26331051135740     -0.82937715241574
  H   -0.27819637851591      1.86087214844960     -1.33560889198629
  H   -1.87640487514129      1.27093688918314     -1.12197279455802
  N   1.53307787241611     -1.00419994774446      0.79497904740583
  O   2.76305564690178     -1.03038495323371      0.78876238835963
  O   0.81369595332439     -1.79532759005937      1.40600726444989
  C   1.80360038515599      0.95654256766149     -0.60993148193908
  N   2.41507475930885      1.77181289950446     -1.19965708218306
