14
Coordinates from ORCA-job run
  C   -0.49300981383605      0.08641281747288      0.03076514244426
  C   0.88309943581034     -0.00770541169827      0.06894478101316
  C   -1.27784513299080     -0.87709461566692     -0.81364016501430
  H   -1.63742908940603     -1.69842835931436     -0.18795386946505
  H   -0.67905075554889     -1.29914351824682     -1.61778688355106
  H   -2.14442402892872     -0.37463954305246     -1.24928169101005
  N   -1.21907783149624      0.93443413105163      0.77121285419938
  H   -0.74489339841962      1.62400109907361      1.33451063007630
  H   -2.20632941330027      1.01592286143521      0.60204121051627
  N   1.72052858922922      0.87339858247631      0.84868785580869
  O   2.93635056109630      0.73852065404112      0.74686511673985
  O   1.17030236292408      1.71334485755439      1.57585426767233
  C   1.58307633595395     -0.96021974016791     -0.72031853325458
  N   2.10870217891272     -1.77180381495839     -1.39090071617521
