14
Coordinates from ORCA-job run
  C   -0.44139238211151      0.15419733250603     -0.19519661520961
  C   0.89497202006701      0.13819736241906      0.13292404736112
  C   -1.45047813499403     -0.85941419254543      0.25589310725900
  H   -2.41887758980901     -0.65735890411692     -0.20566070378342
  H   -1.13024250489032     -1.86907004261606      0.00470837049281
  H   -1.55971609609642     -0.82843706992064      1.33975306241125
  N   -0.92943118800343      1.17652316862929     -0.93277823552071
  H   -0.29745450827723      1.83627017305235     -1.36205155514561
  H   -1.84011759534491      1.08499452040322     -1.34742887901690
  N   1.52053851259364     -0.85991774316839      0.97177685392842
  O   2.74230415663716     -0.78153766550352      1.09120168280236
  O   0.81196443130430     -1.71243815468165      1.50806785919196
  C   1.75761152862560      1.14184161307090     -0.38215274175866
  N   2.33931935029916      2.03714960247176     -0.87905625301201
