14
Coordinates from ORCA-job run
  C   -0.49158105666373      0.08760408324232      0.05650749669653
  C   0.88483468016253      0.00080655440325      0.01406007249345
  C   -1.31862914146026     -0.92479814638669     -0.68420116837335
  H   -2.22955827551437     -0.45938120531758     -1.06788610613702
  H   -1.60689722142309     -1.72808621974109     -0.00051610420557
  H   -0.77525519461093     -1.36632549617945     -1.51699922966161
  N   -1.17650518355410      0.96832017233050      0.79882038569854
  H   -0.67096638592982      1.69593658499065      1.28202989640692
  H   -2.17110571525232      1.04462013257970      0.67717219885391
  N   1.76316251921131      0.92198569827946      0.69569625203680
  O   2.97169934152435      0.77892432480084      0.53469944313844
  O   1.25339789396964      1.80286255450122      1.40386411294656
  C   1.54021946405485     -0.99043689724221     -0.76539952895347
  N   2.02718427548595     -1.83303214026093     -1.42684772094011
