14
Coordinates from ORCA-job run
  C   -0.49013373919729      0.11404283579761      0.03983328438342
  C   0.87925328844537     -0.05541051998398      0.06758081654938
  C   -1.31006744767924     -0.70313309746553     -0.91818544295011
  H   -1.59827155102674     -1.64347421852756     -0.44051615126525
  H   -2.21983831205767     -0.16618649098595     -1.19531535760596
  H   -0.75578070970141     -0.94217225307735     -1.82388556521194
  N   -1.17734720397670      0.89787687931056      0.88101176952300
  H   -0.67000692321366      1.49334858554866      1.51838061211284
  H   -2.15687196574351      1.05396860825209      0.71976673623770
  N   1.75535614737740      0.66897988178152      0.95667648896166
  O   1.24644614581424      1.45637079434894      1.76808904446379
  O   2.96145260679736      0.46134202211144      0.85943196428959
  C   1.52926039763271     -0.94247066571850     -0.83208533179268
  N   2.00754926652914     -1.69308236139194     -1.60178286769544
