14
Coordinates from ORCA-job run
  C   -0.49555273006474      0.07469551492401      0.05820425425412
  C   0.88275462217285      0.03979842578086     -0.00184450685718
  C   -1.28636474142153     -1.02606097313667     -0.59014387973885
  H   -2.25519166700262     -0.65026973341875     -0.92687750557857
  H   -1.46233316300812     -1.82425339720744      0.13623683479440
  H   -0.76283488618973     -1.45467076310603     -1.44251990362604
  N   -1.20483398964810      0.98110704074905      0.74372868636209
  H   -2.20388355001667      1.00545869056326      0.63867825864589
  H   -0.72223965196858      1.76240332507110      1.16229031533068
  N   1.73319517425557      1.04213957095833      0.59434121422024
  O   2.94490607788910      0.92794319031814      0.43301212894414
  O   1.19823968986048      1.95817379797158      1.23637321619720
  C   1.56356457096081     -0.98167772909746     -0.71745320722685
  N   2.06957424418128     -1.85378696036997     -1.32402590572128
