14
Coordinates from ORCA-job run
  C   -0.49930328506198     -0.00201776703717      0.07753485833579
  C   0.87482181417014      0.11585717949857      0.02793509290378
  C   -1.20332705228143     -0.81911444097460     -0.96807151376483
  H   -0.66680647894916     -0.81593340335132     -1.91491263151596
  H   -2.21195388084868     -0.43429382528922     -1.13360402955158
  H   -1.28321948964868     -1.85569704603289     -0.62960578185544
  N   -1.26952785637597      0.48603571523208      1.05916039333113
  H   -0.84595425162497      1.08598110693694      1.75195409281684
  H   -2.26850642007244      0.47030720995472      0.95115697775187
  N   1.64566162964051      0.87232937485082      0.98512393641116
  O   2.85983156834909      0.93615424336281      0.81319334230147
  O   1.04543172008635      1.41433561926573      1.92504175473464
  C   1.62687037609849     -0.47167373182117     -1.02493944672021
  N   2.19498160651870     -0.98227023459529     -1.91996704517866
