15

C	-0.499109	0.020681	-1.414509
C	0.0	0.0	0.0
F	-1.869095	0.20051	-1.454725
H	1.093994	0.0	0.0
H	-0.340085	0.938298	0.447347
N	0.070621	1.231688	-2.157145
O	-0.267944	2.317492	-1.703916
O	0.785328	1.027135	-3.130534
C	-0.198425	-1.192184	-2.186115
N	-0.078855	-2.211103	-2.757324
C	-0.524557	-1.208441	0.766725
H	-0.119412	-2.135541	0.35562
H	-0.189094	-1.140697	1.803069
H	-1.616224	-1.262592	0.75678
Cl	3.382003	0.0	0.0
