15

C	-0.448357	-0.004177	-1.43777
C	0.0	0.0	0.0
F	-0.016586	-1.119436	-2.08108
H	1.093915	0.0	0.0
H	-0.335943	-0.954389	0.419289
N	-1.987453	-0.074492	-1.468019
O	-2.478688	-1.189477	-1.357286
O	-2.596055	0.98978	-1.517703
C	-0.062964	1.186711	-2.207627
N	0.245036	2.135676	-2.826381
C	-0.516747	1.187273	0.80262
H	-1.603566	1.187441	0.919055
H	-0.062007	1.156457	1.793951
H	-0.218835	2.130642	0.33926
Cl	3.38467	0.0	0.0
