15

C	-0.47433	0.05406	-1.430119
C	0.0	0.0	0.0
F	-0.065155	1.18334	-2.060275
H	1.097125	0.0	0.0
H	-0.338951	-0.948922	0.422367
N	0.087574	-1.142703	-2.212768
O	-0.265381	-2.236964	-1.789267
O	0.802935	-0.909074	-3.170561
C	-1.942415	-0.039886	-1.559001
N	-3.11405	-0.082081	-1.628842
C	-0.520271	1.186877	0.80185
H	-1.612759	1.203403	0.870735
H	-0.178828	2.124238	0.360601
H	-0.111463	1.134082	1.8124
Cl	3.404884	0.0	0.0
