15

C	-0.453847	-0.264321	-1.411859
C	0.0	0.0	0.0
F	-0.046541	-1.476443	-1.860843
H	1.095381	0.0	0.0
H	-0.332434	1.006104	0.270215
N	-1.996165	-0.295231	-1.42282
O	-2.544377	-1.376138	-1.584757
O	-2.54258	0.779083	-1.199516
C	-0.065038	0.772657	-2.377739
N	0.230082	1.591096	-3.166983
C	-0.527804	-1.043503	0.977246
H	-0.057304	-0.878607	1.947699
H	-0.260891	-2.048884	0.648851
H	-1.6131	-0.992169	1.107987
Cl	3.397492	0.0	0.0
