15

C	-0.538352	-0.18494	-1.391442
C	0.0	0.0	0.0
F	-1.901252	-0.355929	-1.380348
H	1.100105	0.0	0.0
H	-0.347017	0.97367	0.360496
N	-0.29294	1.060781	-2.265122
O	0.759664	1.65207	-2.08296
O	-1.168355	1.332986	-3.078763
C	0.041545	-1.325057	-2.11704
N	0.432994	-2.264044	-2.703799
C	-0.473954	-1.127798	0.91451
H	-0.039882	-0.977615	1.904406
H	-1.561317	-1.166175	1.006476
H	-0.115172	-2.094549	0.552103
Cl	3.419389	0.0	0.0
