15

C	-0.44501	0.256264	-1.415624
C	0.0	0.0	0.0
F	-0.001605	-0.717782	-2.2505
H	1.100698	0.0	0.0
H	-0.3352	-1.014776	0.238483
N	-1.983633	0.184306	-1.465725
O	-2.468292	-0.933638	-1.578055
O	-2.598255	1.235422	-1.31077
C	-0.06541	1.570501	-1.951581
N	0.237901	2.614699	-2.394568
C	-0.517189	1.021978	1.003839
H	-1.604255	1.004566	1.114785
H	-0.215353	2.032803	0.721581
H	-0.066263	0.809117	1.974108
Cl	3.384216	0.0	0.0
