15

C	-0.484465	-0.011074	-1.432639
C	0.0	0.0	0.0
F	-0.159507	1.150365	-2.057466
H	1.094999	0.0	0.0
H	-0.329745	0.968233	0.392126
N	0.16574	-1.147433	-2.232982
O	-0.216671	-2.272896	-1.927806
O	0.98386	-0.845504	-3.082095
C	-1.941284	-0.210727	-1.560258
N	-3.1081	-0.324215	-1.637963
C	-0.518965	-1.136519	0.87287
H	-0.152572	-0.978751	1.888953
H	-0.13955	-2.098183	0.531226
H	-1.611632	-1.181749	0.901378
Cl	3.401912	0.0	0.0
