15

C	-0.446654	0.399257	-1.383137
C	0.0	0.0	0.0
F	0.099507	-0.403268	-2.327276
H	1.102054	0.0	0.0
H	-0.321101	-1.039525	0.127281
N	-1.972263	0.188446	-1.485903
O	-2.344839	-0.921249	-1.84074
O	-2.686542	1.12249	-1.134804
C	-0.197434	1.805729	-1.728109
N	-0.007228	2.928196	-2.016663
C	-0.52565	0.899293	1.110446
H	-0.211347	1.933364	0.951819
H	-1.61407	0.878715	1.20291
H	-0.089651	0.570775	2.055771
Cl	3.386678	0.0	0.0
