16

C	0.0	0.0	0.0
C	-0.418585	-0.277962	-1.460232
F	1.417521	0.0	0.0
H	0.140723	-1.175865	-1.762473
N	-0.561837	1.189434	0.446285
H	-0.346117	1.440883	1.397109
H	-0.436339	1.925685	-0.233588
C	-0.354414	-1.135378	0.875447
N	-0.565563	-2.072224	1.550244
N	-0.019446	0.913481	-2.216832
H	-0.568677	0.899059	-3.067197
H	0.965354	0.867757	-2.448144
N	-1.813584	-0.512	-1.676831
H	-2.431759	0.085448	-1.123781
H	-2.077296	-1.456862	-1.431391
Cl	-4.619475	0.0	0.0
