16

C	0.0	0.0	0.0
C	-0.385941	0.303704	-1.483152
F	1.373654	0.0	0.0
H	0.354923	-0.284581	-2.04039
N	-0.53988	0.946966	0.921198
H	-1.558716	0.916436	0.829745
H	-0.313317	0.673041	1.87107
C	-0.358531	-1.413798	0.314426
N	-0.576424	-2.5365	0.582715
N	-0.130957	1.720215	-1.714971
H	-0.411317	2.246065	-0.895823
H	-0.733902	1.98518	-2.484588
N	-1.682191	-0.106171	-1.952803
H	-1.744994	-1.115515	-2.011238
H	-2.456324	0.185729	-1.352278
Cl	-4.161115	0.0	0.0
