16

C	0.0	0.0	0.0
C	-0.576232	-0.153335	-1.400246
F	1.431071	0.0	0.0
H	-1.647098	-0.31473	-1.218016
N	-0.491774	1.159929	0.592263
H	-0.101761	1.353429	1.500402
H	-0.470204	1.93239	-0.057622
C	-0.309173	-1.189021	0.828382
N	-0.495014	-2.113926	1.525397
N	0.007067	-1.329869	-2.009741
H	-0.466935	-1.542483	-2.877836
H	0.99277	-1.178357	-2.190662
N	-0.429117	1.12162	-2.110444
H	-1.25832	1.293783	-2.662636
H	0.378319	1.090094	-2.719546
Cl	-3.952627	0.0	0.0
