16

C	0.0	0.0	0.0
C	-0.359956	0.420176	-1.47378
F	1.373672	0.0	0.0
H	0.476719	-0.017852	-2.033836
N	-0.558936	0.855936	0.990759
H	-0.354115	0.494656	1.916333
H	-1.577363	0.822193	0.872187
C	-0.348239	-1.440309	0.181495
N	-0.54921	-2.586557	0.34246
N	-0.280209	1.871936	-1.558581
H	-0.60176	2.280738	-0.690137
H	-0.919173	2.142108	-2.296358
N	-1.566859	-0.089943	-2.07156
H	-1.499221	-1.093068	-2.202556
H	-2.386649	0.074214	-1.482462
Cl	-3.943959	0.0	0.0
