16

C	0.0	0.0	0.0
C	-0.295799	0.265635	-1.511615
F	1.386647	0.0	0.0
H	0.205601	-0.576118	-2.010636
N	-0.521086	1.018927	0.840361
H	-1.478649	1.21853	0.554613
H	-0.559137	0.708632	1.803655
C	-0.375122	-1.383969	0.375603
N	-0.602094	-2.502468	0.653565
N	0.369955	1.48816	-1.962879
H	1.247566	1.61644	-1.473035
H	-0.251785	2.252798	-1.730154
N	-1.682769	0.360951	-1.848201
H	-1.911712	-0.206203	-2.648954
H	-2.369524	0.149009	-1.119643
Cl	-4.175219	0.0	0.0
