15
Coordinates from ORCA-job run
  C   0.74932169694692     -0.55733870991671     -0.18459045134817
  C   -0.71528604171971     -0.09008636943644     -0.34969506966372
  Br  0.91377687650483     -2.45274023440857     -0.61737867026700
  H   -1.02968794541766     -0.32603524190175     -1.37463497992244
  C   1.58220141239032      0.16078034603564     -1.16525895999259
  N   2.22624594621137      0.79829851306769     -1.91519948446879
  N   1.13990558153576     -0.34644874085062      1.18629148223258
  H   1.03403112324936      0.64581518544953      1.37867595568254
  H   2.10023778109777     -0.62941702097814      1.33872093285793
  N   -0.68508722220517      1.35651861236618     -0.07342837524987
  H   -1.61755235231022      1.66646425994683      0.17019062832419
  H   -0.38782375329870      1.87620243843750     -0.89305469930036
  N   -1.54197758195364     -0.83057214818636      0.55512923998555
  H   -2.51925059267706     -0.60083242231978      0.43588475535902
  H   -1.25005492835417     -0.66960846730500      1.51034769577113
