15
Coordinates from ORCA-job run
  C   0.75673605155272     -0.55170725302087     -0.16903747229481
  C   -0.70865709005834     -0.09828450314955     -0.36194501346662
  Br  0.94542002800642     -2.44772050637395     -0.58873428893880
  H   -1.00307362161298     -0.34242695666177     -1.39087802151176
  C   1.60086738697828      0.16902913329502     -1.13805712755004
  N   2.25333813649732      0.80897150434961     -1.87858512903867
  N   1.12168679855844     -0.33075472445084      1.20758051211369
  H   2.08146011305522     -0.60567166495218      1.37777681160823
  H   1.00575751478907      0.66184816882652      1.39278378618867
  N   -0.69599223479340      1.34993848397056     -0.09273592468470
  H   -1.63587887511038      1.65285541261139      0.13110676209120
  H   -0.38785727117716      1.86777454822073     -0.90954296170852
  N   -1.54424851306600     -0.84132080071778      0.53252380758989
  H   -1.26930748046949     -0.67341683591915      1.49157114246930
  H   -2.52125094314971     -0.62011400602774      0.39617311713294
