15
Coordinates from ORCA-job run
  C   0.74752635444720     -0.35511806966444      0.11762121294191
  C   -0.63858707601884      0.23410031686443     -0.20473521863873
  Br  0.56680863848280     -1.99316568356652      1.17329542399080
  H   -0.41222594880280      1.11578016724631     -0.83225481856953
  C   1.41836947340740     -0.73037045498208     -1.13489506856638
  N   2.03872754846358     -0.93259067121407     -2.11295328659826
  N   1.50217459467470      0.59602538579295      0.91417242164185
  H   2.36630952023908      0.17547844662513      1.23734048558687
  H   1.74303998307748      1.39162511122802      0.32842766272589
  N   -1.30892200229983      0.55592343212397      1.03924543722935
  H   -2.08561552822920      1.18008555762138      0.85856144396546
  H   -0.65924678568199      1.00988628614503      1.67209214219481
  N   -1.37037502912610     -0.68809594530830     -1.03635225446200
  H   -1.83796547715289     -1.35820630064275     -0.43591720946507
  H   -2.07001826548061     -0.20335757826906     -1.58264837397697
