15
Coordinates from ORCA-job run
  C   0.87435785406295     -0.34796663039602      0.04603720209824
  C   -0.56048180943535      0.23551456404321     -0.06337074468576
  Br  0.80700507402913     -1.97339920886948      1.18187795257848
  H   -0.41917488234109      1.12621676262839     -0.69965428037274
  C   1.32210323370011     -0.77913041594608     -1.27759404808791
  N   1.62634497508761     -1.06871966699889     -2.37540205584344
  N   1.81204033489636      0.56937919402147      0.61499687163051
  H   1.32680108763709      1.09352448354641      1.33709337213030
  H   2.18657696856598      1.19438878534729     -0.08830301257762
  N   -0.94862824081705      0.71483518855204      1.24264325473347
  H   -1.33088771236638     -0.06130624895464      1.77207627404297
  H   -1.65396492428225      1.43590613258764      1.16549739763394
  N   -1.49102791729389     -0.73479218379480     -0.60262895041947
  H   -2.38554556547055     -0.28876551248626     -0.76751136751233
  H   -1.16551847597268     -1.11568524328028     -1.48475786534865
