15
Coordinates from ORCA-job run
  C   0.73096709955209     -0.38772792677490      0.12055428125868
  C   -0.62651674014358      0.26190366530752     -0.20691600072936
  Br  0.47460576138979     -2.01530741238467      1.17687533930273
  H   -0.35883328113398      1.13229819355672     -0.83397478847480
  C   1.38853219430623     -0.79359135148825     -1.12952533256459
  N   2.00228158785034     -1.02376819214530     -2.10555143887038
  N   1.52429926763342      0.52984608615843      0.91889935211996
  H   2.36843758330168      0.07190734833569      1.24413619712738
  H   1.80139994661678      1.31369491361922      0.33330248592744
  N   -1.28629223564341      0.61416112122769      1.03439177758961
  H   -0.62022888893782      1.04015309391625      1.66954725337179
  H   -2.03495410429834      1.27066473486516      0.85023728128379
  N   -1.39596074842267     -0.62734415136691     -1.04018308675308
  H   -1.89535622254270     -1.27540015633458     -0.44127319839722
  H   -2.07038121952783     -0.11248996649206     -1.59052012219196
