15
Coordinates from ORCA-job run
  C   0.81368417495229     -0.39057902204448     -0.12891101546912
  C   -0.66138899460088     -0.01631866505767     -0.38052926734835
  Br  0.90132826340105     -2.44935161595091     -0.25048883168533
  H   -0.96439629017174     -0.47913827481866     -1.32699282550657
  C   1.67504396085228      0.05800464186184     -1.21785271298321
  N   2.38706289272820      0.40616681987797     -2.08487164034369
  N   1.22537219252014      0.11698695001461      1.10664067112117
  H   2.18714576058021     -0.08737966353509      1.33885184859813
  H   0.57677534895649     -0.16224943281987      1.83346795480356
  N   -0.70080825381529      1.41115492922134     -0.55292166237618
  H   -1.58697683303237      1.71607131493242     -0.93264536779078
  H   -0.51597947968205      1.87694206469476      0.32647145870040
  N   -1.42936138711037     -0.48186004781219      0.77606155547723
  H   -1.57176308206285     -1.48472875103044      0.72562800654150
  H   -2.33673827351511     -0.03272124753364      0.76709182826125
