15
Coordinates from ORCA-job run
  C   0.73271794709866     -0.38426557179562     -0.24120601719470
  C   -0.77258517074050      0.00584159087938     -0.25453092482141
  Br  0.81245080089459     -2.38933122653379     -0.68563489826335
  H   -1.18847764504756     -0.33395547795122     -1.21111870150871
  C   1.43562125938863      0.25149650236386     -1.35107218032856
  N   1.95646369980030      0.80683338026187     -2.24648138953125
  N   1.29770371981541     -0.04893078128139      0.99379603464320
  H   2.27259752154271     -0.29676457645373      1.08765368124572
  H   0.72286835259809     -0.41486374758829      1.74497317040982
  N   -0.96911416029253      1.43184187972759     -0.15680926281423
  H   -0.39017609981201      1.80326309060144      0.58783683667579
  H   -0.72070640321098      1.89203162686825     -1.02330271806902
  N   -1.37824724459434     -0.60223529587550      0.91693147116074
  H   -2.26058422307272     -0.13335479632151      1.07946486610837
  H   -1.54953235436774     -1.58760659690134      0.75950003228761
