15
Coordinates from ORCA-job run
  C   0.78339365268994     -0.39552178006381      0.13245240440083
  C   -0.72827717446068     -0.07167452914648      0.20464946818836
  Br  1.01521904443417     -2.32419996951336      0.62762754152974
  H   -1.04002261670888     -0.33222728010279      1.22942504984018
  C   1.25696350300954     -0.26781125655587     -1.24412673562031
  N   1.64002390152034     -0.16374187510163     -2.34975401386514
  N   1.51755530286757      0.47502624947347      0.99162722441159
  H   1.29394058339522      0.27404285709828      1.96043423034468
  H   2.51672566767485      0.36988479852841      0.86341852077912
  N   -1.46042607486562     -0.90634061248957     -0.70978026875871
  H   -2.39943813470468     -1.08412000115615     -0.38378028323945
  H   -1.49798145081654     -0.44971449090573     -1.61385657969246
  N   -0.85524785079419      1.33571776852551     -0.13697238408837
  H   -1.81178710625360      1.63746305397216      0.00217486888428
  H   -0.23264124698743      1.90321706743757      0.42446095688568
