15
Coordinates from ORCA-job run
  C   0.78027864276278     -0.40480656188874      0.12074824562326
  C   -0.72790963173159     -0.06869517787396      0.20714464823547
  Br  0.99647727119039     -2.34424494182140      0.58032069186626
  H   -1.03712871410206     -0.34675943051528      1.22803684983603
  C   1.24741499029444     -0.25680213566212     -1.25605228320840
  N   1.62481153460778     -0.13674656801911     -2.36188944754213
  N   1.52745457301539      0.44296170796416      0.99157979870514
  H   2.52481284764331      0.32971805239517      0.85608654877583
  H   1.30706959335879      0.22598321578814      1.95763173320064
  N   -1.47180631734072     -0.87886286459502     -0.71995740613832
  H   -1.51112992880671     -0.40246094547830     -1.61384726517924
  H   -2.41036370626256     -1.05612228712219     -0.39249012656239
  N   -0.84398126691672      1.34628360244694     -0.10605158468492
  H   -0.21163830208183      1.89620212355906      0.46205981680656
  H   -1.79636158563069      1.65435221082265      0.04767978026621
