15
Coordinates from ORCA-job run
  C   0.87167994485415     -0.51736697253204      0.08141738687214
  C   -0.62039225913093     -0.13753151889172      0.30073053101611
  Br  1.12002077879707     -2.40751137883921      0.52439715911320
  H   -0.86693494453098     -0.47803921394555      1.31355381718144
  C   1.18251675353148     -0.33518568848259     -1.34032681781144
  N   1.33679694313741     -0.15413334328933     -2.49113421262255
  N   1.80962128895592      0.24319834358713      0.87050012955276
  H   1.69212635053967      0.01405860430117      1.85143020206697
  H   1.59429334201587      1.22535769707371      0.72398488913824
  N   -1.45461827075367     -0.85365292439633     -0.62614545714457
  H   -2.43420570795535     -0.68199325593370     -0.44170878048705
  H   -1.24564609888879     -0.59781474369272     -1.58469244033047
  N   -0.68165534744500      1.32856328620208      0.22012426379270
  H   -0.97195980070418      1.73934577056225      1.09730214385331
  H   -1.33164297242267      1.61370533827686     -0.49943281419080
