15
Coordinates from ORCA-job run
  C   0.77256496150144     -0.51401119824401      0.19775990450460
  C   -0.72185896688653     -0.13490922493367      0.27541351311609
  Br  1.00037816532162     -2.36679090252448      0.76686686979334
  H   -1.07042012551868     -0.50237827482143      1.24764315785336
  C   1.23000716057177     -0.42861875272927     -1.19823118807276
  N   1.59088614269271     -0.29196360723963     -2.30904569390857
  N   1.51675221910204      0.32959977936844      1.10905193954725
  H   1.52286706652358      1.26690732237094      0.71711531880784
  H   2.47422976484739      0.00489224773832      1.18166365074601
  N   -1.44535980020902     -0.82029566910486     -0.75815415861082
  H   -1.26856840104850     -0.40263431128111     -1.66484979753468
  H   -2.43938816468642     -0.82032927652742     -0.57509798117307
  N   -0.77832497767639      1.32804762732285      0.17273852207475
  H   -0.73173375542557      1.74845822173233      1.09342208261024
  H   -1.65303128910945      1.60202601887301     -0.25529613975357
