15
Coordinates from ORCA-job run
  C   0.66974045477910     -0.54352855161493     -0.18999788852314
  C   -0.76306220960894      0.05652221895548     -0.32210301065909
  Br  0.60450375677883     -2.46170978541612     -0.59417167793990
  H   -1.12065477263796     -0.16366502217319     -1.33666039818200
  C   1.54310300585238      0.06128865987077     -1.20594789398273
  N   2.21780032592153      0.61912391624000     -1.99219843999702
  N   1.10949817639607     -0.36396373196523      1.16533968105588
  H   2.06405261161634     -0.67721652826535      1.29168585444475
  H   1.03384223146885      0.62877294438497      1.37293426187673
  N   -0.61059255246453      1.47775777968193     -0.03411019447353
  H   -1.52566028393728      1.83728328422114      0.20771867483867
  H   -0.26380410625232      1.98084438253421     -0.84271469746401
  N   -1.70626749963757     -0.48142859910921      0.62186925143369
  H   -1.25190896363327     -0.56676979891349      1.52529246531122
  H   -2.00159017464123     -1.40431116843098      0.33206401226047
