15
Coordinates from ORCA-job run
  C   0.83188422702245     -0.30818726426750      0.01426493619947
  C   -0.51893192382889      0.36693603140032     -0.28114638548608
  Br  0.39861031443584     -1.94385123648612      1.22712658470269
  H   -0.26000635765715      1.18770860704343     -0.95914595638600
  C   1.41664604487899     -0.91297753762811     -1.17748562110014
  N   1.90959281991718     -1.34984861242632     -2.15035426331562
  N   1.70354133046549      0.59812424304117      0.61470341516352
  H   2.59720292253337      0.20630429205006      0.87614311648347
  H   1.24008992395103      1.08224312783883      1.37470316563924
  N   -0.98073507845729      0.97438991448208      0.96196015868280
  H   -1.66703151777330      1.69168484710384      0.76410108145066
  H   -1.41393506427320      0.26889235809634      1.54746487687335
  N   -1.37629289193022     -0.53746814388211     -1.00664086704015
  H   -2.16587710303691     -0.04224782088628     -1.39978319664512
  H   -1.71475764624739     -1.28070280547965     -0.40791104522208
