15
Coordinates from ORCA-job run
  C   0.72298869574116     -0.36627904068316      0.13321331389717
  C   -0.77958379568160      0.00796242203857      0.21965005067333
  Br  0.88763597561462     -2.36829530773797      0.45367341572734
  H   -1.06986807094298     -0.18963928956768      1.26641936902412
  C   1.23519556307688     -0.13452927084680     -1.21379978847925
  N   1.65903140641081      0.10661671536813     -2.28275343917383
  N   1.46365682669509      0.38372551003908      1.08058216467914
  H   1.17839137669499      0.15203050281454      2.02519491518099
  H   2.46174761673454      0.24298571856675      0.98815439101596
  N   -1.52853444855613     -0.72768808562050     -0.76926656623089
  H   -2.47349529094440     -0.36356720404539     -0.77683675195063
  H   -1.55810330281411     -1.71492830073866     -0.55334041510355
  N   -1.00354612032545      1.40692219122245     -0.05314960534427
  H   -0.80363052051563      1.58449401682102     -1.03255511821941
  H   -0.39188591118778      1.98018942236962      0.51381406430379
