15
Coordinates from ORCA-job run
  C   0.82884954528612     -0.30749428007769      0.00661050985606
  C   -0.51913297419024      0.37995706138786     -0.27092859274218
  Br  0.38571635474330     -1.99042139541116      1.15036803381289
  H   -0.25469635347880      1.22798685999657     -0.91236402558635
  C   1.42235932929958     -0.86627070644761     -1.20319910498122
  N   1.95590951786755     -1.27439718015080     -2.16721008193647
  N   1.69699495497428      0.57266752940213      0.64870320249001
  H   1.22859267951356      1.02699543319758      1.42396064954058
  H   2.58867979485720      0.16997621390020      0.90021361239694
  N   -0.99134499342782      0.93596023102790      0.99190624190785
  H   -1.67765693373174      1.65949004580959      0.81816801411175
  H   -1.42679041006015      0.20659245316299      1.54575615234364
  N   -1.36982141325876     -0.49393008796480     -1.04081234622223
  H   -2.15920596174820      0.01640877193370     -1.41534600177493
  H   -1.70945313664588     -1.26352094976648     -0.47682626321634
