15
Coordinates from ORCA-job run
  C   0.80838406534732     -0.43524029536749      0.10712212095048
  C   -0.68503654811601     -0.08687894255038      0.33709138477591
  Br  1.02993359891763     -2.38164759640900      0.61807877575415
  H   -0.95946847227651     -0.52270371446470      1.30232775507009
  C   1.12794676302037     -0.39003713056582     -1.32279686261266
  N   1.35457515899990     -0.28653051741285     -2.47136085898905
  N   1.66655071202695      0.43528120030845      0.81036343760060
  H   1.32898936739434      0.62984472453814      1.74327639266338
  H   2.62588292628025      0.11571730183475      0.82079207103319
  N   -1.47345892723808     -0.76493189042284     -0.67013627649305
  H   -1.44565050382597     -0.26585772545344     -1.55183634736938
  H   -2.43626710577666     -0.85459239190569     -0.37504779678253
  N   -0.79705592907627      1.36094261068933      0.47151076417436
  H   -1.77859382950067      1.61293074097618      0.49631183588276
  H   -0.36673127617659      1.83270362620537     -0.31669639565825
