15
Coordinates from ORCA-job run
  C   0.83074938708120     -0.33120111408262     -0.17458827201949
  C   -0.67026757369681     -0.03131542809544     -0.36527324339849
  Br  1.03511401784243     -2.36900652370065     -0.43684423320473
  H   -0.97239752008848     -0.44917347156963     -1.33268370777066
  C   1.63551611193961      0.23826346010211     -1.25019702942482
  N   2.30452189674649      0.68418590828916     -2.10663042580212
  N   1.24594529433709      0.11835431769418      1.08173138200068
  H   0.63499919208293     -0.24465028548614      1.80399879999833
  H   2.22417427094181     -0.04093528832216      1.27711579764847
  N   -0.79829824370189      1.39945076884679     -0.44133734874514
  H   -0.61465753042539      1.81651975443655      0.46241938398188
  H   -1.71246514656391      1.67394768270388     -0.77529985544437
  N   -1.37616918628070     -0.61660190164599      0.77644887066945
  H   -2.30921324397545     -0.22569723257686      0.81853703822361
  H   -1.45855172623891     -1.62114064659318      0.66360284328738
