15
Coordinates from ORCA-job run
  C   0.69031637817225     -0.37154961844446      0.11663522721347
  C   -0.66927695940783      0.34210437576267     -0.12756506002907
  Br  0.43675919694029     -2.03746958038472      1.10395413589149
  H   -0.37936631786125      1.25363213617710     -0.68674260598293
  C   1.26148627632310     -0.74140358146794     -1.18725818262810
  N   1.71720036165741     -0.94865422916034     -2.25178368130056
  N   1.54406388612501      0.49288784925850      0.90785982715212
  H   1.78645555334233      1.31097901021390      0.35518049502105
  H   2.40314272120061      0.01571199860822      1.15726560426739
  N   -1.28533246503569      0.59262373970010      1.14890684788980
  H   -2.10981224347309      1.16130586269464      1.00644496745921
  H   -0.63761306772464      1.06087469609516      1.76920464274959
  N   -1.61967274685852     -0.36014457752692     -0.94441842868101
  H   -1.87514296456752     -1.23071841255167     -0.49354057058799
  H   -1.26320760883244     -0.54217966897424     -1.87414321843446
