15
Coordinates from ORCA-job run
  C   0.77377623808518     -0.41899529157310      0.11674388795133
  C   -0.72731214781796     -0.05434093628993      0.21342128661245
  Br  0.95757401674599     -2.35989979412560      0.58283212609512
  H   -1.03333201087525     -0.32108112448479      1.23831302626454
  C   1.23203624485706     -0.28520000515693     -1.26444193933438
  N   1.60218833525138     -0.17615002024455     -2.37391920195196
  N   1.54350731623572      0.41857263520825      0.97765496213930
  H   2.53744250846506      0.28784554121849      0.83378290044995
  H   1.32774704370512      0.20963051879349      1.94653465589054
  N   -1.49359994324714     -0.85486758399490     -0.70342827939491
  H   -2.43278891546669     -1.01268775496357     -0.36784716194169
  H   -1.53045053102142     -0.38331466285433     -1.59985198671243
  N   -0.81919460826783      1.36113321284460     -0.10608827365731
  H   -0.17364313473689      1.90228909498665      0.45582682464218
  H   -1.76495041191232      1.68706617063622      0.05146717294726
