15
Coordinates from ORCA-job run
  C   0.77484915994927     -0.29281643757444      0.00768183390885
  C   -0.57815117188935      0.44130752631652     -0.19817070223879
  Br  0.37482169580558     -1.92713449494293      1.22211227905230
  H   -0.31951995482572      1.26492301920558     -0.87349670850195
  C   1.22857287778215     -0.90718805237329     -1.23635228057043
  N   1.59705061016080     -1.35540318671089     -2.25849919812029
  N   1.72370604141000      0.57917591864915      0.53484677092525
  H   1.33608758387795      1.08959709331499      1.31950276969212
  H   2.62185851594299      0.16109103198020      0.73248670353498
  N   -0.93896975750668      1.01990428797590      1.07961665072932
  H   -1.69263200124980      1.67929436612966      0.92619954371710
  H   -1.29517717450739      0.28855815542349      1.68651562956589
  N   -1.63181292551605     -0.31807143047712     -0.82614289973207
  H   -1.40319833372393     -0.53961297880598     -1.78822487566918
  H   -1.79748516570983     -1.18462481811084     -0.32707551629309
