15
Coordinates from ORCA-job run
  C   0.71861600328089     -0.37653637903881      0.12381351824507
  C   -0.77516381785462      0.04607220028031      0.23844092379283
  Br  0.80323626564519     -2.36179012077791      0.54731272067885
  H   -1.05689635370003     -0.16481760711144      1.28497337763366
  C   1.18255485843618     -0.25309221649068     -1.25444867519009
  N   1.53922726391870     -0.17029020043929     -2.37080517893671
  N   1.51822571738044      0.39481454972459      1.00134906001820
  H   1.26030083394109      0.22231221384450      1.96640145415049
  H   2.50830741924103      0.22095475712680      0.88236737503801
  N   -1.70498366805842     -0.64119925712149     -0.61125780534811
  H   -1.45839191614084     -0.48498601572267     -1.58237282109649
  H   -1.72764358807032     -1.63306519190840     -0.41806342998040
  N   -0.81318722691239      1.43829157663036     -0.14841047254358
  H   -1.77134165648872      1.76135848659548     -0.10572024545907
  H   -0.22286013461819      2.00197320440863      0.44742019899733
