15
Coordinates from ORCA-job run
  C   0.74956091803201     -0.38260776430873      0.11589712499483
  C   -0.73280661993246      0.02142235726284      0.37712924670635
  Br  0.84921877325943     -2.38474478418118      0.54640311514831
  H   -0.96586162660087     -0.34610751604271      1.38293611400331
  C   1.05642923261506     -0.31748139702453     -1.31317234084283
  N   1.24780446213692     -0.21070958435327     -2.46832314265845
  N   1.64960934798165      0.39843775856143      0.85088644964114
  H   2.60271088079085      0.06265224478648      0.82700352277085
  H   1.33231121099056      0.57799309018841      1.79360924598701
  N   -1.69860633174785     -0.56910157745259     -0.52076289389487
  H   -1.73210400238191     -1.57628762712770     -0.42106706048268
  H   -1.48390035264975     -0.34123730456233     -1.48567145828057
  N   -0.79553330170728      1.47030436498187      0.39230247326340
  H   -0.30496057485810      1.86599932018108     -0.40183712167004
  H   -1.77287201592827      1.73046841909094      0.32366672531425
