15
Coordinates from ORCA-job run
  C   0.76767969109361     -0.37115799489600     -0.12449199236287
  C   -0.73860290991504     -0.04841648998716     -0.33707342651938
  Br  0.96379205165269     -2.40150505624092     -0.38109827848371
  H   -1.03221472038644     -0.48436238753214     -1.29999932664668
  C   1.56973898303285      0.19937952622149     -1.20210225056638
  N   2.16772525540980      0.70052200928174     -2.08120578668926
  N   1.17805241367044      0.08903826780392      1.13086559657073
  H   2.14382501738332     -0.10755457733833      1.35264291614093
  H   0.53426137119799     -0.23649255331479      1.84358266641498
  N   -0.99245873179804      1.37096449325708     -0.38702920054435
  H   -0.51547306248894      1.82763695635166      0.38209210382681
  H   -0.66186684720141      1.76779775492179     -1.25740094859664
  N   -1.45213887876637     -0.58203074416543      0.80970417812620
  H   -2.36313563897345     -0.14100621370809      0.83166755561903
  H   -1.57018399391102     -1.58381299065480      0.72184619371059
