15
Coordinates from ORCA-job run
  C   0.80847362041316     -0.49365477646349      0.09739449803585
  C   -0.70663481492883     -0.18758077540378      0.31052386476315
  Br  1.12176100934876     -2.40085018744477      0.43243164518707
  H   -0.93043525336368     -0.51831556997705      1.33171587672859
  C   1.13393205055230     -0.20458874713592     -1.30179871178205
  N   1.29502453102297      0.09776529476553     -2.42641121079251
  N   1.72082324895472      0.23427508568387      0.94551573046210
  H   1.69103323448419      1.22566698003175      0.74049825269334
  H   1.50358730479566      0.06996538328322      1.92190413299311
  N   -1.49713552744957     -0.96892424580256     -0.60498391477604
  H   -2.47585990027255     -0.79729330390441     -0.40828901194147
  H   -1.32386642272029     -0.67626457479899     -1.56160642282308
  N   -1.01078243793535      1.23301018314251      0.23758776843098
  H   -0.54985363983206      1.77082899923927      0.96028288645656
  H   -0.77906700306942      1.61596025478483     -0.67276538363559
