15
Coordinates from ORCA-job run
  C   0.70651190926641     -0.33807368631043      0.12142811448229
  C   -0.68480177603418      0.30921780619242     -0.13104181650216
  Br  0.53414330017331     -1.97748539567826      1.16824319852492
  H   -0.43897930618430      1.21229481066910     -0.72389329623567
  C   1.27865861428171     -0.72883352617223     -1.17627527043940
  N   1.73388663246102     -0.95381382058207     -2.23732934369795
  N   1.53105517186671      0.58861338831629      0.87171688066904
  H   1.73243849193386      1.39666628695188      0.28872884647756
  H   2.41212430011524      0.15733746415403      1.12742327668147
  N   -1.29801727917050      0.57728113139039      1.14327916460492
  H   -0.66443995092491      1.09391545649357      1.73968237409547
  H   -2.14685019552796      1.10623923022756      0.99055987357159
  N   -1.61257753383074     -0.46007599428875     -0.91246761176027
  H   -1.25863452009090     -0.65873844123796     -1.83975672559434
  H   -1.82651785833477     -1.32454471012553     -0.42929766487747
