15
Coordinates from ORCA-job run
  C   0.77154822559891     -0.34066628068391      0.00308818557916
  C   -0.58011819000693      0.41368934770905     -0.17992588206981
  Br  0.36660080282433     -2.08432696419847      0.99916842766177
  H   -0.32025931634862      1.24954187852734     -0.83958355572058
  C   1.29042848471371     -0.77290441471308     -1.29138302437634
  N   1.65910065837488     -1.07320349910955     -2.36630803289140
  N   1.67996922267651      0.48175715452662      0.68219025453677
  H   1.26019896457018      0.77557747857521      1.55817780364053
  H   2.58429669089656      0.05224237536455      0.82524083034529
  N   -0.96436595251591      0.91391291179454      1.13206812464645
  H   -1.08053734823654      1.91795314560769      1.09351498259655
  H   -1.86133808069761      0.51841450363917      1.38362510256057
  N   -1.63455073643489     -0.33279030109487     -0.81872441908633
  H   -1.73975070089279     -1.24076704537834     -0.38020327490216
  H   -1.43222272452180     -0.47943029056595     -1.79994552252049
