15
Coordinates from ORCA-job run
  C   0.76055187821280     -0.56278217912346     -0.10413613373530
  C   -0.70624550377704     -0.14062115540153     -0.35141234086688
  Br  0.95946822492306     -2.49271991481414     -0.31032058707163
  H   -0.99476983353680     -0.49689033887302     -1.34883718445703
  C   1.60520934553292      0.04980948217499     -1.14444555569304
  N   2.25719021320968      0.60608959549235     -1.94996622069493
  N   1.11845353936166     -0.18841308443701      1.24072649710961
  H   0.99519126678794      0.81774169658249      1.31392343103229
  H   2.07913102512407     -0.43636199626821      1.44387362275735
  N   -0.70115693259599      1.32850728222505     -0.24297065454424
  H   -1.64209744836565      1.64965130277236     -0.05303636266539
  H   -0.39618194773821      1.75457467663012     -1.11220711553655
  N   -1.54236050566878     -0.78573413830687      0.61515120064033
  H   -2.51998076469154     -0.58635165699794      0.45277994297213
  H   -1.27140255677813     -0.51649957165518      1.55187746075329
