15
Coordinates from ORCA-job run
  C   0.86067880110948     -0.53748196432729      0.06900249982979
  C   -0.62298447746282     -0.13142387980493      0.29491784511526
  Br  1.07021906317591     -2.43587028311607      0.49134193288541
  H   -0.88153401514242     -0.48072869795860      1.30189631314420
  C   1.17122437969809     -0.34211382370321     -1.35115492808636
  N   1.34764393706362     -0.13686010232853     -2.49455668224169
  N   1.81697093093514      0.19562827349284      0.86271909864011
  H   1.63043462905896      1.18418953915994      0.72154189776590
  H   1.69594327473870     -0.03655609841819      1.84247597168399
  N   -1.46745654877596     -0.81556696692682     -0.64531259696580
  H   -2.44520429708220     -0.68968224040835     -0.41958640063462
  H   -1.29863775505143     -0.49704098994814     -1.59295194565233
  N   -0.65518486139839      1.33673582741008      0.22495393504856
  H   -1.36260878003481      1.63925806832150     -0.43024067235946
  H   -0.85950428083187      1.74851333855578      1.12595373182702
