15
Coordinates from ORCA-job run
  C   0.72135129184825     -0.48861611516013      0.19561274812762
  C   -0.79326004362336     -0.17608124177294      0.30549055354798
  Br  1.04843306957355     -2.35518858231493      0.65601608471442
  H   -1.07812745506524     -0.51993634651132      1.30389591636035
  C   1.15251624922659     -0.28943418487306     -1.19713399815189
  N   1.44945699037073     -0.02169987649506     -2.30378044870655
  N   1.45370122812061      0.32816320538621      1.14802679886849
  H   2.39542096445118     -0.02993007045685      1.25815525488195
  H   1.52417268600441      1.27445800800066      0.78869552846035
  N   -1.50955399482725     -0.94771999467507     -0.67824815923828
  H   -2.50192307299195     -0.83163174696344     -0.51246305338590
  H   -1.31813076279291     -0.59616847227791     -1.61126465210305
  N   -1.08269970739472      1.24637804106471      0.24058171597876
  H   -0.69895380511174      1.74730585441915      1.03178323697153
  H   -0.76140363778814      1.66110152262998     -0.62736752632579
