15
Coordinates from ORCA-job run
  C   0.74713588349985     -0.54093564408443      0.15422770410525
  C   -0.69150508478217      0.00242367711595      0.28388035170771
  Br  0.73984316064412     -2.49444895450223      0.43265659984877
  H   -0.98573243385859     -0.22391135434355      1.31844150964078
  C   1.24284977809297     -0.31320216698588     -1.21175172752291
  N   1.69163077978750     -0.04887632792149     -2.26611532332373
  N   1.54708237712292      0.05182201367288      1.18528486498424
  H   1.39487153791432      1.05519966963873      1.13669240823643
  H   2.52852298463222     -0.16147177093322      1.05629357747537
  N   -1.53786996706264     -0.57061539080011     -0.74531477536021
  H   -2.47813974074762     -0.20759127864607     -0.64238221420133
  H   -1.58107605432879     -1.57947871170741     -0.66248577173235
  N   -0.60114906105268      1.44444723415698      0.14952121249802
  H   -0.66305689396213      1.68406149977555     -0.83502773287089
  H   -1.35340726589930      1.90357750556432      0.64607931651484
