15
Coordinates from ORCA-job run
  C   0.81830203085903     -0.29074218419833      0.22705217729438
  C   -0.63088881256571      0.20669811122657      0.15171037019812
  Br  1.04062938938693     -1.93346328890946     -0.81023812566752
  H   -0.65801351549212      1.11242695295901      0.77410048329478
  H   1.01511575649308     -0.58507839556101      1.26127647171970
  C   1.82620666809842      0.74316830741630     -0.24000064473892
  H   2.84457418007784      0.37256586793926     -0.11749174506095
  H   1.67229771665361      0.98876676463765     -1.29222727064265
  H   1.71623082395365      1.65688092609762      0.35318143600622
  C   -1.66455172931488     -0.78141516561615      0.69649577284458
  H   -1.38978986298739     -1.08213893493680      1.71050614208684
  H   -2.65163551388091     -0.31677201812494      0.72813929891745
  H   -1.71874591232492     -1.67152331969301      0.07054633278404
  C   -0.96984055595094      0.62271702822795     -1.21185451910685
  N   -1.25089066300567      0.95890934853532     -2.30119617992922
