15
Coordinates from ORCA-job run
  C   0.80151755960451      0.48019862191466      0.29652473665931
  C   -0.65783217195987      0.03802094406183      0.47683914489644
  Br  1.53620077250805      0.96358634056037      2.04519923151369
  H   -0.67454403315038     -0.77760801325345      1.20940772957668
  H   0.82955550636069      1.40512729112123     -0.28486507931115
  C   1.67889725504556     -0.58410415178733     -0.33793081101843
  H   2.71946278932013     -0.25876323123490     -0.35251760946359
  H   1.62099299824936     -1.51898913764300      0.22479593397893
  H   1.36959528302229     -0.76992836480312     -1.36898474262922
  C   -1.28578572948188     -0.44439310763150     -0.83884318059867
  H   -1.18199395404546      0.31507193789169     -1.61767508869545
  H   -0.81441037052157     -1.36676454738953     -1.17835990728916
  H   -2.34984615364176     -0.63924378053370     -0.69604269437772
  C   -1.46072798842937      1.13764056165627      1.01980672804063
  N   -2.13208176288029      2.02114863707048      1.40364560871770
