15
Coordinates from ORCA-job run
  C   0.82912492099067      0.22785793136090      0.64116566257668
  C   -0.70916491654371      0.22222446409236      0.55525771116053
  Br  1.40512595490478     -1.20339383508680      1.84833378375936
  H   -1.09955069826772      0.25861671040971      1.57819752988962
  H   1.14342944228441      1.14342751508073      1.14621973888787
  C   1.53175590135243      0.09324092296576     -0.69638720847467
  H   1.33554322565639     -0.87670565672156     -1.15431311725805
  H   2.61017401049637      0.19360160422918     -0.56782186538738
  H   1.19061611044283      0.88246379994815     -1.37315623681978
  C   -1.30619469437353     -0.98885134091849     -0.16645873026234
  H   -2.39534292560320     -0.95623084634710     -0.10635840625603
  H   -0.96124072920245     -1.91138467851023      0.30162297734150
  H   -1.02780484262693     -0.99779255732152     -1.22084266599717
  C   -1.12028170759717      1.46175015319168     -0.11403852099923
  N   -1.42518905191316      2.45017581362723     -0.67042065216091
