15
Coordinates from ORCA-job run
  C   0.81792330930853      0.50040372198859      0.19120441717514
  C   -0.63378229857825      0.10808381630746      0.50222548677565
  Br  1.65307194519344      1.18498153017659      1.82367219892720
  H   -0.62001383829678     -0.60455547865038      1.33545427230425
  H   0.82282482699491      1.34533135309776     -0.50199115449380
  C   1.64865628839648     -0.64886736062419     -0.35131567956489
  H   1.61365219421794     -1.50548607635554      0.32623905229506
  H   2.68969151420659     -0.34434897650118     -0.46232735986067
  H   1.28106443508095     -0.95668509874504     -1.33289369528065
  C   -1.33436547948121     -0.53188623936260     -0.70503003726144
  H   -0.89206042220654     -1.49962532301197     -0.94185587247580
  H   -2.39193732732139     -0.68661145528700     -0.48541681357945
  H   -1.26167378930137      0.11571768805293     -1.58223303677543
  C   -1.39403955153127      1.28308024475649      0.93819285449907
  N   -1.99901180668204      2.24046765415809      1.24807536731577
