15
Coordinates from ORCA-job run
  C   0.81957533504128      0.50884558094252      0.17431776195606
  C   -0.61706664623099      0.09206473655538      0.52076866278925
  Br  1.68993691576353      1.18348588048893      1.79257572825654
  H   -0.56808444445355     -0.63827134139721      1.33717824780165
  H   0.79343568150409      1.36291981489797     -0.50716147226203
  C   1.65063776980844     -0.62142661856680     -0.40625219617086
  H   1.25993067481376     -0.92213625001065     -1.38111264578259
  H   1.64615174092894     -1.48672612353066      0.26114613752850
  H   2.68398730205058     -0.30133696898746     -0.54234102892014
  C   -1.34671850975506     -0.53128683752376     -0.67787503757980
  H   -0.89735718545669     -1.48589214269493     -0.95179181021295
  H   -2.39364820854237     -0.70862707227718     -0.42691474433610
  H   -1.31367408253152      0.13771456094304     -1.54116158001766
  C   -1.38077983939476      1.24577552229145      1.00494072520442
  N   -2.02532650354568      2.16689725886935      1.34368325174572
