15
Coordinates from ORCA-job run
  C   0.80016704930395     -0.40394620969821      0.05200821659862
  C   -0.60192915726707      0.18221591202122      0.26074448105517
  Br  0.82642925056133     -1.60220054612384     -1.49317375209851
  H   -0.51874030639016      0.81836381340536      1.15345487292087
  H   1.02187804005464     -1.04722882792578      0.90759994988165
  C   1.86985677272343      0.65959910510980     -0.11429739492112
  H   1.68755171837538      1.25790965238469     -1.00869307596616
  H   1.86725136891452      1.32217769175049      0.75733783024561
  H   2.85724158124450      0.20433591293089     -0.19909729440232
  C   -1.68963996147081     -0.86321994056456      0.51596177305545
  H   -1.85085512913993     -1.47983419931783     -0.36759026531010
  H   -1.39320145088511     -1.50985002101528      1.34538283348580
  H   -2.63018852487010     -0.37471273394947      0.77636021534285
  C   -0.97040060897402      1.06383900237179     -0.85027582834548
  N   -1.27442064218056      1.77355138862073     -1.73472256154232
