15
Coordinates from ORCA-job run
  C   0.84022074251890      0.22506638535016      0.62918199185372
  C   -0.69841856465522      0.24934179665256      0.55520291932572
  Br  1.39780137886823     -1.19084508205425      1.86228564338266
  H   -1.07920957014076      0.31856697842726      1.58016459900223
  H   1.17668008412926      1.14488784024674      1.11186116998986
  C   1.52895755313338      0.04832947799269     -0.71072138543737
  H   2.61027574305847      0.12816267677801     -0.59266972045750
  H   1.19917400063130      0.83087991403822     -1.40075422363068
  H   1.30831161921397     -0.92609210099242     -1.14760957579865
  C   -1.32659344043608     -0.96613034260175     -0.13184158316132
  H   -0.99852134059872     -1.88378047127837      0.35746431207974
  H   -2.41432622803126     -0.90774684107610     -0.06544474354826
  H   -1.05593665157523     -1.00783068939811     -1.18747918144165
  C   -1.09149702059118      1.48034849038162     -0.14017987580050
  N   -1.39691830552507      2.45484196753373     -0.72046034635800
