14
Coordinates from ORCA-job run
  C   -0.22437440032474      0.19940843314154     -0.32173475510172
  C   1.07620763475129     -0.54614085263323     -0.03991823204689
  H   -0.49500208639197      0.12873162606944     -1.37584646169779
  H   1.26680082102916     -0.55220636344226      1.03534051791691
  H   1.90041442068058     -0.01825214892139     -0.52828365450188
  C   -0.17452026379431      1.64391990340391      0.14591955269637
  H   -1.13417814702674      2.13361117817621     -0.02937641800414
  H   0.05635526847120      1.68931055127781      1.21181634248081
  H   0.59365344991311      2.18765999621402     -0.40757063593771
  N   -1.34663355766463     -0.48600663360230      0.40764071270474
  O   -1.14831926017228     -0.77199309244352      1.58612073823703
  O   -2.38996996446843     -0.66464155953285     -0.21412079097277
  C   1.03498536951035     -1.92254441719364     -0.53108436145020
  N   0.98558071548742     -3.02085662051375     -0.94090255432276
