17
Coordinates from ORCA-job run
  C   0.85463331057344     -0.08274542396117     -0.03172258189015
  C   -0.64705144178324      0.23670846508961     -0.00423152817580
  Cl  1.18686282717517     -1.79867574964309      0.46063111404532
  H   -0.73048925783647      1.31722188516087      0.10954129961761
  N   1.46253182005628      0.31797243572031     -1.23268676371211
  H   1.15861388890827     -0.26812986719751     -1.99944532992876
  H   2.47112397304402      0.28425631573383     -1.14277766384097
  N   1.54343484436457      0.74554623169767      1.07119013850483
  O   0.84035766582551      1.23072484220278      1.94879156158554
  O   2.75956883988478      0.83514648062486      0.98444112987506
  C   -1.49578593021856     -0.48723891837678      1.02582614927828
  H   -1.55859636645973     -1.54970450193894      0.79286091544174
  H   -1.06705278823495     -0.36087522826480      2.01751000727033
  H   -2.49867618175534     -0.05666075574918      1.01741810352615
  N   -1.25470248814847     -0.04270722092725     -1.34921458180450
  O   -2.13897540726592      0.72688915561591     -1.70951116928702
  O   -0.88579730812936     -1.04772814578712     -1.95562080050557
