17
Coordinates from ORCA-job run
  C   0.82015882220569      0.29557018718501     -0.25957936046194
  C   -0.65229729330436     -0.07368104623687     -0.44090876470997
  Cl  1.28183477870708      1.37226452496488     -1.60185062969854
  H   -0.80759097587220     -0.39548030682395     -1.46862210423157
  N   1.12345176006865      0.91577908951200      0.95895993146279
  H   0.90087352843429      0.28613008485167      1.72126903774472
  H   2.10177083583770      1.17237986769423      0.99935736969455
  N   1.66694400079183     -0.99753198451637     -0.52033631264683
  O   2.72901753788668     -1.07250107280853      0.08078507227886
  O   1.21428875130209     -1.80722914896177     -1.31953105662295
  C   -1.59887067937851      1.04764454143636     -0.05095483724602
  H   -1.48998256103639      1.29304663363122      1.00502984251362
  H   -2.62513668629130      0.73995633668732     -0.25661883256130
  H   -1.37376883475664      1.93940587923474     -0.63540309312242
  N   -0.99754327738323     -1.28158175848801      0.38436888163948
  O   -0.35520848690209     -1.47935772126465      1.41700965466027
  O   -1.93794122030931     -1.95681410609728     -0.01197479869275
