17
Coordinates from ORCA-job run
  C   0.85369549843078     -0.14171353494606     -0.16797357371660
  C   -0.65274850019574      0.13094860670758     -0.04471221352715
  Cl  1.27609255938016     -1.84023123965050     -0.03433959221530
  H   -0.76678891378460      1.21659278349507     -0.01553390671965
  N   1.36347960650623      0.38286222849427     -1.36650846428757
  H   2.35532561380801      0.21581249728321     -1.47223270331134
  H   1.14310860567103      1.36440094740950     -1.47502727243980
  N   1.43919698849152      0.60100903588147      1.10272344725280
  O   1.78409831040168     -0.03382086919576      2.08683862178951
  O   1.45850478755112      1.82258338888664      0.97428402640997
  C   -1.33702879915134     -0.53460472394137      1.12786479926605
  H   -0.88143284438400     -0.21600988930515      2.06654737207233
  H   -1.27015810583674     -1.61750601003517      1.04908218397603
  H   -2.39007648825780     -0.24808724798437      1.14394011422964
  N   -1.29970414962353     -0.27206892342427     -1.33841493239784
  O   -1.49123974879915      0.62720110443710     -2.15392178937465
  O   -1.58332442020763     -1.45636815411219     -1.48461611700643
