17
Coordinates from ORCA-job run
  C   0.85470848758072      0.08056635351983     -0.39438386477219
  C   -0.67996473420411      0.11230104479744     -0.39205323972049
  Cl  1.38897962782404     -0.59848867477542     -1.97181654346440
  H   -0.96813649326495      0.75084529314258     -1.23051721862240
  N   1.34326611059710      1.38056470346701     -0.13210079372806
  H   2.35595304821986      1.39765391005726     -0.09954265140286
  H   1.02629121808431      2.02974104534317     -0.84165455168377
  N   1.41124199793628     -0.83114008014333      0.73039587215558
  O   1.99190508249011     -1.85972905970581      0.42926441417821
  O   1.21415897623875     -0.40140984591036      1.85991605446368
  C   -1.33645597419080      0.57399921458847      0.89650728600770
  H   -1.18142067636404     -0.14918940766364      1.69388050150261
  H   -2.40802192679524      0.68989014537679      0.71780832067638
  H   -0.91577769373341      1.52940257637752      1.20557524181308
  N   -1.22284410601764     -1.23746566118350     -0.74666343313728
  O   -0.90623519317103     -2.16296560682102     -0.00379278990676
  O   -1.96764775122993     -1.30557595046700     -1.71982260435900
