17
Coordinates from ORCA-job run
  C   0.79811539720539      0.27005738277538     -0.19362047200333
  C   -0.69190690890137     -0.04167736461944     -0.35305780898738
  Cl  1.12094875999812      1.91721526345076     -0.92121517083778
  H   -0.87782066125010     -0.23882917220702     -1.40925871813448
  N   1.23096242043552      0.09786754824657      1.11862428480975
  H   2.23622494725547      0.15472333051050      1.20884951985076
  H   0.76135706905329      0.71247105026456      1.76857085842972
  N   1.63302866711305     -0.65693346733054     -1.10238392761631
  O   1.20384243584278     -0.84862857170043     -2.22748206727796
  O   2.68406725668601     -1.07203845615275     -0.63397115571177
  C   -1.63713529424554      1.00507209335443      0.19802148257298
  H   -1.41783921938614      1.25418339706964      1.23626427113097
  H   -1.58508821647829      1.90738137173445     -0.40846963828728
  H   -2.65649807492930      0.62085059873034      0.16372820242005
  N   -0.89562382518357     -1.36679496294372      0.34743425909315
  O   -0.37986539269492     -2.34078280111186     -0.19162466075413
  O   -1.52476936052039     -1.37313724007085      1.39959074130304
