17
Coordinates from ORCA-job run
  C   0.80879231243706      0.16284199809249     -0.25736217982001
  C   -0.69843186504703     -0.09458496705802     -0.32865300743676
  Cl  1.21186960519115      1.53793332418900     -1.39383043747024
  H   -0.90997072792262     -0.55458756656631     -1.29436126489524
  N   1.25172091558643      0.31782214990071      1.05368329199022
  H   2.25983988537876      0.34182920436094      1.12465571627042
  H   0.82461193003098      1.10630849115646      1.51912620884645
  N   1.57726803783854     -1.01790682270485     -0.88868574076725
  O   2.61228414109052     -1.35222727981444     -0.32891231035526
  O   1.12046589932254     -1.47601931561237     -1.92231312761394
  C   -1.57661362694600      1.11330591880099     -0.07835494752293
  H   -2.61584501949408      0.79247524923811     -0.00777842532119
  H   -1.48536193535688      1.81470223763905     -0.90574165523881
  H   -1.32727663453171      1.61990805978414      0.85397352431766
  N   -0.96433172140657     -1.17089064149197      0.69914372929721
  O   -1.57252382000026     -0.85953947038493      1.71710512359878
  O   -0.51549737617082     -2.28237056952900      0.43730550212088
