17
Coordinates from ORCA-job run
  C   0.80808142633297      0.28506531148902     -0.30611702815278
  C   -0.66689386717474     -0.10314844339113     -0.41236872144723
  Cl  1.21334758920943      1.28342678644073     -1.72463532454891
  H   -0.85538238972917     -0.48672453566188     -1.41298062270669
  N   1.14917752613744      0.97778419053188      0.86249278332519
  H   0.96034065759195      0.39191791963509      1.66764544866564
  H   2.12603454022758      1.24285921963426      0.85237312328020
  N   1.65505389267803     -1.01648944532197     -0.52033281016264
  O   2.73535234584619     -1.05342236596380      0.05110358772630
  O   1.18301367824217     -1.87162351863594     -1.25868314649841
  C   -1.60816078583304      1.03348842008922     -0.05556530953908
  H   -1.40935475012518      1.89166786190459     -0.69700945729082
  H   -2.63837951866224      0.70870190232591     -0.20818197626615
  H   -1.46564094984675      1.33944777602453      0.98044716343098
  N   -0.97281080193715     -1.26197833949810      0.49478663678918
  O   -0.29093805171519     -1.39653692668276      1.51208471017828
  O   -1.92284054124230     -1.96343581291964      0.17394094321694
