17
Coordinates from ORCA-job run
  C   0.91788332687439      0.00626766790908     -0.45123296765362
  C   -0.62478047487593      0.08787221287597     -0.44367634668284
  Cl  1.42025604011313     -0.69253489121968     -1.98891684008241
  H   -0.88838167203521      0.67307037417518     -1.32710382799780
  N   1.59104694078554      1.25164101603836     -0.27022212749075
  H   1.38889779243818      1.89132679064401     -1.02687040849447
  H   1.37042511715129      1.65751537145386      0.62945323632992
  N   1.40478716502772     -0.88203046998513      0.70968776406203
  O   1.82098677492125     -2.00321796573260      0.48564434824991
  O   1.31440996551605     -0.33261345745303      1.80453314336392
  C   -1.26423728276781      0.66772690810239      0.80491285468208
  H   -2.34146631128208      0.74358308548927      0.64062960993278
  H   -0.88529528283144      1.67124782595414      1.00037651446815
  H   -1.07959437267599      0.04042678611096      1.67381090994215
  N   -1.22739168215757     -1.26230743931502     -0.69288556915472
  O   -1.04679551501428     -2.10788260642390      0.18076072728758
  O   -1.87075052918725     -1.41109120862385     -1.72790102076190
