17
Coordinates from ORCA-job run
  C   0.84367630257090     -0.06223830707591     -0.07085427497399
  C   -0.68335752726529      0.10313572312662      0.00467338570666
  Cl  1.36950471378817     -1.73146239840659      0.21809906042264
  H   -0.88445339741371      1.16371220099772      0.16189848209293
  N   1.36035822768975      0.37874685951942     -1.29757489938850
  H   1.00571499421810      1.28829528878711     -1.56770376628805
  H   2.37172072685439      0.35564268784295     -1.30419521899162
  N   1.47129424232037      0.74461123507973      1.12628016386154
  O   0.73486104879076      1.14022234537226      2.02335948380465
  O   2.67693748819823      0.93346918021140      1.04200646193445
  C   -1.41450168927479     -0.74927718088867      1.01894468343128
  H   -2.46901604333095     -0.46605342774653      1.02743584891653
  H   -1.33933058856470     -1.80201861540078      0.75790915534859
  H   -1.00161260966252     -0.58371324990213      2.01157645817917
  N   -1.21813422990544     -0.17560157266073     -1.37464666467181
  O   -1.38609382753186      0.80474925141812     -2.09904307553214
  O   -1.43756783148141     -1.34222002027400     -1.67716528385232
