17
Coordinates from ORCA-job run
  C   0.78594929067165      0.26082646269934     -0.24803957563314
  C   -0.71253889269808     -0.04473846839832     -0.30880731735399
  Cl  1.07242689277407      1.88866954678850     -1.03244628651662
  H   -0.96368148454875     -0.26384251693001     -1.34705043495365
  N   1.29798212098614      0.11593118352423      1.03867211854374
  H   2.30717758385984      0.16791355217847      1.06599895331064
  H   0.87255396905499      0.74903004466727      1.70121630910876
  N   1.55840491176790     -0.69288036499387     -1.18450382480836
  O   2.63236746777413     -1.10730594937723     -0.77071232283749
  O   1.06080899556912     -0.90565669812991     -2.27720578573803
  C   -1.61712794201474      1.01970140821615      0.27565779068625
  H   -2.63903697891931      0.64219904988573      0.30919875264988
  H   -1.59574227404457      1.90923193545491     -0.35120945646332
  H   -1.33523950389509      1.28782579478117      1.29384722178860
  N   -0.87978098885068     -1.35285378023004      0.43192177357683
  O   -1.44440867954359     -1.33247675233364      1.51993435837252
  O   -0.40211448794305     -2.34157444780276     -0.11547227373262
