17
Coordinates from ORCA-job run
  C   0.77646893107481      0.40022884358204     -0.25495926972243
  C   -0.68730251984829     -0.01967566813198     -0.39053515084446
  Cl  1.05478484725189      1.77182706030015     -1.35770199689560
  H   -0.92497564548375     -0.12059248524542     -1.44748725591139
  N   1.16584102638514      0.75947633955494      1.04119091106672
  H   2.13038087225709      1.06589786072835      1.05702517237593
  H   1.04571588300988     -0.03353500433824      1.66065750908297
  N   1.65472345045793     -0.74480441692682     -0.86721079547614
  O   1.16696383018353     -1.38880249414062     -1.78734152664121
  O   2.77120191535367     -0.87870302069804     -0.38700952486895
  C   -1.64435609971845      0.92263625555054      0.31747562998573
  H   -1.51476061013022      1.93498856870384     -0.06438772736916
  H   -2.67008541392783      0.60216753638957      0.12960671181913
  H   -1.45026145473270      0.93341426449755      1.38962663967472
  N   -0.89355319105635     -1.39895780191488      0.17079393781360
  O   -0.14611297130738     -1.77315381750136      1.07589742975958
  O   -1.83467284976898     -2.03341202040963     -0.28664069384905
