17
Coordinates from ORCA-job run
  C   0.92878521904028      0.01070704819312     -0.42880507702436
  C   -0.61435265678262      0.07755472469149     -0.45948812640079
  Cl  1.47520382132762     -0.69780165023065     -1.94662931341118
  H   -0.86180062759630      0.65190328222903     -1.35460605007959
  N   1.58527431491063      1.26456191655087     -0.24379188038979
  H   1.33730657750777      1.67782330556227      0.64533342779208
  H   1.39647693161251      1.89403407280047     -1.01236515902427
  N   1.39557093490922     -0.86120705767278      0.75245428273782
  O   1.82775897727017     -1.98055443717140      0.55000415945045
  O   1.27260060062921     -0.30214318972715      1.83926104247738
  C   -1.28985372129524      0.66277656371720      0.76737860147179
  H   -2.36349827582366      0.72554784332576      0.57628675539905
  H   -1.12009376628373      0.04619877391404      1.64691966397360
  H   -0.92613337164856      1.67208545491721      0.96201997656858
  N   -1.19780940416736     -1.28088808418961     -0.71016116922529
  O   -1.03113297778644     -2.11599765160693      0.17625531875412
  O   -1.81430257582351     -1.44560091530295     -1.75906645306960
