17
Coordinates from ORCA-job run
  C   0.86262925004500     -0.09297951310185     -0.15649617710136
  C   -0.65689649927013      0.10328779664212     -0.04905124191394
  Cl  1.36160952102655     -1.77547471571049     -0.10882526209071
  H   -0.82258961395076      1.17883048834535      0.04223671071590
  N   1.36797232580870      0.52104156319777     -1.31402071088027
  H   2.36903970550643      0.40874808814068     -1.40536474238919
  H   1.10359328864118      1.49622661706757     -1.37018696776494
  N   1.39021241204969      0.60216965289815      1.16489724864263
  O   1.73430978623839     -0.07135799018968      2.12327440073068
  O   1.36644318981752      1.82875294873656      1.10164938987668
  C   -1.33255028517401     -0.66300288813988      1.06556179424653
  H   -1.21892022851627     -1.73491543261196      0.91911824149338
  H   -2.39674994577243     -0.42095037247338      1.07849474045377
  H   -0.90686698051998     -0.38770023785608      2.03149363508949
  N   -1.25965751787964     -0.24891680875471     -1.37866692232834
  O   -1.48197919570904     -1.43389578224284     -1.60350228102400
  O   -1.47959921234121      0.68913658605268     -2.14161185575630
