17
Coordinates from ORCA-job run
  C   0.83758778096391      0.11836370778501     -0.50842508241433
  C   -0.69874123544364      0.07673121765722     -0.47318406735499
  Cl  1.42751361582032     -0.44358597042950     -2.06826161521080
  H   -1.02345395874363      0.58108300813981     -1.38355626592017
  N   1.27177775830171      1.44926628440419     -0.28249538043775
  H   2.23995357157014      1.55838254607083     -0.55994686078164
  H   1.18286929386745      1.67258170208317      0.70229110269493
  N   1.38704199080495     -0.85952739009513      0.59136825689219
  O   1.67609195797869     -2.00454713260101      0.28995655540739
  O   1.44363305514690     -0.35704720092972      1.71145936229288
  C   -1.32617976084351      0.69720752676172      0.76056220863954
  H   -1.09758177307803      1.76262131264903      0.79236187914650
  H   -2.41076888119501      0.58990706596484      0.69879718429015
  H   -0.98193461902223      0.21319271472084      1.67226649084894
  N   -1.18413842196446     -1.33691961742159     -0.61631123300901
  O   -1.59039396847831     -1.68026317757019     -1.72343728711869
  O   -1.15427640568525     -2.03644659718950      0.39455475203485
