17
Coordinates from ORCA-job run
  C   0.84498672313394     -0.19842577650438     -0.15369323282960
  C   -0.64452252341334      0.16327015781772     -0.05597768941799
  Cl  1.17386065453655     -1.90570258423071      0.08731475139149
  H   -0.69934259577489      1.25321103824357     -0.09447528133095
  N   1.38484079501783      0.22211816210707     -1.38006655619870
  H   1.21985972393764      1.20620386106927     -1.54829079768501
  H   2.36653768339429     -0.00454538360427     -1.46891184115172
  N   1.46762113161438      0.58874349622986      1.07160012958261
  O   1.55469204545964      1.79711097373929      0.86803495612355
  O   1.77433786798898     -0.00150993024745      2.09531311611271
  C   -1.36773791809493     -0.39055515742629      1.15077691558368
  H   -1.35998103573638     -1.47829616052806      1.13836427578201
  H   -0.89843767835922     -0.04051475780023      2.07129716469478
  H   -2.40354247575609     -0.04661271134738      1.14223353757976
  N   -1.30922909032992     -0.28293629274503     -1.32646289497540
  O   -1.65379037674160     -1.45760596646399     -1.40241875973991
  O   -1.45215293087689      0.57404703169099     -2.19563779352129
