17
Coordinates from ORCA-job run
  C   0.94010831481656     -0.02094647808142     -0.41109956033004
  C   -0.60444103259056      0.04359464469327     -0.47304866140909
  Cl  1.55612771968942     -0.48473223106969     -1.99649370570307
  H   -0.83815828774530      0.47473553067882     -1.45096401658798
  N   1.58675793290921      1.19391958113946     -0.01881915473034
  H   1.24771910909364      1.51339346599975      0.87992104328576
  H   1.49472912406454      1.91266271522280     -0.72337358351943
  N   1.40756779613168     -1.03281125852238      0.65063112031770
  O   0.86692112613566     -0.85629780808957      1.74050076566878
  O   2.28143047785154     -1.83269376329932      0.38879036078121
  C   -1.30247731034840      0.86677770868279      0.59804930307476
  H   -2.37730465103273      0.80666712113716      0.43442563041788
  H   -1.06834566493532      0.50408388666029      1.59651727229706
  H   -1.01265413826037      1.91422313367281      0.50871426712770
  N   -1.23188989738778     -1.33327212014053     -0.54318708156040
  O   -2.45621987712217     -1.35910344871917     -0.60127016666832
  O   -0.49087074126962     -2.31020067996506     -0.57929383246218
