17
Coordinates from ORCA-job run
  C   0.85414869601717      0.05452487524955     -0.07065573345607
  C   -0.67440213218803      0.13274261417682      0.05336169252731
  Cl  1.46383485001827     -1.64014487829249      0.16115682917208
  H   -0.90957111082121      1.16054253096831      0.32853569251084
  N   1.32785585823209      0.70237851001175     -1.22331906186475
  H   2.33368582186202      0.81357674236123     -1.17331309682790
  H   1.07369053445299      0.18339852560418     -2.05401547050731
  N   1.47292006520591      0.82158016385362      1.11506183097414
  O   0.75776246468406      1.05880709766264      2.08044650604863
  O   2.65339738826572      1.11678921084915      0.99731077733521
  C   -1.34980066630652     -0.85140021600536      0.99164876849970
  H   -1.26517330096277     -1.86747069568573      0.60775383140535
  H   -2.40487293857471     -0.58518358804172      1.07742504910074
  H   -0.89299049770556     -0.79953784131648      1.97749496652874
  N   -1.30476607893458     -0.04310227594645     -1.29828733025482
  O   -2.29747736083240      0.64103096918191     -1.52322195604712
  O   -0.83624159241244     -0.89853174463093     -2.04838329514476
