17
Coordinates from ORCA-job run
  C   0.91351565817722     -0.05536441313186     -0.14409554252024
  C   -0.62624520435991      0.12921640083345     -0.08491219091152
  Cl  1.31305136723797     -1.74532982080584     -0.39598695075717
  H   -0.80310411659872      1.20715419780193     -0.07119719992917
  N   1.65483733721739      0.74442491331495     -1.05931853060458
  H   1.39744306655186      1.71833067857716     -0.94932729065571
  H   1.46309340822280      0.45697731576676     -2.01030886135662
  N   1.37443955147919      0.40143684624102      1.25506005371049
  O   1.79712411890645     -0.41013773547154      2.05952903865453
  O   1.22213378646567      1.60736193658853      1.43404832307400
  C   -1.30973182562975     -0.55963008325714      1.07449059746369
  H   -1.00005093642890     -0.09630986359530      2.01257361941414
  H   -2.39053672410851     -0.44750832447968      0.98373524450072
  H   -1.07594194292677     -1.62221419328868      1.10242887202499
  N   -1.18067772021222     -0.33261918899443     -1.40239586589689
  O   -0.93070745551778      0.38352127231280     -2.37302351979259
  O   -1.81764236847600     -1.38030993841213     -1.43229979641807
