17
Coordinates from ORCA-job run
  C   0.85614575433136     -0.06632031775216     -0.19700824241195
  C   -0.66109154664173      0.08965090017231     -0.01676396795864
  Cl  1.39280512524224     -1.73711924624740     -0.23917242822744
  H   -0.84606600420540      1.15620849316991      0.12658039503187
  N   1.29815275943072      0.60558537492685     -1.34830537050553
  H   2.29628746455391      0.51883343139651     -1.48712250503717
  H   1.01142867872169      1.57605942725990     -1.35246802815460
  N   1.42572878373121      0.58804361952784      1.12850394259663
  O   1.83714229178434     -0.11385629378105      2.03873385122520
  O   1.36202418637364      1.81485539595539      1.12035866280288
  C   -1.26936166072760     -0.73769306281257      1.09300730322365
  H   -1.14478316644565     -1.79972652227727      0.89320281165428
  H   -0.80172907500051     -0.49751775268219      2.04893969163442
  H   -2.33558425652242     -0.51663344071273      1.16765510601538
  N   -1.31403443343676     -0.22178393340880     -1.33300746322306
  O   -1.52127542435093     -1.40126765428792     -1.59752088813356
  O   -1.58678947683810      0.74168158155338     -2.04561287053236
