17
Coordinates from ORCA-job run
  C   0.81756593121532      0.26055904304797     -0.10464052143981
  C   -0.65903880336784      0.00206826337034     -0.41322939590564
  Cl  1.23949734517327      1.94375645612803     -0.68664269168821
  H   -0.75572542272179     -0.11715235936560     -1.49281614011040
  N   1.12988873099603     -0.01036800787436      1.22466609477791
  H   2.12428894560657      0.01011220560971      1.40516189531954
  H   0.61880168198982      0.57195759010768      1.87296960188931
  N   1.70855820195979     -0.62610526540654     -1.00025453241574
  O   1.37618341269168     -0.72938368986508     -2.16887684638379
  O   2.70436555775225     -1.10200750617207     -0.47264252739521
  C   -1.62652060390226      1.03389318596901      0.12725643861769
  H   -1.49753519146481      1.20002173638894      1.19676380329385
  H   -2.64689387527592      0.68335814105694     -0.02722925622890
  H   -1.49839428737336      1.97574449712830     -0.40296902916329
  N   -0.95222289125153     -1.36211379181395      0.17098105996245
  O   -0.40963069842077     -2.31017984069540     -0.38765173335393
  O   -1.67518803360646     -1.42416065761393      1.15915378022417
