17
Coordinates from ORCA-job run
  C   0.84753271563516      0.10290011918665     -0.38837008548770
  C   -0.69237915734743      0.06551578248390     -0.38488969293812
  Cl  1.55536036597917     -0.78137782377963     -1.79258726929732
  H   -0.99773188667182      0.79105411755728     -1.14220421328177
  N   1.24446096352777      1.45354529035674     -0.29812509719022
  H   2.21297153524446      1.53249657551781     -0.01390566755096
  H   1.09691726300619      1.92680440569822     -1.18030294726998
  N   1.39720657250047     -0.63338331514315      0.83886335476248
  O   2.21585057961210     -0.04110397051262      1.53177444395694
  O   0.97464662842864     -1.76669665795859      1.00998941723498
  C   -1.26531863190447      0.42050793748836      0.97307731427243
  H   -2.34682388129774      0.54139582690392      0.89383473413877
  H   -1.06865566714213     -0.36959850388002      1.69578450546100
  H   -0.82708334432213      1.35787287468063      1.31460967994439
  N   -1.28918412264797     -1.22437191885074     -0.88772079860757
  O   -1.43354301478630     -1.30465385827656     -2.10593856350563
  O   -1.62422691781395     -2.07090688147219     -0.06588911464172
