17
Coordinates from ORCA-job run
  C   0.89277959822820      0.38471936053411     -0.12355987077346
  C   -0.57330779902532      0.04806343895624     -0.48678594344583
  Cl  1.29317360479105      1.91579372803254     -0.91334501111959
  H   -0.66695587283519      0.04945263251979     -1.57264311825054
  N   1.27570443538902      0.45047927930901      1.23369498299904
  H   0.95133856182173      1.30327225812185      1.66683513406689
  H   0.96068950106441     -0.36263876314983      1.74756882212558
  N   1.71900629902231     -0.73704586500334     -0.80256498866749
  O   1.75833098279162     -0.72936061810029     -2.02430120471810
  O   2.18206932459987     -1.58657783436756     -0.05212934616504
  C   -1.58446829705749      0.94762148144668      0.19121298649392
  H   -2.59430317596384      0.64411678622022     -0.09136007594347
  H   -1.43717718827986      1.98079942756638     -0.12310159064995
  H   -1.49515404003420      0.87739242624956      1.27475021438354
  N   -0.83152073869320     -1.37557190389243     -0.07814115788781
  O   -0.98327252992980     -2.19973981483299     -0.97620543430810
  O   -0.86693266588932     -1.61177601960992      1.13007560186039
