17
Coordinates from ORCA-job run
  C   0.86533351858544      0.33572089826974     -0.28227406233944
  C   -0.62285856764995     -0.03834977251805     -0.42455167612850
  Cl  1.15719385395215      1.66287774218648     -1.43293154509754
  H   -0.86388832854755     -0.16461830342893     -1.47780928441662
  N   1.38778847379648      0.70586691817763      0.97066466185301
  H   1.08050263009608      1.62317273039362      1.25842006508847
  H   1.19958928116413     -0.00026080962265      1.66935051992853
  N   1.67185022691876     -0.88202858674611     -0.81223244618107
  O   2.66533571007785     -1.22380234633345     -0.19469988406955
  O   1.21841685684704     -1.39815432994323     -1.82781817927092
  C   -1.55144018316158      0.95013194183310      0.25619899793923
  H   -1.40198642165887      1.95031099469060     -0.15148489613095
  H   -1.37017931350700      0.97010280827030      1.33231781930370
  H   -2.58710904941793      0.65686678636578      0.07958281421895
  N   -0.87532823998969     -1.38829090444299      0.18420706118826
  O   -0.15869888746249     -1.73542368722398      1.12484901490527
  O   -1.81652156004286     -2.02512207992786     -0.27178898079084
