17
Coordinates from ORCA-job run
  C   0.82244034774706      0.26796118474300     -0.28287769747549
  C   -0.62399478778157     -0.20057519407281     -0.44174942767622
  Cl  1.31788062542740      1.03677179332102     -1.81190549975054
  H   -0.71148035998523     -0.75194430091198     -1.37568867897249
  N   1.03756932349349      1.15800389978937      0.77641428195596
  H   0.79380820225406      0.70606738936346      1.65017830874719
  H   2.00289160596569      1.46129363809822      0.80335187440167
  N   1.72662114969498     -1.01084265645078     -0.20689406114308
  O   2.75470716188260     -0.90154314835083      0.44595811693199
  O   1.34758340233670     -1.99813822500545     -0.82394912737147
  C   -1.62927551240342      0.93433159246682     -0.35910569753184
  H   -1.40056758987978      1.68464855321873     -1.11553989721706
  H   -1.59086023332455      1.41152721591155      0.61973273198362
  H   -2.63085907204333      0.54220321003906     -0.54118295720755
  N   -0.97151535110635     -1.20686822916671      0.61939832034562
  O   -1.86810477558862     -1.99343082500572      0.34539285126210
  O   -0.37684413668912     -1.14146589798696      1.69646655871757
