17
Coordinates from ORCA-job run
  C   0.79019704233866      0.22580816848522     -0.26924510154382
  C   -0.72948023775659      0.04352315730712     -0.26398795245069
  Cl  1.16394597231258      1.90719877285146     -0.88752957327307
  H   -1.05567027694237     -0.04034526559314     -1.30098939000777
  N   1.36158528316541     -0.10536878031324      0.95583353183678
  H   2.37181592378214     -0.12131622457849      0.92647420302959
  H   1.01650146945300      0.46321882210347      1.71624612215415
  N   1.42669324068360     -0.66868019386849     -1.35468495450957
  O   2.48800776505590     -1.20255182416030     -1.06339967750186
  O   0.84868350462154     -0.72003256047938     -2.42726895119896
  C   -1.50973741119357      1.10295815020902      0.48559586251357
  H   -1.14173396139366      1.24833586479884      1.50123294087038
  H   -2.55304940396308      0.79585339979883      0.55767932285034
  H   -1.46174442662722      2.04768178027871     -0.05290358467004
  N   -0.96082315938189     -1.32119433827367      0.34442489218521
  O   -1.43756220599012     -1.37606810336853      1.47268213843699
  O   -0.61662911816432     -2.27802082519741     -0.34215982872122
