17
Coordinates from ORCA-job run
  C   0.83329294472707      0.13446062891030     -0.51113988905124
  C   -0.70266712433094      0.08562489941995     -0.46531102508311
  Cl  1.41279733694765     -0.38507154213026     -2.08958138241929
  H   -1.03603818558677      0.61211017370730     -1.35985585828030
  N   1.26374141255325      1.46134078045709     -0.25506361300259
  H   1.18515262552481      1.65782863756725      0.73632753923934
  H   2.22812802376156      1.58246778776834     -0.54054346865550
  N   1.39497140088999     -0.86820529105981      0.55896714285377
  O   1.45866461349881     -0.39399881409409      1.69096502491412
  O   1.68551435291664     -2.00425658778431      0.22638686539948
  C   -1.32265162998085      0.67184467096315      0.78874232022083
  H   -1.09542696595249      1.73636848862914      0.84757891300984
  H   -0.97165505977297      0.16423560184895      1.68491328878097
  H   -2.40747129829683      0.56435468011973      0.73118068128942
  N   -1.18419232961645     -1.32560417568631     -0.64110574889569
  O   -1.14354284984876     -2.05103812064806      0.35095563945245
  O   -1.59861726743372     -1.64146181798836     -1.75341642977248
