17
Coordinates from ORCA-job run
  C   0.92000777914644     -0.00618134630838     -0.44877464700429
  C   -0.62221658982314      0.09026748237884     -0.44757002449500
  Cl  1.42170070882084     -0.72120793693889     -1.97908636160653
  H   -0.87734036080393      0.66905255650261     -1.33766562930901
  N   1.60451769454909      1.23366877255293     -0.27379676882082
  H   1.40660280512450      1.87199806059813     -1.03275059123793
  H   1.38812429553654      1.64505705412171      0.62441108928625
  N   1.39164574318454     -0.89160051774908      0.72064572946986
  O   1.78702222096249     -2.02232465397673      0.50623443127403
  O   1.30962525597995     -0.33183800637922      1.81089628744081
  C   -1.25838715514529      0.68919755530677      0.79362441233957
  H   -0.86948364171619      1.69068346367771      0.97953007573719
  H   -2.33451048129717      0.77428821139522      0.62679569031407
  H   -1.08197722445071      0.06896617034512      1.66929883775351
  N   -1.23777199885975     -1.25626775546410     -0.68554343343047
  O   -1.07864712293583     -2.09178693319113      0.20187343552862
  O   -1.86891192827237     -1.41197217687153     -1.72712253323988
