17
Coordinates from ORCA-job run
  C   0.84557647358556     -0.04155537843958     -0.09042172951591
  C   -0.67249931922439      0.20238640911222     -0.07194916433048
  Cl  1.15406715411659     -1.82170186557325     -0.06851538712429
  H   -0.81328290441044      1.28164994365698     -0.14918059862132
  N   1.51076392374810      0.66065415609850     -1.10541220667630
  H   1.01708649461214      0.63928709006986     -1.98735702088149
  H   2.47419794200659      0.36622328186438     -1.20111279168522
  N   1.46676402003342      0.52889826058226      1.20685865117080
  O   2.58749147217989      0.13667359859652      1.49103539014058
  O   0.83819229444013      1.41849561401372      1.76713661007998
  C   -1.42399021906172     -0.38120662374297      1.10489956438344
  H   -1.28467656772468     -1.45759095078624      1.17141497707780
  H   -2.48932109642103     -0.18406634800587      0.98092581676112
  H   -1.09286824461957      0.09509644968004      2.02480858528760
  N   -1.23358649474393     -0.35212336769606     -1.36484415275682
  O   -1.92548737184197     -1.36128348231509     -1.31542290996659
  O   -0.95942755667468      0.27116321288459     -2.39286363334292
