17
Coordinates from ORCA-job run
  C   0.81852895458678      0.37867817586404     -0.12058130336974
  C   -0.64523598958210      0.08415494180073     -0.44960894136960
  Cl  1.27982114523156      1.87287078260756     -0.97438068040763
  H   -0.78199180811107      0.15407909394122     -1.52675402995855
  N   1.09566389341019      0.51937622419029      1.24488132538716
  H   0.87392834420681     -0.34575183385844      1.72398632588775
  H   2.06867758997563      0.75519216154737      1.39364631793218
  N   1.68947810821119     -0.72382756841610     -0.81585343147956
  O   2.74160199761682     -1.00550910111453     -0.26029693581495
  O   1.26291400444236     -1.18974520030852     -1.86479445754593
  C   -1.61522140967826      0.97756382424567      0.30284260765000
  H   -1.39461113551083      2.02304397718107      0.08882116037739
  H   -1.52712688343715      0.82167982978591      1.37764949582764
  H   -2.63318898785326      0.75721289465812     -0.02172281905478
  N   -0.98060900373943     -1.34429048512058     -0.12324494531973
  O   -0.34732834744487     -1.89562579041726      0.77844205945837
  O   -1.90530047232437     -1.84010192658655     -0.75303174820001
