17
Coordinates from ORCA-job run
  C   0.83119384757048      0.12577952271892     -0.41410226884852
  C   -0.70692816366821      0.07208594850061     -0.35385231449325
  Cl  1.49284443749913     -0.70027216364503     -1.87602564998195
  H   -1.04673578098073      0.82168859747042     -1.07210898819256
  N   1.21890228652549      1.47605888678865     -0.28949963463186
  H   2.20014482037637      1.55469644990628     -0.05270810094555
  H   1.02183094513934      1.98210686467499     -1.14338642008700
  N   1.43772143451959     -0.64851510913960      0.76132768605472
  O   1.01940905254076     -1.78530562696630      0.91995335009659
  O   2.29595012067513     -0.08083038301566      1.42630738858596
  C   -1.23237159271251      0.37015134151800      1.03665250992439
  H   -1.00438331132783     -0.44636838795123      1.71955812946783
  H   -0.78755566683003      1.29658466372364      1.39896508919523
  H   -2.31664521142042      0.48664165620408      1.00125321079869
  N   -1.31197775809694     -1.20342288188110     -0.88338648235718
  O   -1.50098078142913     -1.23839062100662     -2.09772878089166
  O   -1.61041867838050     -2.08368875790004     -0.08321872369388
