17
Coordinates from ORCA-job run
  C   0.91117762616264      0.02710264176256     -0.46384507583373
  C   -0.63211526292089      0.08902872686812     -0.43251314735021
  Cl  1.39955859328276     -0.63321838055959     -2.02263805600252
  H   -0.91543256014677      0.68976162571963     -1.29921518315838
  N   1.57088442847261      1.27738118382553     -0.26682595521135
  H   1.35152268551401      1.92872132731126     -1.00854274026199
  H   1.35704135837578      1.66309929404660      0.64324704801157
  N   1.42638181539735     -0.87804183476745      0.67137683820478
  O   1.85347658139585     -1.98898313655504      0.41835601898534
  O   1.34449369770419     -0.35253690073472      1.77853519843612
  C   -1.26103419323105      0.63418967406367      0.83684882036193
  H   -2.34152219801879      0.69783014994664      0.68955820895868
  H   -0.89346573567534      1.63892444753221      1.04727251615665
  H   -1.05531872306923     -0.00759161409610      1.69030418821896
  N   -1.22155514287212     -1.26314314086340     -0.70180681405075
  O   -1.87910812412372     -1.39783974397933     -1.72980310480040
  O   -1.01698484624726     -2.12468431952059      0.15069123933529
