17
Coordinates from ORCA-job run
  C   0.83113390494856      0.11356511537140     -0.52002744168664
  C   -0.70489733101107      0.08737296624681     -0.46223657889451
  Cl  1.39249670513473     -0.44107295225311     -2.09311609843858
  H   -1.03800480829894      0.60227735017759     -1.36364537415485
  N   1.28259686586917      1.43784494533630     -0.28934111261532
  H   1.20910531131087      1.65360291577895      0.69844775894223
  H   2.24835071013304      1.53873378436512     -0.57820042752946
  N   1.38625119472225     -0.87971823773497      0.56326960985667
  O   1.65851443840719     -2.02496771329708      0.24743959459170
  O   1.46516595713624     -0.38759912313706      1.68657015466044
  C   -1.30683525705404      0.70576378726302      0.78537465023350
  H   -2.39311159215748      0.60706832633311      0.74146402296609
  H   -0.95097334740909      0.21487952225093      1.68888644228924
  H   -1.07002091982566      1.76938688446490      0.81790051463162
  N   -1.20738929148007     -1.31975329957671     -0.60828181746144
  O   -1.17170320065380     -2.02606045830442      0.39769026276666
  O   -1.63167933977191     -1.65132381328478     -1.71219416015736
