17
Coordinates from ORCA-job run
  C   0.91169943766835      0.01148673907377     -0.46339547944678
  C   -0.63129772496278      0.09379178936562     -0.43419179333655
  Cl  1.39240839447871     -0.66792500391607     -2.01647299392117
  H   -0.90576107859786      0.69037480407873     -1.30660678068968
  N   1.58812072774079      1.25366379698566     -0.27527564459413
  H   1.37814646226808      1.90391800093961     -1.02056986474444
  H   1.38209593848815      1.64740287568388      0.63313240675268
  N   1.41304119325536     -0.89185795329642      0.67935732940616
  O   1.33773217691164     -0.35675251804805      1.78251824485264
  O   1.82658582909777     -2.01001586455447      0.43538997183571
  C   -1.25356192851345      0.65898100860097      0.82965008759599
  H   -0.86985984041420      1.65917641624780      1.03260032233971
  H   -2.33266715296982      0.73862541635140      0.67991722679423
  H   -1.05929986982017      0.02061777712858      1.68831615523725
  N   -1.23720243011200     -1.25306767881440     -0.69230382267188
  O   -1.89339730340866     -1.38926749224808     -1.72112253280463
  O   -1.04678283110989     -2.10915211357853      0.16905716739490
