14

C	-0.404485	-0.021725	-1.474486
C	0.0	0.0	0.0
Br	0.340045	-1.638485	-2.321817
H	1.096372	0.0	0.0
N	-1.835	-0.073472	-1.642919
H	-2.073236	0.004581	-2.625738
H	-2.252741	0.703388	-1.137737
C	0.216441	1.122058	-2.169767
N	0.59883	2.08607	-2.72694
C	-0.496438	-1.152583	0.723257
N	-0.83573	-2.076639	1.368169
C	-0.462327	1.229418	0.611914
N	-0.833108	2.233319	1.104854
H	2.441676	0.0	0.0
