14

C	-0.198713	-0.11951	-1.523886
C	0.0	0.0	0.0
Br	0.239803	1.748318	-2.31179
H	1.108713	0.0	0.0
N	0.672862	-1.121588	-1.949711
H	0.714072	-1.218667	-2.955341
H	1.601386	-0.950197	-1.528281
C	-1.575358	-0.331014	-1.963211
N	-2.678044	-0.542985	-2.311512
C	-0.438994	-1.217342	0.659082
N	-0.750113	-2.199538	1.227722
C	-0.567294	1.171205	0.628762
N	-0.985512	2.109671	1.203047
H	2.498831	0.0	0.0
