14

C	-0.202167	0.070796	-1.527
C	0.0	0.0	0.0
Br	0.231109	2.015771	-2.086661
H	1.108047	0.0	0.0
N	0.666236	-0.876299	-2.07417
H	0.707009	-0.843807	-3.083943
H	1.596028	-0.757819	-1.637621
C	-1.582054	-0.090562	-1.976687
N	-2.69281	-0.265405	-2.321351
C	-0.455277	-1.283109	0.505446
N	-0.810337	-2.313226	0.948197
C	-0.568738	1.086855	0.76394
N	-1.000053	1.948211	1.438508
H	2.510677	0.0	0.0
