14

C	-0.441239	-0.066674	-1.478383
C	0.0	0.0	0.0
Br	0.355938	-1.688232	-2.261361
H	1.109424	0.0	0.0
N	-1.866301	-0.133238	-1.747839
H	-2.296177	0.699949	-1.352337
H	-2.240478	-0.94209	-1.25954
C	0.105233	1.088959	-2.199763
N	0.459678	2.041391	-2.790443
C	-0.502416	-1.137934	0.737823
N	-0.869553	-2.079619	1.343376
C	-0.473362	1.236697	0.584363
N	-0.821077	2.26788	1.037219
H	2.423073	0.0	0.0
