17

C	-0.143103	0.019857	-1.545349
C	0.0	0.0	0.0
Br	-0.075114	-2.011005	-2.168076
H	1.100633	0.0	0.0
N	-1.367734	0.46	-2.168429
H	-1.511461	1.425538	-1.893002
H	-2.140195	-0.104734	-1.831887
N	0.939296	0.73893	-2.016961
H	1.024077	0.707764	-3.022278
H	1.803409	0.51132	-1.480509
C	-0.645059	-1.089442	0.693622
N	-1.210145	-1.888701	1.346437
C	-0.442016	1.342413	0.592298
H	-1.524114	1.506757	0.519817
H	-0.160614	1.377351	1.648036
H	0.090186	2.143129	0.074483
F	2.648056	0.0	0.0
