17

C	-0.154414	0.133138	-1.542423
C	0.0	0.0	0.0
Br	0.062785	2.070618	-2.014267
H	1.094005	0.0	0.0
N	0.94122	-0.534044	-2.212571
H	0.753545	-1.533696	-2.145004
H	1.788246	-0.351443	-1.635741
N	-1.456064	-0.239117	-2.028858
H	-1.684663	-1.15934	-1.669113
H	-1.408573	-0.283532	-3.040399
C	-0.440408	-1.345093	0.33956
N	-0.848109	-2.414345	0.618859
C	-0.657732	1.03681	0.897866
H	-0.601792	0.712534	1.942112
H	-1.708226	1.19319	0.630932
H	-0.122461	1.981719	0.808927
F	2.633978	0.0	0.0
