17

C	-0.140606	-0.236999	-1.532177
C	0.0	0.0	0.0
Br	-0.180405	1.782579	-2.446847
H	1.100803	0.0	0.0
N	0.96307	-0.935262	-1.91434
H	1.027427	-1.120371	-2.903128
H	1.828037	-0.66288	-1.391372
N	-1.346676	-0.763637	-2.112782
H	-1.533664	-1.651818	-1.656572
H	-2.114	-0.131531	-1.933201
C	-0.508533	-1.209909	0.62535
N	-0.975713	-2.174259	1.114801
C	-0.608102	1.23783	0.638326
H	-0.535093	1.150591	1.725879
H	-1.661475	1.371687	0.371651
H	-0.054246	2.119372	0.322984
F	2.65827	0.0	0.0
