17

C	0.044151	-0.011456	-1.53516
C	0.0	0.0	0.0
Br	-1.786696	0.060573	-2.358771
H	1.101656	0.0	0.0
N	0.784037	1.121996	-2.06224
H	1.670306	1.069755	-1.54132
H	0.319463	1.991089	-1.823158
N	0.686265	-1.237798	-1.914125
H	0.930578	-1.152162	-2.896372
H	1.561671	-1.22321	-1.375402
C	-0.573892	-1.203831	0.563004
N	-1.055985	-2.136741	1.093307
C	-0.559822	1.254547	0.647875
H	-0.502132	1.165306	1.73486
H	0.037351	2.122487	0.363057
H	-1.603749	1.425279	0.367424
F	2.641181	0.0	0.0
