17

C	0.0	0.0	0.0
C	-0.337965	0.006198	-1.523845
Br	1.962653	0.0	0.0
H	0.431459	-0.595286	-2.015531
N	-0.542021	1.168947	0.632884
H	-0.386348	1.09403	1.633535
H	-1.563688	1.088255	0.490689
C	-0.445796	-1.310628	0.634844
H	-0.066432	-1.363309	1.660753
H	-0.09088	-2.17768	0.07308
H	-1.541142	-1.301593	0.647862
C	-0.15263	1.368226	-2.084303
N	-0.00774	2.36224	-2.694967
N	-1.628451	-0.596338	-1.804252
H	-1.929153	-0.315759	-2.731678
H	-2.371129	-0.28205	-1.120054
H	-3.347152	0.0	0.0
