17

C	0.0	0.0	0.0
C	-0.681394	-0.048274	-1.328051
Br	2.05914	0.0	0.0
H	-1.86926	-0.05177	-0.846574
N	-0.395122	1.194541	0.631831
H	-0.324774	1.968563	-0.015197
H	0.147623	1.333221	1.482809
C	-0.382823	-1.2196	0.825531
H	0.0126	-1.155019	1.838203
H	-0.027677	-2.135325	0.353839
H	-1.490187	-1.196838	0.840339
C	-0.434344	-1.24967	-2.060765
N	-0.2471	-2.232355	-2.689506
N	-0.503175	1.173382	-2.089384
H	0.295149	1.077311	-2.711398
H	-1.328849	1.346205	-2.651543
H	-2.921336	0.0	0.0
