17

C	0.0	0.0	0.0
C	-0.279651	0.148002	-1.556555
Br	1.97145	0.0	0.0
H	0.38141	-0.592479	-2.03908
N	-0.380543	1.146199	0.807513
H	-1.402857	1.138431	0.933838
H	0.085799	1.089332	1.714906
C	-0.258409	-1.417991	0.608094
H	-1.306839	-1.608031	0.820626
H	0.309366	-1.473453	1.553048
H	0.163188	-2.193166	-0.057809
C	0.247625	1.480723	-2.000461
N	0.706704	2.482201	-2.420722
N	-1.632114	0.022468	-2.083493
H	-2.324231	-0.005475	-1.307609
H	-1.750938	-0.778358	-2.686908
H	-3.149326	0.0	0.0
