17

C	0.0	0.0	0.0
C	-0.502267	-0.041946	-1.449753
Br	2.034597	0.0	0.0
H	-1.608454	-0.107723	-1.277101
N	-0.533572	1.197967	0.567765
H	-0.330181	1.205465	1.563558
H	-1.569721	1.034909	0.473632
C	-0.385806	-1.267343	0.74333
H	-1.484638	-1.294305	0.710463
H	-0.055751	-1.206238	1.784398
H	0.041393	-2.1637	0.288999
C	-0.072091	-1.246974	-2.15768
N	0.259817	-2.211586	-2.740973
N	-0.225629	1.137017	-2.257145
H	-0.683607	1.90857	-1.783881
H	0.772411	1.321993	-2.200749
H	-3.015899	0.0	0.0
