17

C	0.0	0.0	0.0
C	-0.539191	-0.059322	-1.430017
Br	1.98414	0.0	0.0
H	-1.645151	-0.083477	-1.230474
N	-0.499218	1.193448	0.609515
H	-1.524726	1.133729	0.451491
H	-0.362861	1.107823	1.613484
C	-0.407749	-1.271318	0.737102
H	-1.506691	-1.27929	0.712914
H	0.002705	-2.175843	0.283285
H	-0.067284	-1.215032	1.775022
C	-0.154458	-1.309328	-2.105511
N	0.138487	-2.267237	-2.723795
N	-0.221886	1.122812	-2.215181
H	-0.741453	1.087664	-3.082553
H	0.7665	1.124281	-2.436766
H	-3.078354	0.0	0.0
