18

C	-0.601349	-0.027875	-1.406977
C	0.0	0.0	0.0
Br	0.068562	-1.50982	-2.45374
H	1.092498	0.0	0.0
N	-2.024489	-0.10504	-1.365935
H	-2.383357	0.801553	-1.088208
H	-2.386025	-0.307701	-2.289944
N	-0.131759	1.268252	-2.139055
O	1.041362	1.365896	-2.454687
O	-0.992392	2.142961	-2.282654
N	-0.400419	-1.232798	0.662858
H	-1.310108	-1.135265	1.095282
H	0.292645	-1.458532	1.363801
C	-0.434895	1.266941	0.747534
H	-0.119391	2.18464	0.24611
H	0.051101	1.250099	1.725276
H	-1.519303	1.299354	0.907136
Cl	3.453478	0.0	0.0
