18

C	-0.29664	0.088574	-1.509424
C	0.0	0.0	0.0
Br	-2.078531	0.827518	-1.939066
H	1.098401	0.0	0.0
N	0.690051	0.867298	-2.120949
H	0.674809	0.826007	-3.129236
H	1.612713	0.641337	-1.746871
N	-0.319244	-1.386895	-2.035781
O	0.801924	-1.879444	-2.085849
O	-1.361726	-1.954208	-2.318263
N	-0.516657	-1.229726	0.574877
H	-1.158048	-1.027951	1.330362
H	0.257102	-1.771808	0.942092
C	-0.434672	1.250107	0.744989
H	-0.138369	2.146585	0.199892
H	-1.519155	1.269345	0.889815
H	0.059005	1.258946	1.719641
Cl	3.405314	0.0	0.0
