18

C	-0.579128	-0.002999	-1.413735
C	0.0	0.0	0.0
Br	0.351898	-1.468504	-2.471654
H	1.09398	0.0	0.0
N	-1.968333	-0.131852	-1.394588
H	-2.19116	-0.886642	-0.753372
H	-2.358879	-0.264198	-2.31652
N	-0.233145	1.232986	-2.22803
O	0.725156	1.905521	-1.875308
O	-0.950729	1.451828	-3.202105
N	-0.51003	-1.241969	0.627044
H	-0.429082	-1.122596	1.630937
H	0.138485	-1.985136	0.383969
C	-0.508013	1.193697	0.798857
H	-0.037673	1.167965	1.786
H	-0.216087	2.132496	0.331338
H	-1.594177	1.160225	0.911507
Cl	3.476447	0.0	0.0
