16

C	0.0	0.0	0.0
C	-0.56258	0.312338	-1.39577
Cl	1.796473	0.0	0.0
H	-1.659103	0.313802	-1.241138
C	-0.379429	1.072205	0.929335
N	-0.597084	1.943904	1.686132
C	-0.49593	-1.349626	0.491864
H	-1.589304	-1.319057	0.503445
H	-0.14701	-2.121521	-0.192683
H	-0.115662	-1.537821	1.49713
N	-0.214235	-0.738459	-2.338814
H	-0.926458	-0.79508	-3.053873
H	0.675923	-0.542083	-2.775559
C	-0.141545	1.649142	-1.848123
N	0.2576	2.668544	-2.276469
Br	-3.840564	0.0	0.0
