16

C	0.0	0.0	0.0
C	-0.450239	0.010738	-1.471782
F	1.384818	0.0	0.0
H	-0.351973	-1.005736	-1.85867
C	-0.423737	1.199684	0.738745
N	-0.554174	2.151134	1.41524
C	-0.377517	-1.289061	0.717031
H	-1.458257	-1.384513	0.695806
H	0.129637	-2.112712	0.204758
H	-0.00098	-1.235156	1.741299
N	0.573248	0.809257	-2.251961
O	1.243801	0.203657	-3.085925
O	0.66296	2.002217	-1.98534
C	-1.777761	0.542942	-1.814755
N	-2.495977	1.012415	-2.630324
F	-2.517281	0.0	0.0
