16

C	0.0	0.0	0.0
C	-0.488835	-0.322294	-1.425295
F	1.39193	0.0	0.0
H	0.420013	-0.465866	-2.030247
C	-0.437011	1.293543	0.539568
N	-0.530258	2.314308	1.115621
C	-0.323362	-1.110146	1.007283
H	-1.4019	-1.183942	1.095421
H	0.148403	-0.833858	1.953328
H	0.128336	-2.042483	0.656616
N	-1.184979	0.81044	-2.135798
O	-0.652866	1.909975	-2.015436
O	-2.120064	0.542317	-2.87421
C	-1.294079	-1.53522	-1.514272
N	-1.731257	-2.608753	-1.706429
F	-2.41643	0.0	0.0
