16

C	0.0	0.0	0.0
C	-0.492575	-0.165191	-1.451749
F	1.386704	0.0	0.0
H	0.415646	-0.273823	-2.065513
C	-0.435905	1.228089	0.677551
N	-0.560627	2.181771	1.353072
C	-0.329024	-1.214932	0.876491
H	-1.408443	-1.289564	0.95792
H	0.114368	-2.104721	0.420697
H	0.146975	-1.051036	1.846624
N	-1.144793	1.05836	-2.043065
O	-0.572666	2.118586	-1.808584
O	-2.088725	0.904808	-2.80249
C	-1.336924	-1.333801	-1.666737
N	-1.79925	-2.362731	-1.995279
F	-2.425052	0.0	0.0
