16

C	0.0	0.0	0.0
C	-0.491349	-0.457661	-1.387729
F	1.386465	0.0	0.0
H	0.416812	-0.641005	-1.982768
C	-0.440142	1.338775	0.413753
N	-0.530971	2.408541	0.893538
C	-0.327013	-1.007813	1.109522
H	-1.405742	-1.073164	1.198687
H	0.14052	-0.640933	2.026939
H	0.128319	-1.968416	0.853631
N	-1.209338	0.591479	-2.198438
O	-0.701761	1.708317	-2.180221
O	-2.133473	0.233049	-2.912251
C	-1.279254	-1.684091	-1.359167
N	-1.71324	-2.773006	-1.434094
F	-2.417978	0.0	0.0
