16

C	0.0	0.0	0.0
C	-0.54857	0.364011	-1.409168
F	1.384873	0.0	0.0
H	-1.149884	-0.463647	-1.773059
C	-0.428715	0.964838	1.020331
N	-0.539382	1.75489	1.884834
C	-0.348439	-1.436307	0.365536
H	0.119741	-1.67029	1.324638
H	-1.429177	-1.511421	0.405873
H	0.090197	-2.082293	-0.400829
N	0.657702	0.466465	-2.329496
O	0.987985	-0.57669	-2.891805
O	1.240718	1.540841	-2.417363
C	-1.317997	1.595362	-1.511625
N	-1.845476	2.613777	-1.771209
F	-2.451862	0.0	0.0
