17

C	-0.498138	-0.012879	-1.436164
C	0.0	0.0	0.0
F	0.088536	-1.006128	-2.097068
H	1.093245	0.0	0.0
N	-2.001286	-0.248958	-1.490093
O	-2.431455	-0.852408	-2.462495
O	-2.649157	0.211423	-0.557519
N	-0.266708	1.256339	-2.256823
O	0.871469	1.398188	-2.668747
O	-1.235124	1.983286	-2.444829
N	-0.450413	-1.187542	0.637401
H	-1.282907	-1.010726	1.184268
H	0.286446	-1.536003	1.235819
N	-0.391072	1.273506	0.716842
O	-0.876348	1.170608	1.838658
O	-0.136092	2.325468	0.139194
Br	3.33024	0.0	0.0
