17

C	-0.499791	-0.076533	-1.42948
C	0.0	0.0	0.0
F	-0.140879	0.936491	-2.211147
H	1.094854	0.0	0.0
N	-0.004355	-1.364578	-2.10393
O	-0.628931	-2.387021	-1.858262
O	0.961741	-1.228557	-2.840138
N	-2.020944	-0.160387	-1.528417
O	-2.661866	0.043482	-0.501313
O	-2.474095	-0.363072	-2.648935
N	-0.406946	-1.122595	0.753734
H	0.298004	-1.335483	1.443476
H	-1.305979	-0.983835	1.189989
N	-0.403773	1.339184	0.624734
O	-0.890242	1.295228	1.75087
O	-0.173381	2.361326	-0.011355
Br	3.324558	0.0	0.0
