17

C	-0.50877	0.005361	-1.430304
C	0.0	0.0	0.0
F	0.233024	0.704541	-2.274692
H	1.093405	0.0	0.0
N	-0.551052	-1.438096	-1.946404
O	0.512954	-1.863343	-2.362753
O	-1.625339	-2.021345	-1.892128
N	-1.949978	0.490376	-1.542396
O	-2.648705	0.347946	-0.545582
O	-2.292757	0.941885	-2.625502
N	-0.436296	-1.127454	0.728548
H	-1.372967	-1.015791	1.090796
H	0.21932	-1.325221	1.471371
N	-0.369582	1.339339	0.625021
O	-0.52201	1.358585	1.840493
O	-0.438211	2.309762	-0.12498
Br	3.328801	0.0	0.0
