17

C	-0.409193	-0.001858	-1.455694
C	0.0	0.0	0.0
F	0.347672	0.748452	-2.242881
H	1.093949	0.0	0.0
N	-0.327295	-1.433715	-2.001277
O	-1.376531	-2.061011	-2.089145
O	0.800496	-1.839343	-2.209935
N	-1.867121	0.402193	-1.681759
O	-2.63133	0.23347	-0.73731
O	-2.148193	0.879179	-2.769249
N	-0.478474	-1.135765	0.695932
H	-1.457409	-1.039651	0.942724
H	0.090716	-1.285584	1.520612
N	-0.358754	1.321869	0.607376
O	-0.528868	2.285422	-0.144328
O	-0.493984	1.35887	1.829777
Br	3.184368	0.0	0.0
