17

C	-0.411293	-8.6e-05	-1.45657
C	0.0	0.0	0.0
F	0.156154	-1.074918	-2.038596
H	1.093585	0.0	0.0
N	-1.87999	-0.041504	-1.789292
O	-2.501061	1.018407	-1.519559
O	-2.24192	-0.790632	-2.744468
N	0.100623	1.171632	-2.250514
O	1.296717	1.474579	-1.978423
O	-0.371127	1.336592	-3.410064
N	-0.448475	-1.163388	0.709629
H	-1.448251	-1.308087	0.595113
H	0.038984	-1.975663	0.34189
N	-0.4569	1.16482	0.797463
O	-1.70149	1.274383	0.991614
O	0.357817	1.564383	1.680814
Br	2.68838	0.0	0.0
