17

C	-0.397178	-0.046931	-1.470698
C	0.0	0.0	0.0
F	0.083919	1.002402	-2.1265
H	1.089806	0.0	0.0
N	0.142759	-1.296941	-2.175974
O	0.633184	-2.188652	-1.501243
O	0.01517	-1.267617	-3.395005
N	-1.892457	-0.136699	-1.763079
O	-2.384956	0.677171	-2.520341
O	-2.457004	-1.085352	-1.220704
N	-0.463831	-1.009598	0.883693
H	0.294919	-1.645336	1.081365
H	-1.270147	-1.506385	0.537298
N	-0.477298	1.337525	0.529859
O	0.152448	1.820586	1.455957
O	-1.511228	1.800017	0.040525
Br	3.361089	0.0	0.0
