17

C	-0.485196	0.019543	-1.441726
C	0.0	0.0	0.0
F	0.134529	-0.935814	-2.128032
H	1.090417	0.0	0.0
N	-1.979868	-0.253896	-1.515801
O	-2.385259	-0.856226	-2.499464
O	-2.648431	0.179493	-0.583945
N	-0.278383	1.318391	-2.22184
O	-1.2664	2.017247	-2.414251
O	0.862629	1.50867	-2.604163
N	-0.444641	-1.208759	0.59985
H	-1.286866	-1.057981	1.139644
H	0.287887	-1.565892	1.199152
N	-0.409122	1.249497	0.747383
O	-0.178709	2.319638	0.194397
O	-0.886553	1.110639	1.868709
Br	3.332248	0.0	0.0
