18

C	-0.427792	-0.023532	-1.494502
C	0.0	0.0	0.0
Br	0.138322	1.699175	-2.276167
H	1.096341	0.0	0.0
C	0.331784	-1.124048	-2.217597
H	0.130394	-1.090376	-3.291707
H	0.00958	-2.095938	-1.832147
H	1.403649	-1.016062	-2.035623
C	-1.931461	-0.134895	-1.692261
H	-2.459927	0.684703	-1.199777
H	-2.177318	-0.102764	-2.756242
H	-2.287026	-1.08202	-1.277228
C	-0.459533	-1.258477	0.603722
N	-0.879314	-2.265571	1.039436
N	-0.450259	1.10334	0.830709
H	0.097035	1.91963	0.589056
H	-1.432852	1.308152	0.675118
Cl	3.405039	0.0	0.0
