18

C	-0.480943	0.049389	-1.464201
C	0.0	0.0	0.0
Br	0.055151	1.813698	-2.195389
H	1.094664	0.0	0.0
C	0.258546	-1.004685	-2.272794
H	0.009209	-0.919174	-3.33312
H	1.33696	-0.893392	-2.135405
H	-0.037339	-2.000066	-1.923873
C	-1.991977	-0.044012	-1.588809
H	-2.299427	0.084647	-2.628972
H	-2.318813	-1.030912	-1.246124
H	-2.470459	0.716051	-0.971177
C	-0.45106	-1.275701	0.570696
N	-0.843229	-2.289492	1.01803
N	-0.56942	1.087908	0.814764
H	-0.113139	1.936957	0.498837
H	-0.245719	0.940854	1.764959
Cl	3.377299	0.0	0.0
