18

C	-0.490411	0.048385	-1.460269
C	0.0	0.0	0.0
Br	-0.018803	-1.667794	-2.312749
H	1.094731	0.0	0.0
C	-1.997397	0.200164	-1.555398
H	-2.510992	-0.615299	-1.041294
H	-2.283546	1.15067	-1.10015
H	-2.314523	0.20354	-2.600372
C	0.26549	1.141576	-2.198898
H	1.342099	0.981582	-2.104055
H	-0.014367	1.153896	-3.255125
H	0.012846	2.103026	-1.744183
C	-0.507952	-1.1779	0.712974
N	-0.97078	-2.045087	1.357779
N	-0.399313	1.241418	0.682092
H	0.349885	1.499062	1.313778
H	-1.240847	1.099796	1.227961
Cl	3.357748	0.0	0.0
