18

C	-0.492205	0.052591	-1.460256
C	0.0	0.0	0.0
Br	-0.072128	-1.683093	-2.299844
H	1.094717	0.0	0.0
C	-1.994891	0.255454	-1.545394
H	-2.535195	-0.538955	-1.022876
H	-2.317527	0.263259	-2.587738
H	-2.243126	1.219287	-1.091725
C	0.286432	1.123745	-2.204584
H	1.357519	0.934135	-2.116909
H	-0.000751	1.146143	-3.258574
H	0.063363	2.089363	-1.745261
C	-0.518287	-1.168489	0.721133
N	-0.994804	-2.0221	1.375397
N	-0.387797	1.251575	0.672869
H	0.373919	1.524055	1.283012
H	-1.21514	1.113856	1.238105
Cl	3.343435	0.0	0.0
