18

C	-0.477075	-0.019961	-1.466837
C	0.0	0.0	0.0
Br	0.058937	1.708266	-2.276716
H	1.101565	0.0	0.0
C	0.265626	-1.110456	-2.221814
H	-0.034731	-2.087879	-1.829497
H	1.343056	-0.994704	-2.082935
H	0.022934	-1.073914	-3.286625
C	-1.987309	-0.122039	-1.59114
H	-2.313766	-1.092166	-1.203177
H	-2.468557	0.665389	-1.011346
H	-2.292167	-0.043854	-2.637177
C	-0.449918	-1.248036	0.628868
N	-0.828945	-2.238965	1.133943
N	-0.572603	1.125035	0.758733
H	-0.286998	1.002946	1.725687
H	-0.083547	1.953963	0.433552
Cl	3.37738	0.0	0.0
