18

C	-0.491318	0.048852	-1.461544
C	0.0	0.0	0.0
Br	-0.04149	-1.677109	-2.304633
H	1.094797	0.0	0.0
C	-1.997182	0.227354	-1.551552
H	-2.317901	0.236671	-2.595664
H	-2.26482	1.183528	-1.093024
H	-2.523614	-0.580847	-1.037059
C	0.271899	1.134811	-2.199515
H	0.034425	2.096029	-1.738213
H	-0.014264	1.155836	-3.254314
H	1.345732	0.960368	-2.109634
C	-0.511643	-1.173426	0.719086
N	-0.979539	-2.03369	1.370277
N	-0.394789	1.248076	0.674329
H	-1.222979	1.105561	1.240879
H	0.366817	1.521285	1.286435
Cl	3.340307	0.0	0.0
