18

C	-0.336732	0.013189	-1.493382
C	0.0	0.0	0.0
Br	-2.321214	0.070906	-1.708816
H	1.098399	0.0	0.0
C	0.2443	1.260734	-2.132846
H	1.328689	1.23548	-1.973895
H	0.028722	1.275695	-3.204677
H	-0.155599	2.156582	-1.660691
C	0.175741	-1.25121	-2.159407
H	-0.015846	-1.220057	-3.235013
H	-0.292781	-2.146105	-1.745168
H	1.256484	-1.301717	-1.982608
C	-0.464482	-1.23491	0.652169
N	-0.832142	-2.194828	1.222934
N	-0.441018	1.206035	0.686365
H	0.14523	1.340755	1.503501
H	-1.405073	1.106813	0.98695
Cl	3.334999	0.0	0.0
