13

C	0.0	0.0	0.0
C	-0.56042	-0.173597	-1.407247
Cl	1.776152	0.0	0.0
H	-1.672709	-0.068554	-1.278195
H	-0.345313	-0.863926	0.571774
C	-0.439246	1.211184	0.698742
N	-0.605829	2.163753	1.365734
C	-0.235958	-1.486787	-1.940644
N	0.012801	-2.57298	-2.312437
N	-0.105268	0.892194	-2.356901
O	0.044117	0.573103	-3.533932
O	0.023637	2.019467	-1.893761
Br	-3.469318	0.0	0.0
