13

C	0.0	0.0	0.0
C	-0.553577	-0.096256	-1.417461
Cl	1.775716	0.0	0.0
H	-1.66287	0.026533	-1.299108
H	-0.351698	-0.888179	0.528227
C	-0.432239	1.179826	0.754304
N	-0.585462	2.10347	1.463535
C	-0.24757	-1.389722	-2.009164
N	-0.015268	-2.461886	-2.429747
N	-0.05205	1.007844	-2.29915
O	-0.087825	2.13441	-1.817735
O	0.307447	0.72064	-3.438778
Br	-3.456974	0.0	0.0
