14

C	0.0	0.0	0.0
C	-0.437934	0.324225	-1.475594
F	1.389816	0.0	0.0
H	0.465107	0.276923	-2.096871
H	-0.336865	0.837864	0.605941
N	-0.451703	-1.192536	0.610035
H	-0.262133	-1.972134	-0.006695
H	-1.481073	-1.010352	0.603706
C	-0.997619	1.666173	-1.567109
N	-1.290151	2.798914	-1.65237
N	-1.36367	-0.655199	-2.139297
O	-1.038873	-1.838743	-2.055501
O	-2.271008	-0.222031	-2.832984
F	-2.559914	0.0	0.0
