14

C	0.0	0.0	0.0
C	-0.570218	-0.694853	-1.235914
F	1.388748	0.0	0.0
H	-1.69843	-0.5148	-0.985266
H	-0.339529	1.032713	-0.047297
N	-0.471795	-0.58543	1.215128
H	-1.493137	-0.458066	1.127089
H	-0.270318	-1.581347	1.204148
C	-0.187613	-2.089713	-1.304762
N	0.127443	-3.220601	-1.267355
N	-0.22161	0.001339	-2.501833
O	0.0256	-0.675071	-3.502205
O	-0.250802	1.230944	-2.480958
F	-2.744719	0.0	0.0
