17
Coordinates from ORCA-job run
  C   0.64134992199883      0.29666407560543      0.70895472901730
  C   -0.71212815152865      0.47309449466087     -0.01699113051190
  H   1.01032118417035      1.30065665056057      0.95743299279755
  H   -1.41054072186872      0.90896064084741      0.71489000799609
  C   1.69938316810233     -0.41886924672985     -0.13533432511683
  H   2.67609044352263     -0.36057530596362      0.34874404056906
  H   1.75327051530152      0.05958984890898     -1.11290751605891
  H   1.45201084945321     -1.47329664058362     -0.26500056657267
  C   0.42707033643159     -0.40299657104867      1.97824670124227
  N   0.23598884609022     -0.98767313422607      2.97864123114549
  C   -1.28944620292943     -0.84914158138504     -0.49678553201331
  H   -2.30190061252056     -0.69862223612124     -0.88208081097937
  H   -1.34897472209722     -1.57485778798488      0.31705698285914
  H   -0.68051296028518     -1.26308939981649     -1.30252757893861
  N   -0.48724563200083      1.34933647514079     -1.16651107570861
  H   -0.36385763329082      2.30654409706663     -0.85518627957573
  H   -1.30087862854927      1.33427562106879     -1.77064187015096
