17
Coordinates from ORCA-job run
  C   0.82228991336649      0.15687297938960      0.31716395803168
  C   -0.68570211407081      0.29509173177329      0.03896612646075
  H   1.35608523483604      0.64771132007639     -0.50868095256985
  H   -1.21519103302405     -0.07257757264754      0.92635804704652
  C   1.30515053770808     -1.29305912028587      0.43173654541045
  H   1.21415868392095     -1.80957793053503     -0.52441689753602
  H   0.71780549521036     -1.83231068704936      1.17924307812500
  H   2.35233894655960     -1.32571637094291      0.73674362836070
  C   1.15701163506680      0.88546597642953      1.54471043791556
  N   1.45006526007203      1.40294324358128      2.55679413503042
  C   -1.11747010438768     -0.52882935713994     -1.17367271776776
  H   -2.16887229551422     -0.33043454583820     -1.39654299576222
  H   -0.52885939034691     -0.24998229314567     -2.05473321728264
  H   -1.00882183478039     -1.60383310673086     -1.01457036353404
  N   -0.98359688882191      1.72051652022719     -0.07207694626915
  H   -1.98244327686122      1.87595880520543     -0.00683622925287
  H   -0.68394876893315      2.06276040763265     -0.97918563640653
