17
Coordinates from ORCA-job run
  C   0.79087611835350      0.22077005708152      0.35730527215698
  C   -0.71737070510423      0.20357152258686      0.04829327313350
  H   1.27448252412475      0.85889577345394     -0.39557116568784
  H   -1.21292241684795     -0.31869599548097      0.87576547856556
  C   1.44774799261573     -1.16345237331527      0.33460894309036
  H   0.91808953624458     -1.84783373763144      1.00219010578123
  H   1.43942273102369     -1.58083355664569     -0.67290096326544
  H   2.48505966182488     -1.10166100464757      0.66762903545265
  C   1.00997952942588      0.84912751208625      1.66389871761478
  N   1.21711312466383      1.28741972230372      2.73296656750203
  C   -1.02152592443492     -0.53223711934424     -1.25640937793023
  H   -0.45628889860999     -0.09095679379444     -2.08484963338319
  H   -0.78306252286693     -1.59684265664720     -1.20671640925202
  H   -2.08522965081208     -0.44040690402435     -1.48997682791075
  N   -1.18818195604758      1.58573716113104      0.07671791955255
  H   -2.19958596144033      1.61054903151185      0.12750673885743
  H   -0.91760318211281      2.05684936137599     -0.78045767427760
