17
Coordinates from ORCA-job run
  C   0.80120956343633      0.23793543122164      0.32139949755672
  C   -0.71487130346955      0.21169239756310      0.05430596112837
  H   1.26783564937998      0.82379020588650     -0.48295523097084
  H   -1.19066143213546     -0.25209456215294      0.92696277844143
  C   1.45004210416457     -1.14944849330929      0.36939582685091
  H   2.49668465863412     -1.07333287109849      0.66854762424311
  H   0.93617418233768     -1.78572878914685      1.09438610832742
  H   1.41113898179648     -1.63065459847616     -0.60847334983361
  C   1.05893087898630      0.94627142665614      1.57916371177587
  N   1.29789730664842      1.44900099450102      2.61266792810897
  C   -1.05833111262980     -0.60501504540264     -1.19107629472890
  H   -0.82566408786054     -1.66607413628767     -1.07832115616230
  H   -2.12727768544559     -0.51984474191389     -1.40218295943160
  H   -0.51260495907113     -0.22337813288250     -2.06114731249308
  N   -1.17698178753398      1.59616627164338      0.00535244582298
  H   -2.18662378791124      1.63160244439413      0.08002183700202
  H   -0.92589716932656      2.00911219880453     -0.88704741563746
