15

C	-0.550251	-3.9e-05	-1.420119
C	0.0	0.0	0.0
Br	0.215232	-1.44073	-2.492561
H	1.090644	0.0	0.0
H	-1.623929	-0.195619	-1.404759
C	-0.303493	1.269208	-2.089366
N	-0.169448	2.309766	-2.618296
N	-0.485682	-1.229916	0.703504
O	0.160001	-1.59941	1.675168
O	-1.536276	-1.748172	0.317869
C	-0.49453	1.191389	0.810871
H	-1.587841	1.242046	0.833073
H	-0.093899	2.112484	0.387139
H	-0.112312	1.096892	1.828562
Cl	3.295389	0.0	0.0
