15

C	-0.468534	-0.001734	-1.455919
C	0.0	0.0	0.0
Br	0.127816	1.613659	-2.379856
H	1.09487	0.0	0.0
H	-8.8e-05	-0.829011	-1.985624
C	-1.920611	-0.092483	-1.573131
N	-3.091693	-0.171736	-1.637416
N	-0.384152	-1.334276	0.581568
O	-0.489167	-1.415957	1.80165
O	-0.525255	-2.281004	-0.195855
C	-0.547703	1.117678	0.85778
H	-1.639354	1.083335	0.920428
H	-0.131051	1.036108	1.859566
H	-0.238345	2.074205	0.437109
Cl	3.251331	0.0	0.0
