15

C	-0.41586	0.023041	-1.458278
C	0.0	0.0	0.0
Br	-2.377107	0.103363	-1.686453
H	1.094389	0.0	0.0
H	-0.055324	0.970737	-1.864933
C	0.092177	-1.044783	-2.311464
N	0.43908	-1.841127	-3.102655
N	-0.442982	-1.252457	0.680059
O	-0.607838	-2.258149	-0.008721
O	-0.579669	-1.210887	1.901541
C	-0.452765	1.220351	0.777065
H	-1.533126	1.236614	0.93002
H	0.046588	1.231235	1.743538
H	-0.149726	2.116648	0.231071
Cl	3.208718	0.0	0.0
