15

C	-0.381863	0.052555	-1.470888
C	0.0	0.0	0.0
Br	-2.343175	0.052147	-1.729701
H	1.094425	0.0	0.0
H	-0.056953	1.02743	-1.840899
C	0.180652	-0.96391	-2.352614
N	0.579852	-1.708543	-3.16925
N	-0.460518	-1.275407	0.6213
O	-0.323054	-2.303482	-0.038798
O	-0.923528	-1.228208	1.761663
C	-0.471716	1.203859	0.78667
H	-0.040955	1.168907	1.785387
H	-0.100656	2.105316	0.293401
H	-1.558547	1.249695	0.868122
Cl	3.207908	0.0	0.0
