15

C	-0.558207	-0.008752	-1.416609
C	0.0	0.0	0.0
Br	0.253023	-1.408414	-2.510172
H	1.09065	0.0	0.0
H	-1.623235	-0.245802	-1.395582
C	-0.367874	1.274754	-2.078532
N	-0.274535	2.318958	-2.609278
N	-0.471807	-1.233525	0.712716
O	0.131371	-1.536025	1.735517
O	-1.466028	-1.825308	0.279926
C	-0.493014	1.191877	0.810698
H	-1.586857	1.241405	0.837827
H	-0.096716	2.112529	0.381575
H	-0.105457	1.100801	1.82606
Cl	3.288978	0.0	0.0
