15

C	-0.556332	0.047002	-1.416787
C	0.0	0.0	0.0
Br	0.265258	-1.298634	-2.568453
H	1.090644	0.0	0.0
H	-1.619732	-0.19703	-1.40762
C	-0.372992	1.358703	-2.02325
N	-0.279218	2.425574	-2.50645
N	-0.471152	-1.260228	0.664193
O	-1.447606	-1.850782	0.194312
O	0.116602	-1.587994	1.687919
C	-0.493049	1.159136	0.857274
H	-0.099914	2.09646	0.463267
H	-0.103051	1.029034	1.867311
H	-1.587009	1.205035	0.888868
Cl	3.286918	0.0	0.0
