15

C	-0.483075	-0.00325	-1.450224
C	0.0	0.0	0.0
Br	0.157297	1.585992	-2.386744
H	1.093133	0.0	0.0
H	-0.048043	-0.848679	-1.979335
C	-1.938234	-0.044279	-1.555218
N	-3.111157	-0.058019	-1.620735
N	-0.392052	-1.323885	0.598863
O	-0.640662	-2.255936	-0.169232
O	-0.399571	-1.411842	1.822284
C	-0.535099	1.124163	0.859296
H	-1.62615	1.095252	0.93383
H	-0.225505	2.077513	0.4321
H	-0.106446	1.042666	1.856005
Cl	3.243383	0.0	0.0
