15

C	-0.410755	0.020348	-1.459259
C	0.0	0.0	0.0
Br	-2.356523	0.23427	-1.723815
H	1.093135	0.0	0.0
H	0.02131	0.932073	-1.879087
C	0.039075	-1.100496	-2.275506
N	0.383597	-1.97331	-2.981691
N	-0.458218	-1.233439	0.701529
O	-0.36694	-1.235222	1.926326
O	-0.872378	-2.175519	0.028193
C	-0.43966	1.229736	0.77444
H	-1.51839	1.248831	0.941734
H	-0.145203	2.12193	0.217336
H	0.076802	1.243996	1.732372
Cl	3.211555	0.0	0.0
