15

C	0.0	0.0	0.0
C	-0.502939	-0.252078	-1.421143
F	1.414653	0.0	0.0
H	-0.244652	0.618594	-2.029915
H	-1.601672	-0.302635	-1.288097
N	-0.519344	1.28111	0.376344
H	-0.317412	1.418958	1.363401
H	-1.545779	1.098197	0.303217
C	-0.407995	-1.132303	0.931234
H	-1.500692	-1.129724	0.92986
H	-0.01609	-0.922054	1.931879
H	-0.003888	-2.091465	0.593705
C	0.044631	-1.453815	-2.031467
N	0.480032	-2.420643	-2.536826
F	-2.887205	0.0	0.0
