15

C	0.0	0.0	0.0
C	-0.502876	0.017992	-1.44944
F	1.420441	0.0	0.0
H	-1.548338	0.343801	-1.357763
H	0.11813	0.707291	-2.027703
N	-0.494051	1.205677	0.604039
H	-1.522513	1.031196	0.54472
H	-0.240771	1.175677	1.587446
C	-0.401618	-1.268352	0.733888
H	0.034856	-2.155188	0.269652
H	-0.044516	-1.198887	1.766289
H	-1.493766	-1.290468	0.701701
C	-0.534926	-1.286782	-2.096143
N	-0.616443	-2.335044	-2.618159
F	-2.850112	0.0	0.0
