15

C	0.0	0.0	0.0
C	-0.492677	0.035065	-1.457203
F	1.393408	0.0	0.0
H	-1.593526	0.023939	-1.324172
H	-0.160761	-0.850568	-2.006802
N	-0.507986	1.089785	0.777433
H	-0.292338	1.962906	0.303943
H	-1.532789	0.933999	0.703345
C	-0.444889	-1.303821	0.639898
H	-0.0268	-2.155023	0.093998
H	-1.537338	-1.303729	0.61081
H	-0.079728	-1.31734	1.66892
C	-0.04399	1.229163	-2.157434
N	0.316323	2.203776	-2.706444
F	-2.891136	0.0	0.0
