15

C	0.0	0.0	0.0
C	-0.483864	-0.057733	-1.459195
F	1.395192	0.0	0.0
H	-0.193747	0.867815	-1.969788
H	-1.584987	-0.093582	-1.339043
N	-0.525824	1.156938	0.663539
H	-0.346122	1.971146	0.080552
H	-1.549278	0.961001	0.605551
C	-0.437907	-1.23934	0.756313
H	-1.528795	-1.260913	0.716697
H	-0.089011	-1.144424	1.787152
H	0.003022	-2.132859	0.307118
C	0.030725	-1.189176	-2.219455
N	0.447535	-2.099888	-2.834103
F	-2.892824	0.0	0.0
