15

C	0.0	0.0	0.0
C	-0.510771	0.239632	-1.420056
F	1.396076	0.0	0.0
H	-1.611303	0.161495	-1.305818
H	-0.234694	1.256518	-1.712791
N	-0.517722	1.082994	0.790863
H	-0.317473	0.869645	1.764894
H	-1.543252	0.939738	0.663221
C	-0.416942	-1.375342	0.5033
H	-0.012585	-2.171266	-0.128852
H	-1.509367	-1.372766	0.499949
H	-0.029504	-1.509276	1.519227
C	0.016369	-0.707822	-2.390275
N	0.427423	-1.472069	-3.182589
F	-2.896816	0.0	0.0
