15

C	0.0	0.0	0.0
C	-0.604111	0.117674	-1.390966
F	1.41731	0.0	0.0
H	-1.707714	0.140788	-1.105195
H	-0.378736	-0.75468	-2.00833
N	-0.371534	1.186058	0.731431
H	-0.457836	0.982569	1.719252
H	0.346263	1.883766	0.580332
C	-0.520587	-1.240237	0.672072
H	-0.110722	-1.306961	1.6875
H	-0.211627	-2.132579	0.117865
H	-1.615696	-1.110944	0.659604
C	-0.185955	1.324602	-2.080124
N	0.156815	2.303343	-2.633793
F	-2.966589	0.0	0.0
