17

C	-0.473851	0.04408	-1.453915
C	0.0	0.0	0.0
F	-0.021287	-1.155521	-2.050612
H	1.093794	0.0	0.0
N	-1.903487	0.096978	-1.506384
H	-2.277884	-0.782779	-1.165722
H	-2.201866	0.21324	-2.467764
C	0.169433	1.186805	-2.200078
H	-0.166705	2.134381	-1.783712
H	1.252568	1.106746	-2.09195
H	-0.095455	1.123089	-3.260233
C	-0.505354	-1.233405	0.634154
N	-0.991403	-2.154307	1.179981
N	-0.43106	1.212162	0.685554
H	-1.418525	1.160712	0.902633
H	0.10186	1.312109	1.54075
Cl	3.38248	0.0	0.0
