17

C	-0.374656	-0.037466	-1.488051
C	0.0	0.0	0.0
F	-0.074629	1.280333	-1.965477
H	1.103257	0.0	0.0
N	0.442652	-1.008087	-2.107982
H	0.330708	-0.988533	-3.113376
H	1.420467	-0.860201	-1.862296
C	-1.846051	-0.238963	-1.770388
H	-2.153225	-1.23775	-1.459004
H	-2.032569	-0.12177	-2.841634
H	-2.421687	0.508964	-1.224568
C	-0.482657	-1.211377	0.661744
N	-0.861112	-2.179522	1.207861
N	-0.585534	1.1834	0.644822
H	-0.23487	1.20694	1.597324
H	-0.169703	1.979728	0.172398
Cl	3.396287	0.0	0.0
