17

C	-0.354463	0.024127	-1.493625
C	0.0	0.0	0.0
F	-1.759371	0.091205	-1.57933
H	1.094886	0.0	0.0
N	0.167034	1.200888	-2.127718
H	0.044529	1.962261	-1.463812
H	1.170251	1.070419	-2.231545
C	0.115174	-1.223342	-2.202848
H	-0.080755	-1.11468	-3.270884
H	1.18628	-1.358318	-2.032633
H	-0.418255	-2.097011	-1.825844
C	-0.50626	-1.206725	0.666008
N	-0.918269	-2.150321	1.233327
N	-0.450666	1.235065	0.636344
H	0.125476	1.414187	1.448722
H	-1.416085	1.151783	0.928069
Cl	3.326542	0.0	0.0
