17

C	-0.287607	0.051277	-1.509603
C	0.0	0.0	0.0
F	-1.662599	0.302342	-1.70813
H	1.097794	0.0	0.0
N	0.429812	1.19391	-2.017354
H	0.480572	1.137468	-3.027782
H	1.384693	1.161456	-1.65871
C	0.023783	-1.254563	-2.211966
H	1.072846	-1.507943	-2.038907
H	-0.146903	-1.134698	-3.286701
H	-0.611433	-2.063625	-1.84545
C	-0.530115	-1.224799	0.602002
N	-0.968478	-2.211536	1.064614
N	-0.475324	1.163143	0.737817
H	0.19451	1.912315	0.593016
H	-1.356532	1.456839	0.326364
Cl	3.325874	0.0	0.0
