17

C	-0.482477	0.096239	-1.448782
C	0.0	0.0	0.0
F	-0.004263	-1.060897	-2.102028
H	1.0924	0.0	0.0
N	-1.914016	0.115438	-1.489165
H	-2.262901	-0.810009	-1.261732
H	-2.228381	0.353209	-2.423361
C	0.122687	1.289923	-2.144936
H	-0.261659	2.209426	-1.708251
H	1.206168	1.253998	-2.02191
H	-0.121693	1.244706	-3.21089
C	-0.48856	-1.261628	0.590866
N	-0.953823	-2.209036	1.109004
N	-0.441991	1.180941	0.730271
H	-1.428277	1.108702	0.94369
H	0.089299	1.253635	1.588307
Cl	3.418349	0.0	0.0
