17

C	-0.473854	0.044053	-1.453908
C	0.0	0.0	0.0
F	-0.020759	-1.155276	-2.050723
H	1.093744	0.0	0.0
N	-1.903513	0.096321	-1.506383
H	-2.201921	0.212379	-2.467766
H	-2.277525	-0.783589	-1.165689
C	0.168895	1.187156	-2.199959
H	1.252059	1.107749	-2.091656
H	-0.095776	1.123267	-3.260156
H	-0.1679	2.134526	-1.783658
C	-0.505174	-1.233512	0.634114
N	-0.990871	-2.154529	1.180065
N	-0.431266	1.212065	0.685581
H	-1.41878	1.160498	0.902438
H	0.101457	1.311975	1.540905
Cl	3.382499	0.0	0.0
