16

C	0.0	0.0	0.0
C	-0.512159	-0.046772	-1.426684
Br	2.022353	0.0	0.0
H	-1.620029	-0.032867	-1.305251
H	-0.13326	0.793163	-2.006307
C	-0.405456	1.34902	0.578303
H	0.001051	2.187768	0.006502
H	-1.505854	1.349062	0.557365
H	-0.058801	1.42673	1.612407
N	-0.504795	-1.119579	0.721883
H	-0.343912	-0.959977	1.712426
H	-1.535119	-1.058916	0.567439
N	-0.135243	-1.270693	-2.170824
O	-0.752487	-2.30598	-1.930304
O	0.764098	-1.167963	-3.01303
H	-3.070891	0.0	0.0
