16

C	0.0	0.0	0.0
C	-0.463959	-0.001748	-1.455678
Br	1.980341	0.0	0.0
H	-0.152374	0.902178	-1.976186
H	-1.568157	-0.098389	-1.388981
C	-0.402927	1.325822	0.622793
H	0.054047	2.16157	0.087788
H	-0.056451	1.332744	1.657402
H	-1.497683	1.384389	0.590555
N	-0.478477	-1.071489	0.813829
H	-1.506035	-0.943505	0.812878
H	-0.282891	-1.948315	0.342814
N	0.105034	-1.124681	-2.229341
O	-0.122769	-2.274115	-1.845869
O	0.792747	-0.852751	-3.215712
H	-3.160562	0.0	0.0
