16

C	0.0	0.0	0.0
C	-0.560698	-0.002238	-1.408048
Br	2.033504	0.0	0.0
H	-0.34945	-0.942616	-1.914637
H	-1.667824	0.118884	-1.229066
C	-0.495676	1.150954	0.83925
H	-1.59632	1.063602	0.793758
H	-0.143137	1.040321	1.869128
H	-0.167173	2.109011	0.444438
N	-0.429751	-1.220245	0.564722
H	0.020211	-2.034641	0.174199
H	-0.400197	-1.223119	1.571207
N	-0.037554	1.058046	-2.287983
O	0.516724	0.708537	-3.336781
O	-0.200602	2.233102	-1.952091
H	-3.240069	0.0	0.0
