15
Coordinates from ORCA-job run
  C   1.03997234610878      0.20854801476493     -0.36335816478063
  C   -0.47334610736483      0.25086564283810     -0.17271500986560
  Cl  1.92228947298005      0.57845633224506      1.09920859151985
  H   -0.91530805368359      0.09209029599164     -1.15994438009901
  H   1.34223154169717      0.89981491226127     -1.14731130581213
  N   1.36283223598679     -1.17836417167207     -0.89070505389572
  O   0.97019417174123     -1.35984778804891     -2.03985852877349
  O   1.91938373190774     -1.98914502829695     -0.16730008876563
  N   -0.81307571423058      1.68471092612574      0.16118588919632
  O   -0.44791193248265      2.51982295946570     -0.66220643924855
  O   -1.41939661136508      1.91319706059695      1.20134460354245
  C   -1.01517234228165     -0.71946059663387      0.84898323980684
  H   -0.80444108439437     -1.74221536946652      0.53006422122457
  H   -2.09492315728836     -0.60360597853037      0.93508560405751
  H   -0.57232849733066     -0.55486721164070      1.82952682189322
