15
Coordinates from ORCA-job run
  C   1.10861589844542      0.09298012896483     -0.13951989997674
  C   -0.39079360271413      0.37613386993246     -0.14802853411313
  Cl  1.74767590346025     -0.14545855199617      1.46967606794838
  H   -0.66086525101432      0.58915560614663     -1.18578073893926
  H   1.64922510156249      0.90456000664065     -0.62204388654316
  N   1.31653300292653     -1.12361102929067     -1.02368511060302
  O   1.12279851804797     -0.89220196735189     -2.21390913991895
  O   1.60302429099392     -2.19858930297292     -0.52087673480909
  N   -0.57190179769787      1.69760510028395      0.56230758745016
  O   -1.32676017062920      1.74212533470849      1.52662940965905
  O   0.06385479875707      2.63974135310984      0.09664761846350
  C   -1.24973258513147     -0.71478161380231      0.44454389488705
  H   -0.98438333127689     -0.91184869570762      1.48152956502814
  H   -1.12755444537843     -1.63236774652095     -0.13449286655160
  H   -2.29873633035133     -0.42344249214429      0.40700276801868
