15
Coordinates from ORCA-job run
  C   0.73710346565948     -0.68221398627454     -0.37252648417103
  C   -0.41193005180125      0.29312727371643     -0.21667450358002
  Cl  0.69587072303366     -1.40500958874331     -1.98429824000285
  H   -0.39437071681047      1.02224565122260     -1.02556527701798
  H   0.73208473052309     -1.47946227947250      0.36610861295883
  N   2.05913385293314      0.02546053703435     -0.21442708600749
  O   2.94060901422534     -0.59364396501003      0.36838330111790
  O   2.14195921962224      1.14610323970878     -0.70733167704844
  N   -0.19240824424824      1.07490321228614      1.04508623125279
  O   0.22996234214619      0.44145644824509      2.01264325066549
  O   -0.50006914214758      2.26046788422138      1.02978327768623
  C   -1.75778530304267     -0.40319416396982     -0.09763885101336
  H   -2.53452528189068      0.34177664765620      0.08370063908615
  H   -1.99759522810530     -0.93270305606326     -1.01927627823883
  H   -1.74703938009694     -1.11031385455751      0.73403308431260
