15
Coordinates from ORCA-job run
  C   1.12050201601851     -0.04193227780058     -0.00671236805975
  C   -0.32076791178258      0.44281113619086     -0.13493503520737
  Cl  1.52407199791743     -0.56005783413858      1.61300233370989
  H   -0.43205776791893      0.81785862654790     -1.15581320896840
  H   1.81169860033543      0.74009939525049     -0.31398726141499
  N   1.28461346192592     -1.15907267096495     -1.02176930109078
  O   1.26631143572579     -0.76073503272959     -2.18314944519206
  O   1.37481241758238     -2.31618383672202     -0.64304763358928
  N   -0.42602776298485      1.67700591234844      0.72946849858914
  O   -1.27948956819538      1.70179883041967      1.60864858036536
  O   0.36937220269077      2.57557905318080      0.46744047673931
  C   -1.37224743629068     -0.58611589292917      0.20378022357392
  H   -1.25681661117126     -0.95460050710982      1.22139661077377
  H   -2.36504891334679     -0.14838210703149      0.10661529604666
  H   -1.29892616050573     -1.42607279451198     -0.48993776627542
