15
Coordinates from ORCA-job run
  C   0.73798450933886     -0.23779831044535     -0.91951977243823
  C   -0.56895852998389      0.29967608725212     -0.34415975498287
  Cl  1.52543915149101      0.95639637527284     -1.93355573080963
  H   -1.16127078748792      0.64060756762535     -1.19472619207953
  H   0.51819394663539     -1.11926353640041     -1.52112690545379
  N   1.67878696325951     -0.74656882739691      0.16210274217510
  O   1.34176551586605     -1.83567993220189      0.61928803414508
  O   2.64411925657805     -0.07779910246950      0.48774066709560
  N   -0.29864746327980      1.54418783051159      0.45019328660664
  O   -0.77880076021394      2.59389860575005      0.03269047328448
  O   0.36729144380689      1.40154644961157      1.47276687539766
  C   -1.35005408669152     -0.67596413031723      0.51671311282877
  H   -2.30328102109589     -0.21959864154488      0.79148630589454
  H   -0.80180383025434     -0.93087989415705      1.42079846306440
  H   -1.55076430796844     -1.59276054109029     -0.03969160472825
