13

C	-0.435258	-0.080118	-1.42749
C	0.0	0.0	0.0
F	-1.815591	-0.184341	-1.576055
H	1.103349	0.0	0.0
H	-0.089652	0.766912	-2.018336
H	-0.36617	0.966545	0.37104
N	0.124159	-1.292393	-2.12384
O	1.048401	-1.108753	-2.911453
O	-0.379091	-2.382096	-1.85319
N	-0.471304	-1.091297	0.848641
H	0.248541	-1.802088	0.84559
H	-1.31597	-1.508218	0.47737
F	2.638304	0.0	0.0
