13

C	-0.502245	0.058275	-1.398368
C	0.0	0.0	0.0
F	-1.889359	0.017372	-1.487035
H	1.098327	0.0	0.0
H	-0.150941	0.93912	-1.930199
H	-0.377492	-0.915391	0.470702
N	-0.035932	-1.128825	-2.197977
O	-0.364848	-2.240237	-1.788969
O	0.611045	-0.909822	-3.220748
N	-0.419212	1.239353	0.672628
H	-1.18883	1.072838	1.305101
H	0.379452	1.555447	1.209187
F	2.650766	0.0	0.0
