13

C	-0.514331	0.084095	-1.393911
C	0.0	0.0	0.0
F	-1.900689	0.102687	-1.465632
H	1.092273	0.0	0.0
H	-0.129537	0.950639	-1.926907
H	-0.384095	-0.918403	0.459857
N	-0.100362	-1.120213	-2.195787
O	-0.568563	-2.205445	-1.851196
O	0.655397	-0.938714	-3.148907
N	-0.402579	1.233107	0.695518
H	-1.169468	1.059703	1.331994
H	0.402079	1.520603	1.238957
F	2.649904	0.0	0.0
