15

C	0.0	0.0	0.0
C	-0.462793	-0.169193	-1.482826
Cl	1.789015	0.0	0.0
H	0.411713	-0.00442	-2.121583
H	-0.30801	-0.868243	0.579307
C	-0.519697	1.255227	0.665224
H	-1.609621	1.140668	0.677486
H	-0.229862	2.144269	0.104462
H	-0.122085	1.317526	1.682786
N	-1.494252	0.778626	-1.860206
H	-2.307337	0.549214	-1.21351
H	-1.755687	0.581715	-2.821474
C	-0.832504	-1.592623	-1.693739
N	-1.100703	-2.71149	-1.935298
F	-3.023457	0.0	0.0
