15

C	0.0	0.0	0.0
C	-0.634155	0.122203	-1.37545
Cl	1.780941	0.0	0.0
H	-1.712067	0.28998	-1.084681
H	-0.31837	-0.966939	0.391847
C	-0.5033	1.096147	0.921207
H	-0.106922	0.961806	1.930929
H	-1.595765	0.991802	0.900483
H	-0.187958	2.077895	0.554487
N	-0.474743	-1.136885	-2.134883
H	-1.165958	-1.760729	-1.721149
H	-0.798717	-0.967491	-3.082036
C	-0.101374	1.24984	-2.130046
N	0.291166	2.155349	-2.768442
F	-2.932775	0.0	0.0
