15

C	0.0	0.0	0.0
C	-0.456792	-0.080723	-1.45644
Cl	1.797584	0.0	0.0
H	0.011357	-0.990672	-1.868584
H	-0.320101	-0.898291	0.522722
C	-0.413177	1.257167	0.74766
H	-1.499635	1.241428	0.786307
H	0.016693	1.24849	1.753248
H	-0.05242	2.134717	0.211508
N	-0.020729	1.119039	-2.193489
H	-0.501588	1.101262	-3.084815
H	0.976229	1.049872	-2.370058
C	-1.92289	-0.241659	-1.724608
N	-2.636379	-0.438999	-2.65696
F	-2.664033	0.0	0.0
