15

C	0.0	0.0	0.0
C	-0.389222	-0.183649	-1.504123
Cl	1.789079	0.0	0.0
H	0.454616	0.191111	-2.094893
H	-0.323194	-0.865902	0.575217
C	-0.562271	1.262592	0.607899
H	-1.651566	1.125277	0.5953
H	-0.279871	2.139043	0.022565
H	-0.196743	1.374523	1.633042
N	-1.575834	0.547066	-1.885957
H	-1.829187	0.270933	-2.828545
H	-2.359159	0.299111	-1.196639
C	-0.428988	-1.643361	-1.792622
N	-0.467847	-2.77848	-2.096769
F	-3.146236	0.0	0.0
