15

C	0.0	0.0	0.0
C	-0.287865	-0.012995	-1.530768
Cl	1.789236	0.0	0.0
H	0.393625	0.744284	-1.9437
H	-0.361324	-0.91176	0.470215
C	-0.560591	1.235757	0.671915
H	-0.307554	1.230334	1.735861
H	-0.143428	2.13705	0.214147
H	-1.650919	1.19831	0.551478
N	-1.645171	0.267984	-1.932587
H	-2.346715	0.112397	-1.118547
H	-1.899046	-0.382679	-2.668694
C	0.206925	-1.297714	-2.077705
N	0.601244	-2.284351	-2.573857
F	-3.205029	0.0	0.0
