15

C	0.0	0.0	0.0
C	-0.605937	0.096299	-1.381905
Cl	1.792865	0.0	0.0
H	-1.70842	0.064269	-1.086702
H	-0.304754	-0.976238	0.374353
C	-0.503917	1.094855	0.916729
H	-0.165501	2.075735	0.572445
H	-0.136148	0.937662	1.934043
H	-1.597559	0.999348	0.868192
N	-0.246742	-1.059247	-2.201816
H	-0.846681	-1.079503	-3.01909
H	0.712798	-0.964803	-2.523577
C	-0.286026	1.375545	-2.030524
N	-0.037938	2.363499	-2.619095
F	-2.912596	0.0	0.0
