18

C	-0.330186	0.015348	-1.486209
C	0.0	0.0	0.0
Br	-2.322013	0.10059	-1.75494
H	1.094866	0.0	0.0
C	0.295472	1.180263	-2.231665
H	0.18199	1.017897	-3.306521
H	1.357908	1.19839	-1.962421
H	-0.150149	2.132559	-1.961317
C	0.166481	-1.298231	-2.069858
H	1.238456	-1.361679	-1.842366
H	0.017232	-1.307447	-3.151332
H	-0.341494	-2.15948	-1.635806
C	-0.472828	-1.195642	0.669901
N	-0.761804	-2.213936	1.182459
N	-0.402222	1.187659	0.763122
O	-0.01787	2.279275	0.332309
O	-1.007045	1.032598	1.831371
H	2.483559	0.0	0.0
