18

C	-0.320166	0.034943	-1.488383
C	0.0	0.0	0.0
Br	-2.296017	0.215492	-1.788623
H	1.094839	0.0	0.0
C	0.384584	1.160016	-2.231005
H	0.294757	0.990762	-3.306601
H	-0.017816	2.135516	-1.978788
H	1.439217	1.119724	-1.933761
C	0.119129	-1.304108	-2.06661
H	-0.442217	-2.139518	-1.647275
H	-0.007484	-1.300075	-3.151129
H	1.18185	-1.427233	-1.821146
C	-0.469219	-1.202381	0.657573
N	-0.798	-2.221895	1.143142
N	-0.37301	1.166654	0.804723
O	-0.574222	0.985366	2.010101
O	-0.334781	2.277029	0.270805
H	2.463356	0.0	0.0
