18

C	-0.324893	0.014243	-1.488185
C	0.0	0.0	0.0
Br	-2.315087	0.09227	-1.769098
H	1.094856	0.0	0.0
C	0.301502	1.183457	-2.226879
H	1.363318	1.201776	-1.953475
H	-0.146255	2.134378	-1.954085
H	0.191486	1.025941	-3.30306
C	0.178713	-1.296821	-2.071988
H	1.249145	-1.358313	-1.835826
H	0.037335	-1.303151	-3.154925
H	-0.331056	-2.16043	-1.64412
C	-0.475221	-1.193954	0.670454
N	-0.758312	-2.215801	1.179064
N	-0.407345	1.19082	0.756538
O	0.003882	2.277949	0.341544
O	-1.048363	1.042376	1.803682
H	2.484661	0.0	0.0
