18

C	-0.46312	0.006813	-1.471705
C	0.0	0.0	0.0
Br	0.172957	1.646326	-2.36879
H	1.092103	0.0	0.0
C	0.228554	-1.163918	-2.160213
H	0.041287	-1.132559	-3.236253
H	1.303946	-1.108599	-1.962968
H	-0.158143	-2.107109	-1.761969
C	-1.977212	-0.026402	-1.615749
H	-2.442318	0.835132	-1.132666
H	-2.365946	-0.936958	-1.148449
H	-2.252945	-0.025138	-2.673423
C	-0.471181	-1.225984	0.62385
N	-0.801707	-2.26475	1.067446
N	-0.505129	1.151184	0.781664
O	0.115408	2.207942	0.671767
O	-1.500638	0.989405	1.504065
H	2.57223	0.0	0.0
