18

C	-0.458383	-0.021001	-1.471933
C	0.0	0.0	0.0
Br	0.221928	1.574184	-2.416318
H	1.092121	0.0	0.0
C	0.197701	-1.229113	-2.129358
H	-0.216538	-2.151634	-1.71212
H	0.014778	-1.215589	-3.206001
H	1.273449	-1.201708	-1.933864
C	-1.972313	-0.014913	-1.613719
H	-2.41027	0.876743	-1.161204
H	-2.252352	-0.042756	-2.669867
H	-2.386149	-0.8959	-1.112941
C	-0.461393	-1.212069	0.656029
N	-0.74741	-2.243744	1.142746
N	-0.498167	1.167078	0.757605
O	-1.459665	1.011691	1.526462
O	0.10031	2.229011	0.591342
H	2.554043	0.0	0.0
