16
Coordinates from ORCA-job run
  C   -0.41286000056456      0.44019740559301      0.02419593769895
  C   0.77617883357980     -0.52067022780020     -0.07892588157609
  F   0.01042486781757      1.56934518943857      0.65961286546610
  H   0.42820963085412     -1.42030635897616     -0.59092795262228
  N   -0.80444471766231      0.83584486052645     -1.39076481206602
  O   -0.85306305551561      2.02449240775999     -1.66759677533039
  O   -1.06017307642285     -0.11031301420709     -2.13162192336522
  C   -1.62163272659948     -0.12570044411130      0.71908990302494
  H   -1.33528208085925     -0.42950998375273      1.72433620307978
  H   -2.39237838089880      0.64564062064330      0.77119766215250
  H   -2.00503038043629     -0.98556263456901      0.17051585273984
  N   1.19662981555994     -0.86925212701953      1.26677531946382
  H   1.85273592513073     -1.63935592118844      1.23783122627309
  H   1.65923254197806     -0.07761122583586      1.69790352971308
  C   1.83860941833833      0.09286080220157     -0.90260723209267
  N   2.72384338570062      0.57090065129743     -1.50901392255943
