16
Coordinates from ORCA-job run
  C   -0.56803276333208      0.36694294505299      0.29926639020484
  C   0.90225157908861     -0.02589386584083      0.47698296529187
  F   -1.04984328434296      0.79084034841776      1.51331224951625
  H   1.38877246570825      0.80098632738068      1.00616693215933
  N   -0.58949062457492      1.62504256158332     -0.57572326546971
  O   -1.63131697272537      1.87269673539529     -1.17058852240649
  O   0.41397399897584      2.33598948347500     -0.55829510496105
  C   -1.45284572715455     -0.69275362722875     -0.28107746924893
  H   -1.06699496858471     -1.00271588002284     -1.25114825255997
  H   -2.46327609355113     -0.30521300195142     -0.39309686379429
  H   -1.46738106229404     -1.54701724421299      0.39746431414249
  N   1.48046214878831     -0.29480678575301     -0.83605703918570
  H   1.96911384418007      0.52876793587065     -1.16163592246720
  H   2.12899416957063     -1.06938694881912     -0.80201219122623
  C   0.96842482802095     -1.20970549944980      1.33605506028702
  N   1.03618846222711     -2.17377348389694      2.00238671971777
