16
Coordinates from ORCA-job run
  C   -0.53626312821085      0.33298474915220      0.40803911236775
  C   0.95404299039321     -0.01154425290655      0.35864500150617
  F   -0.88116519285716      0.53862793124769      1.71796171259526
  H   1.46352121338772      0.81127343575528      0.86686926021194
  N   -0.65750611830728      1.69924296440677     -0.26426641514100
  O   0.03408803195129      2.58672333034354      0.22362497212336
  O   -1.43169720569764      1.81479468311592     -1.20627914957073
  C   -1.45831939297417     -0.66870140574953     -0.21937542604518
  H   -2.48723848092213     -0.32158260523158     -0.13250665467821
  H   -1.22886480803263     -0.79870725582637     -1.27577450236991
  H   -1.35529379605146     -1.61786203824002      0.30986322965624
  N   1.38425250087736     -0.05015992864781     -1.02776440034845
  H   1.24147889242746     -0.96771462188263     -1.43079631339673
  H   2.36675844021288      0.17693616304580     -1.10268838757171
  C   1.19472557065041     -1.25032551526391      1.11651902604355
  N   1.39548048315301     -2.27398563331881      1.65692893461766
