16
Coordinates from ORCA-job run
  C   -0.55843331523369      0.27597923400609      0.26180808835008
  C   0.84226480869118     -0.32633173627799      0.41829404822542
  F   -0.77360831179875      1.02430505760947      1.38738350572251
  H   0.80090911332269     -0.87271240460555      1.37507508771222
  N   -0.52244404145802      1.24118846793696     -0.91154167589401
  O   -0.37205304949263      0.70722951838103     -2.00416783214817
  O   -0.64481067081133      2.43354344933807     -0.67962232391627
  C   -1.68144271346089     -0.70630200427090      0.07338878135592
  H   -1.69324807207275     -1.40669518227748      0.91084866126870
  H   -1.56095385847627     -1.25337420121969     -0.85995662970055
  H   -2.62847910731971     -0.16364111017681      0.05834060983193
  N   1.81451581132457      0.75502851078350      0.38362505949030
  H   1.66720425848726      1.36385201422731      1.18003689787475
  H   2.75645435534889      0.38745897824834      0.42847720940734
  C   1.13929492830543     -1.31186316799776     -0.62398811686808
  N   1.41582986464403     -2.14966542370460     -1.39800137071211
