16
Coordinates from ORCA-job run
  C   -0.57751517240993      0.34545119438110      0.33500337941097
  C   0.90034944516008     -0.02658330858085      0.47697508083310
  F   -1.08147390742242      0.56662148695142      1.58960044100315
  H   1.35607605456484      0.79062976254339      1.04200047778928
  N   -0.58628311018630      1.70887841008067     -0.35368801379648
  O   -1.23263351749671      1.83206436214119     -1.38670416906810
  O   0.05530251483145      2.58667516591401      0.21339376446040
  C   -1.43117069280449     -0.64360821371064     -0.39988587129538
  H   -1.07164693814603     -0.78471956608889     -1.41779631569531
  H   -1.41386224207609     -1.59095371736726      0.14196385281320
  H   -2.45614955026786     -0.27785123553143     -0.44632036515382
  N   1.50288087198071     -0.08215209814329     -0.84303544255993
  H   1.39531759821681     -0.99934848914818     -1.25755538607990
  H   2.49090295690263      0.12666925190149     -0.79289600011718
  C   1.01900362052637     -1.26428735392046      1.26486344848908
  N   1.12990206862693     -2.28648565142226      1.83308111896691
