16
Coordinates from ORCA-job run
  C   -0.43627768311075      0.41724834410940     -0.01635420589317
  C   0.80292542457794     -0.48382411810494     -0.03367227574338
  F   -0.07178936122517      1.62718181561422      0.49457665523514
  H   0.50108133246378     -1.44940898872184     -0.44474385973751
  N   -0.85724917904255      0.64285141404574     -1.45993507270403
  O   -1.06545094773155     -0.38710195041393     -2.09652676748970
  O   -0.97250660166221      1.79216565302271     -1.85704157731650
  C   -1.60801085242486     -0.13858704631919      0.74697466554259
  H   -1.94756639515307     -1.06928449553740      0.29323624825476
  H   -1.29904338478245     -0.32253505169520      1.77437500893112
  H   -2.41937255036765      0.59162993379853      0.72990760542783
  N   1.25027985129318     -0.66683348921039      1.33602045650983
  H   1.66858812399926      0.19056536208938      1.67729665326648
  H   1.95056034491438     -1.39648530893357      1.37823678279863
  C   1.82509770312151      0.09635398644390     -0.92913925559704
  N   2.67873417513019      0.55506393981256     -1.59321106148504
