16
Coordinates from ORCA-job run
  C   -0.43830577164747      0.41576908393591      0.01192364898990
  C   0.80551363723817     -0.47602375621847     -0.06080883826480
  F   -0.08755045395466      1.58074044879686      0.62638113337269
  H   0.51448530997141     -1.40621119212278     -0.55343465976994
  N   -0.83899803992272      0.75817580053284     -1.41427853829060
  O   -1.03242237454749     -0.21646957585879     -2.13668988104544
  O   -0.95357331309212      1.93586605225493     -1.71714848750789
  C   -1.61835363312328     -0.20568422077326      0.70883300608436
  H   -1.94582252489440     -1.09742271794010      0.17493565508960
  H   -2.43342615124277      0.52004227469376      0.73893956678363
  H   -1.32392727295177     -0.47189784541417      1.72243915317603
  N   1.23436647450150     -0.76828720153988      1.29585388088711
  H   1.64636427368139      0.05904601552099      1.71114894213770
  H   1.93498572148810     -1.49874645096589      1.28905712904018
  C   1.83736398238048      0.17860262565263     -0.89152422235292
  N   2.69830013611563      0.69250065944544     -1.50362748832960
