16
Coordinates from ORCA-job run
  C   -0.32940001113719      0.44271087346066     -0.00462538344818
  C   0.85778360502955     -0.53769938862644     -0.10136948112469
  F   0.08427154964068      1.55007077424153      0.67227070421021
  H   0.52702239295606     -1.39625361439299     -0.69192189489663
  N   -0.68543423803696      0.87346582678967     -1.41695730601069
  O   -0.64195259053733      2.06252709198482     -1.69230222129628
  O   -0.99770694418099     -0.05200951244161     -2.16303093552929
  C   -1.56745055424002     -0.11888271424922      0.64476128308514
  H   -1.34726917555497     -0.37808440805984      1.68053304287358
  H   -2.34900953124115      0.64312000701794      0.64210930288432
  H   -1.92018000986599     -0.99779837000719      0.10607146082271
  N   1.35684094917022     -1.00563509370676      1.17376268378359
  H   0.70787152213372     -1.64402819877713      1.61300465135968
  H   1.54907257570792     -0.22977353902294      1.79493784943618
  C   1.94756413276478      0.12156035798981     -0.83818369542774
  N   2.80797632739169      0.66670990779971     -1.42106006072191
