16
Coordinates from ORCA-job run
  C   -0.53713716859170      0.36862391557634      0.33588442206919
  C   0.81335039817531     -0.34533974791676      0.49224948227026
  F   -0.72812079823066      1.12791816537208      1.44747793933207
  H   0.78447097986328     -0.73058187383135      1.51791757129431
  N   -0.44706854198189      1.32807082402335     -0.83860539513414
  O   -1.00569779516760      2.40837485522697     -0.73098985445636
  O   0.14317404237071      0.89708831472705     -1.82698816475899
  C   -1.73077417882986     -0.52455558272875      0.11553872688470
  H   -1.80219537101613     -1.24133296865123      0.93610312952462
  H   -1.64698847855678     -1.06486495207600     -0.82716267952490
  H   -2.63035247971362      0.09324763206434      0.10903377279585
  N   1.90004444630997      0.61145426290139      0.40230316086396
  H   2.70054469646784      0.29014361341948      0.92903986933138
  H   2.17793896877853      0.74103513960980     -0.56266819342860
  C   0.93202948227918     -1.50878957599333     -0.40528787533185
  N   1.07478179784342     -2.45049202172337     -1.09284591173147
