16
Coordinates from ORCA-job run
  C   -0.45219537276194      0.39956542012194      0.01486191621439
  C   0.82424489854361     -0.44495921808488     -0.05155828967631
  F   -0.16791555395924      1.54195556569548      0.70196817691359
  H   0.58661434607316     -1.35631725501760     -0.60432941116979
  N   -0.80885966049251      0.80264133966147     -1.40725665041487
  O   -0.93743243464248     -0.13850801135513     -2.18630485560049
  O   -0.95508303592368      1.98997642680322     -1.65350257143937
  C   -1.63643214591467     -0.29647673567580      0.62953437972039
  H   -2.47805607587346      0.39817239174328      0.65944890224633
  H   -1.37507206668663     -0.60326438810026      1.64062581254415
  H   -1.90865658947286     -1.17121492408739      0.03941191672963
  N   1.20797315665826     -0.79538223722308      1.30476426749584
  H   1.56632247874424      0.02376635292012      1.78156934490789
  H   1.93958638380317     -1.49484179993843      1.28927134328875
  C   1.86485072337352      0.28689040803072     -0.80332442148109
  N   2.73111094853148      0.85899666450636     -1.35317986027905
