16
Coordinates from ORCA-job run
  C   -0.36020608126833      0.41801854260372     -0.01940347215701
  C   0.89486590145616     -0.47739296501648     -0.07330309542905
  F   -0.04037532852048      1.56353039101293      0.64501266376401
  H   0.63725680401128     -1.36898333215455     -0.65114683553169
  N   -0.71519826248827      0.79769035768687     -1.44605851979590
  O   -0.74948371134149      1.98179991346144     -1.74319834550159
  O   -0.94535392842780     -0.16061615238462     -2.18041099703445
  C   -1.56885651687708     -0.21897636438724      0.61589820146327
  H   -1.84535518255397     -1.13196728584351      0.08944689762846
  H   -1.35306964159561     -0.44039819402541      1.66131256337634
  H   -2.40317931523850      0.48393444912822      0.58059289630493
  N   1.40012579672095     -0.88312160234301      1.22051659285557
  H   0.78835938350064     -1.55550901080573      1.66223675579868
  H   1.52705532148717     -0.08308526257171      1.82749367765788
  C   1.95035253433445      0.24138803743733     -0.80422695938838
  N   2.78206222680089      0.83268847820174     -1.38376202401107
