16
Coordinates from ORCA-job run
  C   -0.51614934486578      0.32486600410017      0.29137954435214
  C   0.83267211821783     -0.39904675286347      0.37525030137349
  F   -0.60335907550340      1.08908821895174      1.42345930444902
  H   0.79675012835892     -0.93440679435159      1.33847490008092
  N   -0.45669714701966      1.28353612560470     -0.88645858169107
  O   -0.44775297615947      2.48180030232344     -0.65294007610546
  O   -0.41805809315250      0.73892297211650     -1.98347616006837
  C   -1.73005268527218     -0.55395040843556      0.16764363638725
  H   -2.62462232430580      0.07077328517021      0.19842752162233
  H   -1.76034112878630     -1.24903299842406      1.00899176510045
  H   -1.70799296021723     -1.11096642718968     -0.76724337184411
  N   1.89419668525207      0.59028152134862      0.27539330888835
  H   2.80044658356263      0.13970929151605      0.26938580884749
  H   1.84823108704306      1.21399711354846      1.07258050030367
  C   0.97994210434342     -1.41255297646889     -0.67202142111474
  N   1.11478702850439     -2.27301847694665     -1.45884698058137
