16
Coordinates from ORCA-job run
  C   -0.56280916858422      0.29392975740168      0.35227319493317
  C   0.91108617461781     -0.14878954502299      0.45418160233882
  F   -1.08390901671651      0.28846002527957      1.61013509953265
  H   1.43786655798312      0.63484694669549      1.02253514439212
  N   -0.59744681511650      1.75005944851968     -0.10280557235547
  O   -1.38443172641186      2.49824993587080      0.45557176322077
  O   0.15043357697949      2.04197562809788     -1.03461325825674
  C   -1.41716791967098     -0.51816818952632     -0.58015280767788
  H   -1.03517585929420     -0.45884138475919     -1.59696558464924
  H   -1.40004215905932     -1.56002764201909     -0.25631423469826
  H   -2.44162672158935     -0.14408106776423     -0.53201428972600
  N   1.47857540126660     -0.44515660064293     -0.85332860442580
  H   2.36544022016261     -0.92061050418151     -0.74217816689067
  H   1.62863713239037      0.42214012597092     -1.35227095303956
  C   0.94491962214165     -1.37201358357789      1.26594712840731
  N   1.00465070090129     -2.36197335034189      1.89299953889478
