16
Coordinates from ORCA-job run
  C   -0.47363446906166      0.32524286117313      0.21369291500679
  C   0.85709899052793     -0.43528341745113      0.43154660895921
  F   -0.54421867306023      1.30403272101407      1.17713223325618
  H   0.66142537221314     -1.08626500872734      1.29235713453670
  N   -0.44102914038949      1.09116741724413     -1.10832090578680
  O   0.64019828103658      1.57363837088082     -1.43946744518105
  O   -1.49695510566689      1.21911752431046     -1.71806732379621
  C   -1.69164785243622     -0.55004502107115      0.27893561529911
  H   -2.59046075214346      0.05323083405423      0.16859901467780
  H   -1.67197959411653     -1.29988180999560     -0.51275887886218
  H   -1.70909398859205     -1.04825569298673      1.24985419581971
  N   2.04238445546753      0.33125152072037      0.74117764913024
  H   2.21823916088552      1.00142198534143      0.00441956584548
  H   1.89701083729859      0.83587192920212      1.60653553131435
  C   1.08232916665345     -1.31047731604658     -0.72577045848649
  N   1.22133331138378     -2.00476689766224     -1.66186545173282
