16
Coordinates from ORCA-job run
  C   -0.50772058734487      0.33837686803317      0.29096891690114
  C   0.83428573192205     -0.39786932403717      0.36886343887309
  F   -0.56358336498568      1.13640325393047      1.40153457118835
  H   0.81017207097294     -0.91051819080419      1.34473145871378
  N   -0.46337580041800      1.26128445732467     -0.91576574232214
  O   -0.44884258853588      0.68368667164537     -1.99640513583541
  O   -0.44889813901461      2.46595908420465     -0.71852622933934
  C   -1.73321535126080     -0.53003953169895      0.21813384645122
  H   -2.62038273370510      0.10522062573532      0.24665950727603
  H   -1.75417889662590     -1.19848983791563      1.08101978610363
  H   -1.73525776607471     -1.11586655956014     -0.69928464039677
  N   1.90360518615968      0.57801305040640      0.22698890608230
  H   1.87686754153182      1.22066691563195      1.00991846132245
  H   2.80507897657431      0.11795122483481      0.21790787931492
  C   0.95504263092352     -1.43701092083940     -0.65653716805716
  N   1.09140308988123     -2.31776778689132     -1.42020785627609
