16
Coordinates from ORCA-job run
  C   -0.45687241045975      0.27041441974449      0.48212089781601
  C   1.01637259191870     -0.17817638304882      0.34774690449827
  F   -0.73491937639471      0.39194818719706      1.81484068267652
  H   1.57635179653845      0.47634291293732      1.02419405235020
  N   -0.47196138590979      1.68403230009422     -0.08425379152130
  O   0.13612996968347      2.52498840348610      0.56994119720972
  O   -1.02264702684338      1.86160617398436     -1.16715918933775
  C   -1.48911685020624     -0.59485042709769     -0.17933001959394
  H   -2.47266564701754     -0.13573167314856     -0.07941304833190
  H   -1.49502753113448     -1.56491364740889      0.31927845865817
  H   -1.28086085896397     -0.72835708588132     -1.23944735341147
  N   1.60433975630280     -0.08191752178351     -0.96828254788068
  H   1.07861158055456     -0.58961681557403     -1.66671428782848
  H   1.72324681932722      0.87984359236572     -1.25592444581064
  C   1.12129920841478     -1.55306336007242      0.85060652269491
  N   1.16771936418989     -2.66254907579402      1.23079596781238
