16
Coordinates from ORCA-job run
  C   -0.56933054544520      0.33109937254967      0.35756533831222
  C   0.90723321685754     -0.05771089062534      0.46575301321409
  F   -1.05999102503949      0.49240637654164      1.62635195364513
  H   1.37427383000310      0.72609941032554      1.06764066380480
  N   -0.57384603847530      1.72784680207349     -0.26121532211140
  O   -1.23047212779363      1.90878060329443     -1.27907663472578
  O   0.08043133028264      2.57087753674494      0.34286573333347
  C   -1.43747727906983     -0.61291768383615     -0.41837433756238
  H   -1.42214949646454     -1.58685652138348      0.07404699367487
  H   -2.46002918855669     -0.23798957251585     -0.43558571414572
  H   -1.08875849202644     -0.70383383139688     -1.44571745902492
  N   1.49646312683684     -0.04824107945881     -0.86157152053518
  H   2.48585138337150      0.15377206528393     -0.81074022834092
  H   1.38062115712003     -0.94260618498167     -1.32128302538654
  C   1.02166798484081     -1.33504102325053      1.18804257783225
  N   1.09551216355865     -2.38468537936492      1.71029796801601
