16
Coordinates from ORCA-job run
  C   -0.48964484556546      0.29366999075343      0.43555964721407
  C   0.97505496770283     -0.20543307409201      0.44051298982059
  F   -0.88532022380891      0.42335268325080      1.73595398150253
  H   1.49469368699193      0.44233675676595      1.15542404721479
  N   -0.40493373233794      1.70466149295608     -0.12916214949480
  O   -0.73844325206180      1.86511760431845     -1.30067051414484
  O   0.06603844313129      2.55566449333680      0.61740975650143
  C   -1.48402000018985     -0.53676786460514     -0.32255844893877
  H   -1.56998809259422     -1.50631115234695      0.16986205786821
  H   -2.45652332763289     -0.04387969797542     -0.31067066502263
  H   -1.18321708646340     -0.67530718793718     -1.35918460322275
  N   1.68439172829778     -0.16327461575635     -0.81671562769807
  H   1.83581652565300      0.78488265272889     -1.13238475267932
  H   1.21664856847504     -0.69287068884071     -1.53941987793917
  C   0.98306872504064     -1.57197812681827      0.97687564866041
  N   0.95637791536197     -2.67386326573836      1.38016851035831
