16
Coordinates from ORCA-job run
  C   -0.48249310572229      0.31109166658989      0.32751820730266
  C   0.84982633093512     -0.45884111509444      0.45237433302256
  F   -0.57294921061678      1.08855354151344      1.44772399661394
  H   0.79674310041698     -0.91693916570952      1.44809404339997
  N   -0.35257298247730      1.25986979970659     -0.84937821809480
  O   -0.37472191631977      2.46323781132522     -0.63290880405743
  O   -0.20241047900438      0.70825058010940     -1.93617353436749
  C   -1.72590793834128     -0.51975129234919      0.16921710530371
  H   -2.59943340818122      0.13481363230909      0.18634072890170
  H   -1.70109251145040     -1.07444242400618     -0.76729849972474
  H   -1.79774874623682     -1.21999038356148      1.00391631647176
  N   2.04184296312371      0.36146179274795      0.40561153115226
  H   1.96695111027149      1.12648736319799      1.06478251412284
  H   2.19772838037959      0.73171651576072     -0.52401929500937
  C   0.94142483622512     -1.55006846562750     -0.52156212160016
  N   1.01481357699823     -2.44744985691196     -1.27423830343741
