14

C	0.0	0.0	0.0
C	-0.40703	0.066318	-1.503663
F	1.360354	0.0	0.0
H	0.566728	0.033312	-2.009801
H	-0.394202	0.831584	0.575916
N	-0.331197	-1.245622	0.775546
O	-0.208087	-2.31652	0.188791
O	-0.53289	-1.097196	1.975884
N	-1.062047	1.300997	-1.909482
H	-1.973292	1.287715	-1.447017
H	-0.532121	2.08774	-1.550631
C	-1.130783	-1.084506	-2.060647
N	-1.552399	-1.989926	-2.677144
Cl	-3.134828	0.0	0.0
