14

C	0.0	0.0	0.0
C	-0.510971	-0.047042	-1.427824
F	1.358794	0.0	0.0
H	-1.570295	-0.329423	-1.350886
H	-0.395306	0.831632	0.57873
N	-0.36947	-1.251267	0.770467
O	-0.848162	-2.209624	0.184569
O	-0.074615	-1.199892	1.963195
N	0.25899	-1.006451	-2.210081
H	-0.323028	-1.380386	-2.945461
H	1.067611	-0.563567	-2.625128
C	-0.442491	1.313091	-1.989926
N	-0.305531	2.363678	-2.498109
Cl	-3.383721	0.0	0.0
