14

C	0.0	0.0	0.0
C	-0.522922	-0.291609	-1.391682
F	1.359899	0.0	0.0
H	-1.590279	-0.523685	-1.257292
H	-0.389703	0.922693	0.424449
N	-0.368929	-1.094803	0.982126
O	-0.882136	-2.127984	0.582109
O	-0.042366	-0.845043	2.14135
N	0.210392	-1.400879	-1.989006
H	-0.388982	-1.88453	-2.642648
H	1.030589	-1.067233	-2.477211
C	-0.417851	0.941038	-2.191904
N	-0.253607	1.877456	-2.882077
Cl	-3.428827	0.0	0.0
