17

C	-0.492283	-0.040846	-1.453819
C	0.0	0.0	0.0
Br	0.128458	-1.638351	-2.341756
H	1.114173	0.0	0.0
C	-1.93491	0.074144	-1.636289
N	-3.089432	0.198571	-1.821617
N	0.128267	1.202673	-2.155027
O	-0.520378	2.234175	-2.002417
O	1.184835	1.075252	-2.741966
N	-0.470585	-1.235135	0.705425
O	-1.619721	-1.619122	0.472252
O	0.291655	-1.736362	1.522128
C	-0.518109	1.185723	0.79812
H	-1.609419	1.243124	0.782452
H	-0.169866	1.067152	1.826499
H	-0.097874	2.112532	0.411782
Cl	3.2652	0.0	0.0
