17

C	-0.540491	-0.038202	-1.439387
C	0.0	0.0	0.0
Br	0.48162	-1.166737	-2.627229
H	1.09355	0.0	0.0
C	-1.949409	-0.407388	-1.51614
N	-3.087985	-0.696183	-1.571217
N	-0.42312	1.415254	-1.964841
O	-1.458832	2.073011	-1.945829
O	0.687878	1.802991	-2.279382
N	-0.383486	-1.268697	0.711955
O	-0.289868	-1.263099	1.935404
O	-0.71105	-2.244354	0.037824
C	-0.495566	1.198227	0.790935
H	-0.139039	1.090593	1.813124
H	-0.056175	2.109503	0.385307
H	-1.585793	1.280779	0.789051
Cl	3.202586	0.0	0.0
