17

C	-0.44033	-0.003516	-1.474365
C	0.0	0.0	0.0
Br	0.420005	1.444772	-2.417764
H	1.091705	0.0	0.0
C	-0.187358	-1.225872	-2.227873
N	-0.026543	-2.144571	-2.944459
N	-1.977939	0.196393	-1.491992
O	-2.44837	1.28181	-1.79527
O	-2.595633	-0.792815	-1.110809
N	-0.412425	-1.296792	0.643417
O	-1.212647	-1.255196	1.579474
O	0.103448	-2.317108	0.196424
C	-0.538949	1.178662	0.778905
H	-0.093478	1.162053	1.773497
H	-1.624312	1.147406	0.88679
H	-0.239983	2.105706	0.28976
Cl	3.200233	0.0	0.0
