17

C	-0.411805	-0.071089	-1.472138
C	0.0	0.0	0.0
Br	-0.26068	1.682228	-2.318045
H	1.113942	0.0	0.0
C	0.388649	-0.98883	-2.27377
N	0.989801	-1.694593	-2.997707
N	-1.896219	-0.467284	-1.651448
O	-2.19144	-1.116079	-2.641982
O	-2.666247	-0.05713	-0.793492
N	-0.394699	-1.300071	0.631791
O	-0.634222	-2.248488	-0.120768
O	-0.409947	-1.358466	1.855253
C	-0.456385	1.165316	0.853324
H	-1.539579	1.210132	0.958614
H	-0.082324	2.093889	0.426827
H	0.005621	1.046312	1.832228
Cl	3.161561	0.0	0.0
