17

C	-0.483224	0.020488	-1.474635
C	0.0	0.0	0.0
Br	-2.447226	0.194591	-1.587672
H	1.116233	0.0	0.0
C	0.223014	1.179661	-2.216687
N	1.437091	1.175963	-2.329581
N	-0.165853	-1.239708	-2.239869
O	-0.846375	-2.275136	-1.803371
O	-0.226451	-1.067405	-3.539544
N	-0.381348	-1.20584	0.764096
O	0.387956	-2.234734	0.468993
O	-0.507855	-0.985658	2.057864
C	-0.43019	1.295881	0.729085
H	-0.160887	2.19598	0.149745
H	0.098131	1.376649	1.695429
H	-1.513944	1.308665	0.926082
Cl	2.589404	0.0	0.0
