16

C	-0.388864	0.047449	-1.481918
C	0.0	0.0	0.0
F	-0.13392	-1.20634	-2.037294
H	1.097381	0.0	0.0
N	-1.817108	0.233539	-1.648334
H	-2.078864	-0.108598	-2.565553
H	-2.011161	1.226565	-1.60276
N	0.400229	1.0587	-2.100345
H	0.295982	1.007458	-3.107203
H	1.381408	0.927208	-1.85553
N	-0.511214	-1.188028	0.6525
H	-0.0125	-1.32089	1.522644
H	-1.498795	-1.076131	0.843119
C	-0.46594	1.252049	0.627095
N	-0.91081	2.193478	1.172909
Cl	3.365565	0.0	0.0
