16

C	-0.320981	0.091757	-1.49535
C	0.0	0.0	0.0
F	-1.711962	0.096674	-1.637655
H	1.090009	0.0	0.0
N	0.191793	1.320711	-2.005929
H	1.144876	1.446	-1.68117
H	0.197091	1.266071	-3.017637
N	0.143108	-1.057668	-2.223672
H	-0.151715	-1.873763	-1.698225
H	1.157263	-1.039049	-2.176935
N	-0.465624	-1.274392	0.54141
H	0.140754	-1.540266	1.303787
H	-1.408941	-1.184674	0.891757
C	-0.504632	1.158355	0.743804
N	-0.951444	2.020583	1.405395
Cl	3.298055	0.0	0.0
