16

C	-0.329258	-0.120868	-1.498554
C	0.0	0.0	0.0
F	-1.677914	-0.580159	-1.62762
H	1.094735	0.0	0.0
N	-0.203033	1.132829	-2.160803
H	-0.859774	1.808425	-1.787069
H	-0.372387	1.018878	-3.153021
N	0.495119	-1.15888	-2.0301
H	1.463813	-0.958134	-1.780232
H	0.415534	-1.194769	-3.039894
N	-0.447501	-1.138641	0.791737
H	0.265898	-1.853188	0.71481
H	-1.295834	-1.503763	0.375134
C	-0.543784	1.244436	0.54893
N	-1.005873	2.248706	0.945501
Cl	3.33559	0.0	0.0
