16

C	-0.333405	-0.027984	-1.501716
C	0.0	0.0	0.0
F	-0.018969	1.267625	-2.006586
H	1.09563	0.0	0.0
N	0.478374	-1.011459	-2.125009
H	0.474268	-0.860191	-3.127173
H	1.436527	-0.892865	-1.796616
N	-1.72499	-0.279379	-1.732875
H	-1.87519	-0.53723	-2.701066
H	-2.240992	0.571937	-1.54132
N	-0.45397	-1.19184	0.705922
H	0.276687	-1.887336	0.624079
H	-1.276558	-1.540913	0.225574
C	-0.571404	1.203356	0.60892
N	-1.091637	2.15041	1.068834
Cl	3.342658	0.0	0.0
