20

C	-0.342636	0.020943	-1.495785
C	0.0	0.0	0.0
Cl	-2.149123	-0.028754	-1.742232
H	1.093014	0.0	0.0
C	0.187271	1.264842	-2.192373
H	1.255498	1.352819	-1.974561
H	-0.313761	2.168974	-1.850719
H	0.033667	1.165595	-3.269803
C	0.256913	-1.22204	-2.14102
H	0.104404	-1.183	-3.221946
H	-0.202676	-2.136092	-1.765113
H	1.329806	-1.236792	-1.923199
C	-0.4941	-1.203431	0.776788
H	-1.568056	-1.352604	0.670542
H	0.044606	-2.089354	0.440651
H	-0.263377	-1.065772	1.833957
N	-0.471784	1.253582	0.662623
O	0.182707	2.279528	0.482698
O	-1.500744	1.196766	1.34178
Cl	3.358217	0.0	0.0
