20

C	-0.486966	0.104727	-1.469964
C	0.0	0.0	0.0
Cl	-0.362203	-1.555396	-2.191588
H	1.090712	0.0	0.0
C	-1.947338	0.519006	-1.584172
H	-2.079425	1.543117	-1.224057
H	-2.256893	0.480963	-2.630699
H	-2.597792	-0.140122	-1.005565
C	0.429421	1.001658	-2.289381
H	1.469518	0.700727	-2.144769
H	0.328197	2.035282	-1.95511
H	0.160466	0.938639	-3.347053
C	-0.494244	-1.194497	0.792664
H	-1.562814	-1.374967	0.674716
H	0.062014	-2.072242	0.471145
H	-0.285232	-1.032651	1.849963
N	-0.44509	1.265697	0.674319
O	-1.41372	1.210394	1.438095
O	0.146624	2.305366	0.390912
Cl	3.389767	0.0	0.0
