20

C	-0.483545	-0.00427	-1.459065
C	0.0	0.0	0.0
Cl	0.199545	1.458939	-2.270997
H	1.091506	0.0	0.0
C	0.12099	-1.219814	-2.152454
H	1.194624	-1.266626	-1.953821
H	-0.35895	-2.134614	-1.793162
H	-0.044753	-1.14868	-3.229721
C	-1.992288	0.057575	-1.649173
H	-2.409037	0.973386	-1.232037
H	-2.218179	0.024936	-2.717879
H	-2.475872	-0.79434	-1.164293
C	-0.483533	-1.186108	0.821589
H	-0.048993	-2.106602	0.431154
H	-0.117952	-1.068515	1.844136
H	-1.570758	-1.263792	0.850327
N	-0.460065	1.248277	0.691114
O	-1.643579	1.287526	1.05364
O	0.347211	2.155191	0.861469
Cl	3.403403	0.0	0.0
