20

C	-0.470997	0.059634	-1.472215
C	0.0	0.0	0.0
Cl	-0.038701	-1.538305	-2.207867
H	1.09074	0.0	0.0
C	-1.974928	0.22306	-1.633301
H	-2.229475	0.200843	-2.69546
H	-2.520008	-0.579274	-1.133965
H	-2.303704	1.177139	-1.215016
C	0.305238	1.11838	-2.242865
H	0.090629	1.02856	-3.310689
H	0.014629	2.116159	-1.908579
H	1.37521	0.992923	-2.065353
C	-0.503329	-1.165538	0.829565
H	-0.031953	-2.079196	0.471018
H	-0.195164	-1.016305	1.866051
H	-1.588251	-1.27137	0.805346
N	-0.444084	1.28215	0.644187
O	-1.517244	1.277181	1.25893
O	0.263191	2.277538	0.501925
Cl	3.398796	0.0	0.0
