14

C	0.0	0.0	0.0
C	-0.586654	-0.055802	-1.376062
F	1.385058	0.0	0.0
H	-1.711901	-0.101515	-1.064462
H	-0.357128	0.913088	0.480776
H	-0.346766	-0.854951	0.577249
N	-0.231369	-1.317004	-2.034204
O	0.004337	-1.315561	-3.253868
O	-0.242828	-2.349809	-1.352269
C	-0.258738	1.140744	-2.237788
H	-0.655003	2.032775	-1.744798
H	0.821961	1.2563	-2.365619
H	-0.713438	1.058069	-3.223911
H	-2.883839	0.0	0.0
