14

C	0.0	0.0	0.0
C	-0.567298	-0.091955	-1.383696
F	1.385041	0.0	0.0
H	-1.679555	-0.190442	-1.136371
H	-0.363856	0.918974	0.462396
H	-0.346573	-0.846178	0.591335
N	-0.093331	-1.3478	-2.011984
O	-0.226211	-2.39038	-1.357215
O	0.372647	-1.315885	-3.162403
C	-0.274485	1.110834	-2.253897
H	0.802499	1.285663	-2.348381
H	-0.693546	0.985722	-3.252044
H	-0.743431	1.984942	-1.78973
H	-2.984396	0.0	0.0
