16
Coordinates from ORCA-job run
  C   -0.73489288191192      0.28033706044269     -0.43698405102577
  C   0.68063790830332      0.38476983547626      0.17166509884883
  H   -0.67533483542980      0.80849054483817     -1.40127013978666
  H   0.88344736368785      1.37612614875473      0.57453496197207
  N   -1.75545947650148      0.92629876335833      0.35075416157922
  H   -1.63527513432181      1.93062011018678      0.36962634125428
  H   -1.73878103629198      0.56900618734055      1.29870962003552
  N   -1.09091015315635     -1.11676066497253     -0.53051860373190
  H   -2.06577669537515     -1.17193503183739     -0.79656558997679
  H   -0.52393571894448     -1.58520911459086     -1.22555651834586
  N   1.77586662711630      0.09122886941049     -0.80400383676692
  O   2.87668191215178      0.55637323137756     -0.52336242504734
  O   1.50214646800143     -0.58726379898616     -1.79135975412692
  N   0.82027499246699     -0.58714913725861      1.30369842455833
  O   1.47089266905162     -1.60492910795986      1.11985518003623
  O   0.21141799115368     -0.27000389558016      2.31977713052368
