16
Coordinates from ORCA-job run
  C   -0.63746225018546      0.27833719627954     -0.46866682027723
  C   0.70373674101909      0.44101327385576      0.24931303569762
  H   -0.60325809898796      0.99588330757780     -1.29839180638139
  H   0.89456193335341      1.47558519471568      0.53219471971565
  N   -1.66831880961401      0.57888915475222      0.52531624828122
  H   -1.74055947879308      1.57844785562758      0.68424100411953
  H   -2.56385126875941      0.25387757197075      0.18356674727378
  N   -0.73220410802964     -1.02794375910242     -1.05389389749595
  H   -0.87850247531107     -1.73567087563209     -0.34710612072527
  H   -1.46031803645760     -1.06441169206983     -1.75310732962713
  N   1.81471162866318      0.03883339215405     -0.67413591701279
  O   2.50073965113780     -0.93081192476796     -0.38863570567546
  O   1.91708539331651      0.75713766609720     -1.66129092801283
  N   0.78958257903993     -0.35596746602712      1.50836740083991
  O   1.28280900817283      0.22654859195694      2.47184549300076
  O   0.38224759143548     -1.51074748738808      1.48938387627957
