16
Coordinates from ORCA-job run
  C   -0.73404667221690     -0.36844874151457     -0.17433627523824
  C   0.77644861140461     -0.38920470676331      0.06649902974705
  H   -1.08180365397262     -1.36549279929826      0.12310870845457
  H   1.25819571223554     -1.22470695182062     -0.43948541357210
  N   -0.91020127177923     -0.09957379838394     -1.60354954046729
  H   -0.84889101806443     -0.95395152619574     -2.14588086628665
  H   -1.82418732340085      0.30524832246961     -1.75779509450686
  N   -1.36271207410795      0.57170801075375      0.70822385926849
  H   -2.36089231388628      0.42274383375129      0.75202893009341
  H   -1.15276231101370      1.52387631636674      0.44205153572196
  N   1.04815885220378     -0.55995583082855      1.53099045896627
  O   1.58469584322594      0.35073565392079      2.14425687561510
  O   0.67621952381673     -1.63862627540126      1.97781135767596
  N   1.46398485965718      0.84262881162598     -0.42133417482646
  O   0.92501436082197      1.92435150854317     -0.22068727171520
  O   2.54277887507621      0.66066817277490     -0.98090211893002
