15
Coordinates from ORCA-job run
  C   -0.85488982423471      0.16900432071354     -0.17075961791593
  C   0.32871420617557     -0.28380648083993     -0.97899984323722
  F   -1.90520459941410      0.45480710979581     -0.95442650652552
  H   0.06731479715219     -1.26047992598263     -1.39304633834330
  H   0.38602649153179      0.42411785430224     -1.81170322372760
  N   -1.35698670862453     -0.83491341836266      0.85591859973631
  O   -0.75612194876746     -1.89830687121908      0.95368924366094
  O   -2.35462444361832     -0.48300949677434      1.47097193122002
  N   -0.50706943445763      1.41557908093943      0.62559622330111
  O   -0.66427283841666      2.47852126676717      0.04341790754277
  O   -0.02957957322872      1.22786781616655      1.73757028723641
  C   1.65447502234539     -0.33935057709658     -0.22684327136930
  H   1.58941185557300     -0.97591726432568      0.65359212334017
  H   2.42001542103967     -0.74811303810218     -0.88808021096786
  H   1.98179157694454      0.65399962401835      0.08310269604900
