15
Coordinates from ORCA-job run
  C   -0.66695056533677      0.09345283290717     -0.20433242069756
  C   0.58047847437045     -0.73610097727862     -0.22683912515461
  F   -0.89739867963423      0.71846262867500     -1.36535456666107
  H   0.46020993382085     -1.46454983434056     -1.03238865993945
  H   0.63563004810461     -1.28920060483490      0.71107532375628
  N   -1.93097057714959     -0.69107318675981      0.12205301192025
  O   -1.83100465436374     -1.90545474717572      0.24363073941619
  O   -2.94788102805482     -0.01296512245113      0.20004125782782
  N   -0.58004671490403      1.13909935413736      0.89473579078176
  O   -0.56331079796061      0.67401176667806      2.02812326029424
  O   -0.48902129449419      2.30841900701217      0.55781964796542
  C   1.81730433156813      0.13299115047716     -0.44207162709270
  H   2.69381148314144     -0.50412875314934     -0.56564080395440
  H   1.71772568278512      0.75225338198590     -1.33441004939707
  H   2.00142435810735      0.78678310411725      0.41255822093491
