15
Coordinates from ORCA-job run
  C   -0.63546665770129      0.17257897917597     -0.19309879775977
  C   0.55118375182667     -0.74610408193478     -0.17929050191136
  F   -0.76499217328674      0.83594817003796     -1.34072606740573
  H   0.35847887331309     -1.49988356700471     -0.95001761323293
  H   0.57652060538791     -1.24977287070086      0.78581233437872
  N   -1.93097243646871     -0.60156366997601      0.05451815900764
  O   -2.79261990743201     -0.53405518365232     -0.80821745461182
  O   -1.96087603691903     -1.23135733276573      1.10465827371977
  N   -0.60291632299907      1.20594709458961      0.93331073476037
  O   -0.01622244466097      0.88086787795569      1.95781543640762
  O   -1.19754905709067      2.25285436583172      0.71190368386700
  C   1.85283181251967     -0.00407084493824     -0.46618311769491
  H   2.08873609512600      0.70099608812654      0.33181891697404
  H   1.80098976538783      0.53692223701516     -1.41168594392180
  H   2.67387413299732     -0.71930726176001     -0.53161804257685
