15
Coordinates from ORCA-job run
  C   -0.57263824248996     -0.07858325639228      0.36957996927327
  C   0.51897921714058     -0.58998126199884     -0.52437871244264
  F   -0.43217785421479     -0.46822796437087      1.63543228731208
  H   0.42132133799468     -1.68075357736630     -0.52653906406321
  H   0.32331789099634     -0.23211646846422     -1.53404795556375
  N   -0.67994035714867      1.44659571099926      0.36804618491418
  O   -1.14628611696070      1.94754773136178      1.38301927864034
  O   -0.32140949055412      2.02001070789984     -0.65278633672130
  N   -1.94464052310047     -0.54486024131494     -0.11928361714766
  O   -2.22122544735955     -0.21482580646890     -1.26601313409429
  O   -2.61777668395229     -1.20347775688193      0.65810428660733
  C   1.90247710358285     -0.17484306285655     -0.03367661103625
  H   2.03335020867693      0.90636931575672     -0.09201161876455
  H   2.66604103906578     -0.63665250859099     -0.66109709333431
  H   2.07160791832340     -0.49620156131178      0.99465213642075
