15
Coordinates from ORCA-job run
  C   -0.65863459952336      0.19751981830117     -0.15025393772887
  C   0.48428441081178     -0.74492119104049     -0.37485075805456
  F   -0.85518657887978      1.03105249090822     -1.17919571778000
  H   0.25382216484280     -1.30834512537747     -1.28233242332172
  H   0.50835348173265     -1.45222296149940      0.45442830716220
  N   -1.99237198586043     -0.49127814272456      0.10830967551074
  O   -2.92208510647194      0.26874060018819      0.34917899387508
  O   -2.02703251408501     -1.71235863737987      0.02447930410409
  N   -0.41541232610024      1.02680999557591      1.09951473252851
  O   -0.20260484579428      2.21960972511196      0.95502671585767
  O   -0.41316034173769      0.37713426051785      2.13833648212101
  C   1.80443009406672      0.01054671630572     -0.50918434129363
  H   1.74621451280277      0.77818298471375     -1.28183646614196
  H   2.59773333957098     -0.68683800554686     -0.78083514362941
  H   2.09065029462494      0.48736747194585      0.43021457679083
