15
Coordinates from ORCA-job run
  C   -0.59228918504700     -0.12685982416751      0.35845170059519
  C   0.45864359608328     -0.60187607878229     -0.59800531269973
  F   -0.49785941210741     -0.70133731637678      1.56373000161133
  H   0.33944458376111     -1.68443816386688     -0.68621922862912
  H   0.24737941196954     -0.16682565386978     -1.57512089347065
  N   -0.49444765003826      1.37939121715713      0.53601248381147
  O   -0.12367953594924      1.79854282271812      1.62036345893624
  O   -0.76043149909688      2.02077260275240     -0.47350094742363
  N   -2.02001755469314     -0.35798423936651     -0.11942843782460
  O   -2.17612798850329     -0.97092483145383     -1.16795387364874
  O   -2.88649799577971      0.07736186955794      0.62863071789911
  C   1.85710518423489     -0.23351715879718     -0.10811796005553
  H   2.01510794565208      0.84659274035350     -0.12162464572556
  H   2.03089938545052     -0.59424294394025      0.90644994383807
  H   2.60377071406350     -0.68465504191809     -0.76266700721384
