15
Coordinates from ORCA-job run
  C   -0.74261075571533      0.29410493937064     -0.38785236671984
  C   0.57919308729908     -0.23479256125000     -0.87065906434901
  F   -1.61539951246500      0.43211392399970     -1.39682202565274
  H   1.03221678625473      0.55994542173373     -1.46805691146168
  H   0.32149087380155     -1.05292088121432     -1.55039858270823
  N   -1.35010096400045     -0.65060983702726      0.63566248086334
  O   -2.03035609421782     -1.55913869738985      0.18280660654059
  O   -1.03298334044712     -0.45476220572542      1.80230393067899
  N   -0.68106423877212      1.64751065417928      0.30421617805220
  O   -1.76689508489773      2.09971915954168      0.64173949521382
  O   0.41867750894288      2.17232396304605      0.43200111721846
  C   1.52942429845075     -0.71802197268843      0.21990760156132
  H   1.13528454586058     -1.59542500323030      0.73462394654355
  H   1.72422594638071      0.05953196986740      0.95618079872174
  H   2.47889694352529     -1.00157887321292     -0.23665320450255
