18

C	0.0	0.0	0.0
C	-0.504453	0.122408	-1.438753
F	1.401206	0.0	0.0
H	-1.592708	0.212326	-1.341609
C	-0.487238	1.1247	0.884803
H	-0.054944	1.021234	1.882732
H	-0.177921	2.067813	0.43465
H	-1.577266	1.071948	0.936848
C	-0.366775	-1.310443	0.578608
N	-0.54062	-2.371942	1.049143
C	-0.163675	-1.107015	-2.277649
H	0.917424	-1.283011	-2.282048
H	-0.663254	-2.001471	-1.899764
H	-0.493183	-0.945652	-3.307771
N	0.026042	1.372793	-1.987422
H	-0.553117	1.655113	-2.76832
H	0.965166	1.211635	-2.335741
Cl	-3.785637	0.0	0.0
