18

C	0.0	0.0	0.0
C	-0.418132	-0.024278	-1.499037
F	1.396029	0.0	0.0
H	0.299432	-0.727806	-1.94152
C	-0.537824	1.15187	0.817343
H	-0.210348	1.058663	1.854864
H	-0.160284	2.09387	0.415343
H	-1.632081	1.146034	0.785181
C	-0.374838	-1.295018	0.606434
N	-0.573605	-2.358244	1.064403
C	-0.202214	1.340376	-2.137964
H	-0.973375	2.042005	-1.813677
H	-0.290484	1.232322	-3.220345
H	0.782085	1.750212	-1.89745
N	-1.745914	-0.496359	-1.800615
H	-1.880252	-1.447965	-1.477509
H	-2.481223	0.031464	-1.328617
Cl	-4.357829	0.0	0.0
