18

C	0.0	0.0	0.0
C	-0.424116	0.063164	-1.494659
F	1.388168	0.0	0.0
H	0.472368	0.473757	-1.974829
C	-0.486826	1.162918	0.841752
H	-1.579035	1.160807	0.873306
H	-0.129017	2.101428	0.413493
H	-0.092731	1.064363	1.85517
C	-0.399104	-1.269947	0.639559
N	-0.645648	-2.290191	1.16492
C	-1.607986	0.971727	-1.804387
H	-2.524544	0.646378	-1.304012
H	-1.783915	0.943473	-2.885343
H	-1.414892	2.013991	-1.532032
N	-0.57945	-1.305274	-1.99907
H	-0.637188	-1.262829	-3.011109
H	-1.480205	-1.655742	-1.67861
Cl	-4.416602	0.0	0.0
