18

C	0.0	0.0	0.0
C	-0.480438	0.121252	-1.457302
F	1.398857	0.0	0.0
H	-1.574467	0.101879	-1.407762
C	-0.484215	1.117476	0.896935
H	-0.119663	0.960275	1.914543
H	-0.092279	2.068105	0.530599
H	-1.578318	1.122549	0.887931
C	-0.370704	-1.311986	0.569749
N	-0.553927	-2.376391	1.030575
C	0.023833	-1.039812	-2.304116
H	-0.369178	-1.993527	-1.947093
H	1.11693	-1.085292	-2.291875
H	-0.30392	-0.884903	-3.332562
N	-0.063034	1.382499	-2.070396
H	-0.631645	2.140129	-1.712654
H	0.903781	1.570516	-1.826014
Cl	-3.740995	0.0	0.0
