18

C	0.0	0.0	0.0
C	-0.499404	0.132973	-1.440025
F	1.401079	0.0	0.0
H	-1.585598	0.252884	-1.353685
C	-0.483198	1.121589	0.892008
H	-0.154332	2.065185	0.459355
H	-0.060576	0.998687	1.892146
H	-1.575377	1.084731	0.939383
C	-0.362458	-1.314787	0.571244
N	-0.552936	-2.384804	1.015674
C	-0.193478	-1.108461	-2.274752
H	-0.476947	-0.924681	-3.315495
H	-0.7567	-1.974007	-1.920619
H	0.875684	-1.344454	-2.242925
N	0.072186	1.36796	-1.983666
H	-0.478546	1.650746	-2.786235
H	1.014474	1.180745	-2.308003
Cl	-3.782991	0.0	0.0
