18

C	0.0	0.0	0.0
C	-0.418341	0.057944	-1.496406
F	1.388145	0.0	0.0
H	0.475242	0.480495	-1.971558
C	-0.492448	1.165574	0.833554
H	-0.134045	2.102403	0.401016
H	-1.584686	1.160826	0.858752
H	-0.103552	1.074403	1.849811
C	-0.39847	-1.268326	0.642704
N	-0.649063	-2.284572	1.174101
C	-1.611512	0.951148	-1.816052
H	-1.778439	0.916684	-2.89826
H	-1.428475	1.995146	-1.546369
H	-2.527273	0.619794	-1.317995
N	-0.550058	-1.313455	-2.00045
H	-0.597606	-1.273782	-3.013197
H	-1.449588	-1.674971	-1.688437
Cl	-4.415876	0.0	0.0
