18

C	0.0	0.0	0.0
C	-0.495345	-0.178959	-1.444985
F	1.40847	0.0	0.0
H	-1.583529	-0.27404	-1.361897
C	-0.488443	1.264416	0.66793
H	-1.582476	1.247015	0.66977
H	-0.12018	2.132232	0.117982
H	-0.112819	1.311847	1.692151
C	-0.357982	-1.180944	0.81436
N	-0.546998	-2.150504	1.448928
C	0.096357	-1.428103	-2.083849
H	-0.311194	-1.526616	-3.090977
H	-0.150453	-2.326558	-1.513259
H	1.185261	-1.348558	-2.155964
N	-0.20456	0.979227	-2.288515
H	0.740238	1.303261	-2.110152
H	-0.846442	1.72944	-2.064143
Cl	-3.748624	0.0	0.0
