18

C	0.0	0.0	0.0
C	-0.409697	-0.269922	-1.453491
F	1.4032	0.0	0.0
H	-0.184216	0.667318	-1.99167
C	-0.52736	1.299901	0.559655
H	-0.121758	1.467217	1.558837
H	-1.618182	1.26223	0.615158
H	-0.224196	2.122494	-0.092243
C	-0.368825	-1.140117	0.865668
N	-0.575171	-1.99872	1.639435
C	-1.880378	-0.60823	-1.601876
H	-2.133903	-0.672645	-2.665267
H	-2.084727	-1.577169	-1.144014
H	-2.573153	0.09727	-1.143048
N	0.386366	-1.398398	-1.930665
H	0.015482	-1.705423	-2.821392
H	1.351974	-1.123564	-2.060018
Cl	-4.858978	0.0	0.0
