18

C	0.0	0.0	0.0
C	-0.463316	-0.307148	-1.44992
F	1.391406	0.0	0.0
H	0.439723	-0.718108	-1.917269
C	-0.519982	1.280576	0.614867
H	-1.612029	1.238345	0.653023
H	-0.202971	2.13768	0.020159
H	-0.123595	1.381994	1.626831
C	-0.331101	-1.138445	0.897612
N	-0.427657	-1.983462	1.707007
C	-0.89688	0.94319	-2.219205
H	-1.825953	1.333223	-1.798594
H	-1.091297	0.659318	-3.25878
H	-0.129157	1.725193	-2.229224
N	-1.458506	-1.371655	-1.438372
H	-2.326443	-1.025311	-1.017581
H	-1.674404	-1.617942	-2.399148
Cl	-4.050296	0.0	0.0
