18

C	0.0	0.0	0.0
C	-0.37799	-0.502077	-1.409969
F	1.40075	0.0	0.0
H	0.094535	0.232973	-2.077857
C	-0.535785	1.369114	0.339687
H	-1.620734	1.316895	0.467823
H	-0.299602	2.063242	-0.470495
H	-0.078811	1.728457	1.264459
C	-0.385204	-0.99951	1.014523
N	-0.62951	-1.842131	1.794456
C	-1.87034	-0.544109	-1.658083
H	-2.400332	-1.160785	-0.929325
H	-2.345999	0.432041	-1.598565
H	-2.041727	-0.959132	-2.653993
N	0.210165	-1.802931	-1.712685
H	-0.323536	-2.523759	-1.237932
H	1.161031	-1.841349	-1.366323
Cl	-4.750093	0.0	0.0
