15

C	-0.289888	0.06915	-1.490357
C	0.0	0.0	0.0
Cl	-2.05044	0.837338	-1.733708
H	1.094256	0.0	0.0
H	-0.333506	0.920913	0.483312
C	0.69185	1.023476	-2.136789
H	1.677778	0.705635	-1.776347
H	0.614346	0.993633	-3.227516
H	0.504668	2.04324	-1.797006
N	-0.240278	-1.200814	-2.094085
H	-0.431542	-1.149557	-3.084253
H	-0.862654	-1.863468	-1.65004
C	-0.604404	-1.142472	0.647933
N	-1.083497	-2.081363	1.169259
F	2.616873	0.0	0.0
