15

C	-0.262188	0.096184	-1.495392
C	0.0	0.0	0.0
Cl	-2.049244	0.695916	-1.832671
H	1.094019	0.0	0.0
H	-0.394723	-0.928902	0.420736
C	0.676536	1.11051	-2.111586
H	0.611519	1.101906	-3.203567
H	0.437387	2.112235	-1.751569
H	1.673466	0.826415	-1.748152
N	-0.085672	-1.179926	-2.080179
H	-0.205485	-1.138178	-3.083723
H	-0.735031	-1.851982	-1.693648
C	-0.480346	1.137992	0.756831
N	-0.849067	2.069424	1.371511
F	2.616739	0.0	0.0
