15

C	-0.169788	-0.223984	-1.528155
C	0.0	0.0	0.0
Cl	-0.019503	-2.031144	-1.764165
H	1.092625	0.0	0.0
H	-0.43886	-0.786777	0.613946
C	-1.509073	0.178161	-2.114412
H	-2.322703	-0.351029	-1.613365
H	-1.661355	1.253066	-1.981577
H	-1.526308	-0.059468	-3.179418
N	0.924187	0.386289	-2.246584
H	1.764459	0.260494	-1.650827
H	0.74134	1.384939	-2.282751
C	-0.499608	1.304357	0.383709
N	-0.90663	2.371869	0.66624
F	2.632806	0.0	0.0
