14

C	0.0	0.0	0.0
C	-0.538935	-0.415935	-1.367575
Cl	1.836585	0.0	0.0
H	-0.060005	-1.364177	-1.633837
H	-1.612442	-0.574148	-1.198844
C	-0.354377	1.396098	0.290349
N	-0.581365	2.521594	0.533713
N	-0.519877	-0.83794	1.00181
H	-0.339691	-1.817354	0.846253
H	-0.304947	-0.544836	1.940596
N	-0.246969	0.600377	-2.369172
H	-0.097533	0.170394	-3.271514
H	-1.056215	1.205678	-2.445622
Br	-4.002772	0.0	0.0
