14

C	0.0	0.0	0.0
C	-0.362225	-0.255098	-1.49592
Cl	1.843774	0.0	0.0
H	0.365301	0.287705	-2.102582
H	-0.176553	-1.325671	-1.656497
C	-0.322324	1.387298	0.361265
N	-0.558586	2.506021	0.632777
N	-0.585798	-0.94898	0.868714
H	-1.035575	-0.520248	1.664288
H	-1.283959	-1.496777	0.380564
N	-1.68243	0.101422	-1.930679
H	-2.442884	-0.257486	-1.3525
H	-1.793196	1.109192	-1.920947
Br	-4.387211	0.0	0.0
