14

C	0.0	0.0	0.0
C	-0.365305	-0.202198	-1.505276
Cl	1.784335	0.0	0.0
H	0.227562	0.540119	-2.049415
H	-1.418531	0.003202	-1.696663
C	-0.426208	1.340657	0.438422
N	-0.567641	2.457936	0.764493
N	-0.383698	-1.127595	0.839439
H	-1.397223	-1.131086	0.994005
H	0.07585	-1.028468	1.735427
N	0.052413	-1.543725	-1.922434
H	-0.358339	-1.712058	-2.834094
H	-0.370538	-2.208803	-1.286092
Br	-3.551202	0.0	0.0
