14

C	0.0	0.0	0.0
C	-0.491447	-0.358627	-1.407691
Cl	1.789965	0.0	0.0
H	0.061175	-1.25209	-1.717971
H	-1.55093	-0.604676	-1.284443
C	-0.382698	1.38247	0.339878
N	-0.615266	2.501156	0.60923
N	-0.480632	-0.88624	1.032399
H	-0.313886	-1.84002	0.723173
H	-1.497452	-0.75031	1.060102
N	-0.247705	0.724446	-2.35636
H	-0.292772	0.352693	-3.297028
H	-1.014793	1.383403	-2.265974
Br	-3.73272	0.0	0.0
