14

C	0.0	0.0	0.0
C	-0.493582	-0.197849	-1.435301
Cl	1.784043	0.0	0.0
H	-1.574623	-0.013852	-1.406545
H	-0.01514	0.557753	-2.065391
C	-0.346313	1.372279	0.439933
N	-0.564336	2.473301	0.789519
N	-0.537761	-1.033152	0.839423
H	-1.561163	-0.937109	0.767277
H	-0.275849	-0.863575	1.804304
N	-0.127173	-1.534067	-1.90769
H	-0.67583	-1.720559	-2.740444
H	-0.441091	-2.191658	-1.200997
Br	-3.773703	0.0	0.0
