15

C	0.0	0.0	0.0
C	-0.219289	0.1018	-1.571334
F	1.376721	0.0	0.0
H	0.638308	-0.479181	-1.934922
C	-0.484592	1.137887	0.776551
N	-0.577872	2.10393	1.442874
C	-0.475385	-1.293235	0.49616
N	-0.534852	-2.419576	0.830611
C	0.057637	1.482741	-1.980888
N	0.282018	2.567774	-2.371308
C	-1.45193	-0.43643	-2.289315
H	-1.6232	-1.472245	-1.996097
H	-2.326985	0.133089	-2.005104
H	-1.250942	-0.390587	-3.367314
F	-2.287023	0.0	0.0
