15

C	0.0	0.0	0.0
C	-0.431942	-0.06008	-1.48908
F	1.378149	0.0	0.0
H	-1.492403	-0.348481	-1.410167
C	-0.466188	1.221622	0.668366
N	-0.558634	2.259372	1.214375
C	-0.441317	-1.200112	0.73006
N	-0.543915	-2.210694	1.321548
C	0.374196	-1.057479	-2.186462
N	0.991355	-1.844746	-2.803205
C	-0.31996	1.308849	-2.15664
H	0.669288	1.750942	-2.010901
H	-0.506537	1.21946	-3.22931
H	-1.079424	1.960281	-1.722863
F	-2.410856	0.0	0.0
