15

C	0.0	0.0	0.0
C	-0.20943	0.147785	-1.567761
F	1.376612	0.0	0.0
H	0.608919	-0.480549	-1.942046
C	-0.494831	1.111125	0.811047
N	-0.58016	2.057205	1.506272
C	-0.480639	-1.302096	0.469202
N	-0.565846	-2.419192	0.830245
C	0.163888	1.518693	-1.932932
N	0.45718	2.606336	-2.26528
C	-1.470961	-0.281806	-2.309094
H	-1.730152	-1.302532	-2.033879
H	-2.307938	0.348223	-2.037354
H	-1.248636	-0.237282	-3.383439
F	-2.286273	0.0	0.0
