15

C	0.0	0.0	0.0
C	-0.432107	-0.251453	-1.466426
F	1.376448	0.0	0.0
H	-1.49398	-0.529831	-1.35026
C	-0.469575	1.295397	0.510427
N	-0.574769	2.381809	0.947157
C	-0.448279	-1.09782	0.874258
N	-0.556524	-2.032922	1.578507
C	0.373539	-1.329637	-2.033119
N	0.981534	-2.183473	-2.565915
C	-0.332186	1.023433	-2.30316
H	0.636037	1.513375	-2.184171
H	-1.124894	1.696953	-1.981214
H	-0.477102	0.793838	-3.361549
F	-2.411499	0.0	0.0
