19

C	-0.232512	-0.011297	-1.509667
C	0.0	0.0	0.0
Cl	-2.011606	-0.360989	-1.905578
H	1.093182	0.0	0.0
C	0.106861	1.288936	-2.218979
H	1.133696	1.550338	-1.95146
H	-0.55496	2.108949	-1.949095
H	0.035418	1.119424	-3.297277
N	0.555538	-1.124375	-1.979191
H	0.647795	-1.064469	-2.987705
H	1.490209	-1.008369	-1.558825
C	-0.497846	-1.229961	0.721488
H	-0.091953	-1.239307	1.735206
H	-1.584974	-1.262632	0.774818
H	-0.131166	-2.104722	0.186463
N	-0.464695	1.231266	0.662637
O	0.08163	2.293972	0.349779
O	-1.333312	1.146766	1.540784
H	2.691658	0.0	0.0
