19

C	-0.523632	-0.02903	-1.448375
C	0.0	0.0	0.0
Cl	-0.114078	1.565656	-2.201712
H	1.089319	0.0	0.0
C	0.237143	-1.100457	-2.207795
H	-0.068688	-2.09329	-1.858708
H	0.004388	-1.018641	-3.271343
H	1.310342	-0.976798	-2.028827
N	-1.952543	-0.205767	-1.629251
H	-2.436268	0.380212	-0.954126
H	-2.173576	-1.168162	-1.404476
C	-0.410579	-1.227952	0.797969
H	-0.105789	-1.084979	1.838319
H	0.148853	-2.088016	0.425422
H	-1.483494	-1.428249	0.775109
N	-0.524995	1.201753	0.703559
O	-1.735223	1.202742	0.988876
O	0.240096	2.12322	0.967333
H	2.857188	0.0	0.0
