19

C	-0.457737	-0.063283	-1.454933
C	0.0	0.0	0.0
Cl	0.012413	1.57419	-2.221359
H	1.090207	0.0	0.0
C	0.393223	-1.086042	-2.187331
H	1.446835	-0.910987	-1.951744
H	0.10649	-2.089936	-1.866801
H	0.227994	-1.003358	-3.265077
N	-1.846312	-0.327837	-1.621789
H	-2.380383	0.397822	-1.159448
H	-2.075037	-0.340748	-2.608744
C	-0.439052	-1.204066	0.822125
H	-0.032189	-1.092895	1.830341
H	-0.002129	-2.107455	0.39554
H	-1.52501	-1.307771	0.858061
N	-0.510712	1.201531	0.711024
O	0.204637	1.696449	1.576331
O	-1.654535	1.602455	0.450526
H	2.838258	0.0	0.0
