19

C	-0.332801	0.017468	-1.507157
C	0.0	0.0	0.0
Cl	-0.306566	-1.823142	-2.082041
H	1.091292	0.0	0.0
C	-1.737538	0.463384	-1.865481
H	-1.851606	1.515522	-1.596012
H	-2.485215	-0.130806	-1.338854
H	-1.901026	0.355803	-2.94077
N	0.655693	0.758614	-2.147302
H	1.584732	0.582385	-1.744988
H	0.638796	0.669256	-3.153698
C	-0.548736	-1.134673	0.831251
H	-0.431434	-0.890196	1.887977
H	0.038336	-2.026816	0.619589
H	-1.603135	-1.340176	0.639817
N	-0.459334	1.30746	0.545815
O	0.195291	2.312475	0.27304
O	-1.488583	1.321732	1.237564
H	2.787403	0.0	0.0
