19

C	-0.252432	-0.020545	-1.512252
C	0.0	0.0	0.0
Cl	-2.029923	-0.311732	-1.862303
H	1.093285	0.0	0.0
C	0.162284	1.253068	-2.218242
H	1.203145	1.459115	-1.94535
H	-0.452524	2.105059	-1.933064
H	0.082097	1.074685	-3.292749
N	0.4922	-1.113221	-2.114638
H	1.458097	-0.983443	-1.785425
H	0.168493	-1.990948	-1.723352
C	-0.478087	-1.212171	0.767498
H	-0.010748	-2.10886	0.356485
H	-0.144614	-1.124826	1.803492
H	-1.56279	-1.318799	0.75482
N	-0.470761	1.233346	0.659373
O	-1.395042	1.159382	1.480138
O	0.112893	2.285349	0.389731
H	2.708517	0.0	0.0
