19

C	-0.454035	0.042924	-1.47941
C	0.0	0.0	0.0
Br	0.024464	-1.681092	-2.326933
H	1.096538	0.0	0.0
C	-1.95767	0.212312	-1.649129
H	-2.26851	1.164658	-1.206925
H	-2.512391	-0.596715	-1.168728
H	-2.216855	0.219225	-2.710403
C	0.330446	1.123908	-2.210963
H	1.401498	0.973197	-2.05885
H	0.100217	1.112525	-3.279282
H	0.056095	2.102932	-1.804593
C	-0.493232	-1.178313	0.842189
H	-0.088009	-2.107687	0.444219
H	-1.584983	-1.240267	0.872815
H	-0.123821	-1.059709	1.863069
C	-0.441318	1.250446	0.623972
N	-0.848125	2.232855	1.125946
Cl	3.376119	0.0	0.0
