19

C	-0.298139	-0.017275	-1.507243
C	0.0	0.0	0.0
Br	-2.269293	-0.038809	-1.828676
H	1.100069	0.0	0.0
C	0.263721	1.235381	-2.160803
H	-0.199541	2.138041	-1.759066
H	0.103249	1.208719	-3.241291
H	1.338553	1.263457	-1.949276
C	0.292564	-1.264291	-2.147004
H	1.358899	-1.293042	-1.896235
H	-0.187758	-2.17545	-1.788922
H	0.1755	-1.220888	-3.232255
C	-0.470647	-1.217905	0.794534
H	0.039994	-2.114469	0.441883
H	-1.551643	-1.355998	0.71548
H	-0.205858	-1.084667	1.845372
C	-0.481591	1.228708	0.623693
N	-0.865272	2.213203	1.138185
Cl	3.34679	0.0	0.0
