19

C	-0.451795	0.059236	-1.479765
C	0.0	0.0	0.0
Br	0.026246	-1.656482	-2.344189
H	1.096647	0.0	0.0
C	-1.95399	0.232542	-1.65164
H	-2.211305	0.252113	-2.713103
H	-2.264402	1.179364	-1.199266
H	-2.51048	-0.580559	-1.18218
C	0.336408	1.14575	-2.198111
H	0.064724	2.121294	-1.781016
H	0.107237	1.146709	-3.266801
H	1.406853	0.989948	-2.046336
C	-0.495274	-1.186298	0.829257
H	-1.586761	-1.247398	0.857545
H	-0.090762	-2.112016	0.422545
H	-0.127391	-1.078834	1.851535
C	-0.440863	1.244264	0.636342
N	-0.847873	2.222221	1.146701
Cl	3.379042	0.0	0.0
