16
Coordinates from ORCA-job run
  C   1.03601413170601     -0.52707257046487      0.01035239713119
  C   -0.38308264571775     -0.08658342991867     -0.32923554583228
  H   1.15888281668643     -0.71826590123214      1.07683608349566
  H   -0.41749714997069      0.08060503456004     -1.41124929532065
  H   1.33020726731785     -1.40175543551587     -0.57281622272090
  N   1.99825636755419      0.55479752977216     -0.33897206730164
  O   2.56281535540269      1.14212030474799      0.58235722715550
  O   2.12366301292050      0.81210637524094     -1.53462942772674
  C   -0.74185226172399      1.21246078507250      0.38566316323373
  H   -0.09741520651494      2.03910474973469      0.07855794073496
  H   -1.77289039112909      1.49660808444376      0.16199369547348
  H   -0.64937885753941      1.09770710671581      1.47004960032663
  C   -1.34827556600533     -1.21205148722960      0.03370089426576
  H   -1.09946407708232     -2.14036269584302     -0.48762903168355
  H   -1.32834865230715     -1.40953916054383      1.10981237853886
  H   -2.37163414359699     -0.94087928953990     -0.23579178977001
