21

C	-0.297873	5e-06	-1.486243
C	0.0	0.0	0.0
Br	-2.316829	-4e-05	-1.841809
H	1.101699	0.0	0.0
C	0.254853	1.241741	-2.162762
H	-0.238027	2.151635	-1.820397
H	0.137074	1.176364	-3.248105
H	1.32241	1.289246	-1.905937
C	0.254907	-1.241695	-2.162783
H	1.322464	-1.28916	-1.905953
H	0.137129	-1.176301	-3.248126
H	-0.237936	-2.151616	-1.82044
C	-0.453789	-1.25158	0.741208
H	0.006957	-2.154431	0.335692
H	-1.543225	-1.368362	0.720321
H	-0.132889	-1.178463	1.784545
C	-0.453782	1.251585	0.741205
H	0.007073	2.154414	0.335764
H	-0.132997	1.178414	1.784573
H	-1.543207	1.368443	0.72021
H	2.934418	0.0	0.0
