15

C	0.0	0.0	0.0
C	-0.533918	0.167048	-1.411002
Br	1.948446	0.0	0.0
H	-0.169668	1.086632	-1.854139
H	-1.628988	0.137699	-1.3416
N	-0.306124	1.364324	0.748178
O	-0.318132	2.397881	0.092755
O	-0.460424	1.272183	1.957218
N	-0.52267	-1.099973	0.659553
H	-1.54543	-1.084837	0.540498
H	-0.289297	-1.066744	1.644601
N	-0.085993	-0.944548	-2.29106
O	-0.601632	-2.046852	-2.134519
O	0.764558	-0.674513	-3.14301
Cl	-3.517406	0.0	0.0
