15

C	0.0	0.0	0.0
C	-0.509065	-0.139617	-1.420947
Br	2.000939	0.0	0.0
H	-0.174052	0.691577	-2.02954
H	-1.605084	-0.191186	-1.363752
N	-0.275106	1.496806	0.4372
O	-0.279197	2.366296	-0.422904
O	-0.420989	1.668201	1.639099
N	-0.514942	-0.922383	0.886368
H	-0.302961	-0.65541	1.840229
H	-1.535053	-0.949412	0.748294
N	-0.005673	-1.377989	-2.069397
O	0.741623	-1.231754	-3.039532
O	-0.38384	-2.457514	-1.625484
Cl	-3.49829	0.0	0.0
