14
Coordinates from ORCA-job run
  C   -0.17144910947304      0.21217408896694      0.45579093690064
  C   0.87995345950646     -0.83967400221871      0.10869044073637
  Br  0.27266315304914      1.04305894369233      2.14444659475526
  H   0.59369291094960     -1.33604332400947     -0.82080644782279
  H   0.88991713741275     -1.58382564067359      0.90929423644781
  N   -0.19243714803952      1.27696777679760     -0.64651167350346
  O   -0.54287046266972      2.41017570513757     -0.35846284221930
  O   0.05925623601301      0.85394263885030     -1.77226685897549
  C   -1.57164573957834     -0.37254044436069      0.50572815412717
  H   -1.62181464426164     -1.14985551492847      1.26932874442239
  H   -2.29510177744306      0.40654844003305      0.74888900475730
  H   -1.81740942108773     -0.80389111641982     -0.46862273993665
  C   2.21919934322293     -0.27904478161908     -0.04548246019238
  N   3.29904606239917      0.16200723075205     -0.17201508949685
