14
Coordinates from ORCA-job run
  C   -0.18655124865778      0.34847748497157      0.55004539767281
  C   1.17315480390728     -0.34636960506834      0.57448896320487
  Br  -0.40789661510471      1.29541158425459      2.23706119354763
  H   1.96538419202015      0.38349770151273      0.74095787900246
  H   1.17973434157367     -1.05885492444484      1.40336092945241
  N   -0.16312889592376      1.43339748249073     -0.52980405328277
  O   -1.24055881409586      1.74787277594441     -1.01931916594786
  O   0.92784151690394      1.92342429688701     -0.79964652019518
  C   -1.34915069790488     -0.58581688310243      0.31285240884625
  H   -1.34904557736675     -1.36065815098308      1.08127052390794
  H   -2.29156829968271     -0.04461630074239      0.34967942045703
  H   -1.24965294306755     -1.05353004414453     -0.66974686725403
  C   1.41406906030890     -1.05489633988690     -0.68163874106355
  N   1.57736917709005     -1.62833907768855     -1.69256136834801
