14
Coordinates from ORCA-job run
  C   -0.08528406598391      0.42668204387717      0.25365806219901
  C   1.10961755972205     -0.36586290419280     -0.27798298055739
  Br  0.49295341829779      1.58493072418208      1.70561932442885
  H   0.79913796025552     -0.89566225031286     -1.18550390765588
  H   1.91754692705494      0.31160209929239     -0.55469872351506
  N   -0.54393563961162      1.36653773370091     -0.86424454938091
  O   -1.71929024131624      1.70954780574503     -0.85301085914663
  O   0.30559433088592      1.72412178078100     -1.67409073462721
  C   -1.24066719194650     -0.43836740114449      0.69824719285714
  H   -0.91258337890464     -1.09641876949140      1.50337459939594
  H   -1.58492063029249     -1.04598100008058     -0.14390649171508
  H   -2.06752173797616      0.17495991118891      1.04821081090981
  C   1.57979710171772     -1.33435156873146      0.70659296117136
  N   1.94855558809763     -2.12173820481390      1.49473529563605
