14
Coordinates from ORCA-job run
  C   -0.10576127561442      0.38000818604892      0.35092885521156
  C   1.17138141183440     -0.27992220942366     -0.16928498116415
  Br  0.20119926404004      1.06802784107729      2.14433110982560
  H   1.03022449204564     -0.52957359271194     -1.22650024020252
  H   2.00847970167379      0.41575905101267     -0.10767595494832
  N   -0.38529986306213      1.60727469235768     -0.51959193275072
  O   0.55994344207674      2.07786950323981     -1.14504532945341
  O   -1.52999807359788      2.04060576715006     -0.50939099782443
  C   -1.31250509904594     -0.52901538409356      0.33309715455931
  H   -1.49997473282512     -0.86157532436397     -0.69223945332112
  H   -2.19190450548377     -0.00407856189257      0.69816565556150
  H   -1.12410353553939     -1.39969345628788      0.96144351021594
  C   1.47266927966255     -1.49826545744311      0.57524982625873
  N   1.70464949383550     -2.48742105466973      1.16251277803202
