14
Coordinates from ORCA-job run
  C   -0.16653244845063      0.35547676090549      0.55324768538034
  C   1.17128608022478     -0.38138641801074      0.54893132412755
  Br  -0.32061667949872      1.31034607862029      2.24312395103215
  H   1.98912264478125      0.32384967334829      0.69668973586513
  H   1.17370179535374     -1.09196465128150      1.37947545474561
  N   -0.13389478692828      1.43710590023221     -0.52932785230818
  O   0.96579042724404      1.88901030523758     -0.82901094995303
  O   -1.21224603903431      1.78728038856136     -0.99187164826298
  C   -1.36233295787799     -0.54292305365672      0.34348722550116
  H   -2.28663680998191      0.02699557807971      0.40182631120288
  H   -1.29941159478637     -1.01309048205016     -0.64102637693752
  H   -1.36802915166982     -1.31813399076017      1.11169304656331
  C   1.36303640553671     -1.10015262971060     -0.70964554985590
  N   1.48776311508752     -1.68141345951504     -1.72159235710052
