19
Coordinates from ORCA-job run
  C   -0.85653652260055      0.11093247990220     -0.31123319708053
  C   0.66656534354433      0.18419342217668     -0.45190379376064
  F   -1.32637988431461     -0.53452364803387     -1.49516668536555
  H   0.83943300628389      0.80067067858032     -1.34599398121205
  N   -1.40090361382672      1.42472837117244     -0.23139808986291
  H   -2.41240855268889      1.38384730998915     -0.19307173478732
  H   -1.13424033120427      1.96087318556870     -1.04921160721360
  C   -1.36101889861576     -0.73209567610117      0.84108108649653
  H   -0.99766985650600     -1.75593680021307      0.75768445954787
  H   -2.45313558195946     -0.76355989446145      0.80956110602750
  H   -1.05300874014370     -0.30969326644368      1.79718925722934
  C   1.29486806405831     -1.18339309414342     -0.70765598217386
  H   2.35194089357140     -1.06558601016035     -0.95979296597335
  H   1.24175596747124     -1.81627928837835      0.18228979594951
  H   0.80153839564789     -1.69937004974543     -1.53139437686870
  C   1.31920265252205      0.87319810092564      0.74431557988190
  H   1.24092973944156      0.25270749098552      1.64125949815806
  H   0.85374061334871      1.83640661878512      0.95281047165298
  H   2.38332730597057      1.03288006959501      0.55063115935483
