19
Coordinates from ORCA-job run
  C   -0.84717008556138      0.12151932885920     -0.19989255598635
  C   0.62858789044837      0.09814663968030      0.24172239972896
  F   -0.83501909654921      0.00045644170841     -1.59961105646107
  H   0.61925986634558      0.27137126805141      1.32664384684500
  N   -1.55561937870206      1.34173288535791      0.08880511390537
  H   -0.98298472594082      2.15605141110174     -0.08641946378513
  H   -1.86474306043882      1.35632568454040      1.05149333629267
  C   -1.65870724791586     -1.04148771242354      0.33820605457773
  H   -2.70559706181979     -0.88632728244516      0.07388548052179
  H   -1.56749499908598     -1.11683229974506      1.42531579221146
  H   -1.32353312826952     -1.97660571438566     -0.10728835199557
  C   1.43496826325437      1.21481778932852     -0.42268454320136
  H   2.47592429703115      1.17236891211873     -0.09374549585463
  H   1.41548715442561      1.10300204009315     -1.50824207086334
  H   1.06554555973285      2.21261796569315     -0.17409683534804
  C   1.29218360726978     -1.25150888269866     -0.03349208725759
  H   2.35600684515959     -1.20881343511229      0.21359723857859
  H   0.85191889088602     -2.05740601397470      0.55623397014605
  H   1.20098640973013     -1.50842902574782     -1.09143077205454
