19
Coordinates from ORCA-job run
  C   -0.88689353415564     -0.24282675598306     -0.22526003574790
  C   0.62328764008379     -0.45601232172637     -0.02844471643783
  F   -1.27906180407095     -1.24679161332157     -1.12777004653534
  H   0.72985571702111     -1.49269925096877      0.31465687102882
  N   -1.28028780030151      1.00341571272862     -0.82571015320209
  H   -1.29054429156508      1.75335983620785     -0.14901695602364
  H   -0.67586362233073      1.25404258901147     -1.59703412542242
  C   -1.69623696409921     -0.46296078832455      1.03727683247327
  H   -1.52726674058203      0.32561936451092      1.77280676147586
  H   -1.43645610779434     -1.42324333849888      1.48612570829048
  H   -2.75246583919805     -0.47079557002875      0.76660103665985
  C   1.20285240012376      0.47380067896830      1.03410651768637
  H   2.28354908517145      0.33078641382051      1.11249378126299
  H   1.03142156287063      1.52192193829273      0.77019289037860
  H   0.77575300466126      0.29418259369427      2.02262889308990
  C   1.38954551477156     -0.31634415541634     -1.34288307424692
  H   0.92179994399731     -0.89810448469178     -2.13807423698727
  H   1.45272038926740      0.72889183691497     -1.66149891101052
  H   2.41529144612927     -0.67224268518958     -1.21919703673221
