19
Coordinates from ORCA-job run
  C   -0.90206087593373      0.04319198967245     -0.39688003293948
  C   0.62642353917270      0.15868845659650     -0.49831254329725
  F   -1.29636636882792     -0.61832087543348     -1.57482626107730
  H   0.79563586123560      0.72644400890531     -1.42494561882804
  N   -1.58534879774883      1.30675710250294     -0.39919264625887
  H   -1.72647238726417      1.66182921515677      0.53539797299032
  H   -1.09287009448574      1.99729584641898     -0.95168529423404
  C   -1.40565747691030     -0.79917332211951      0.75777166702967
  H   -1.08644350453806     -0.39910310700950      1.72233008610297
  H   -1.04749516720724     -1.82376033444468      0.66449966521030
  H   -2.49619209253537     -0.81185197276730      0.72200218574875
  C   1.31357894468324     -1.19643847793442     -0.64973497816615
  H   1.27158627126653     -1.76806122661557      0.28155338986086
  H   0.84891086050695     -1.78557158264125     -1.44051999975722
  H   2.36871341360207     -1.05883808826232     -0.90072223865312
  C   1.22834883695082      0.94369181194101      0.66461616039847
  H   1.11152252606239      0.40430762432304      1.60863516505565
  H   0.77360789370645      1.93014669278545      0.77514464903498
  H   2.29957861826461      1.08976623892559      0.50486867177948
