15

C	0.0	0.0	0.0
C	-0.50294	-0.049219	-1.425412
F	1.402478	0.0	0.0
H	-0.154611	0.860838	-1.937432
H	-0.305708	-0.913442	0.520968
H	-1.599298	-0.016821	-1.3068
C	-0.51166	1.207461	0.744236
H	-1.608752	1.104066	0.704454
H	-0.172401	2.121962	0.243898
H	-0.139939	1.216682	1.775052
C	-0.025423	-1.288658	-2.172553
H	1.064909	-1.375815	-2.151543
H	-0.447795	-2.189721	-1.717578
H	-0.343777	-1.271527	-3.219985
F	-2.980509	0.0	0.0
