15

C	0.0	0.0	0.0
C	-0.519201	0.006121	-1.422245
F	1.402982	0.0	0.0
H	-1.609055	-0.096331	-1.278727
H	-0.312224	-0.939192	0.466009
H	-0.116708	-0.877895	-1.935226
C	-0.524345	1.14294	0.83337
H	-0.188617	1.041613	1.871236
H	-1.621002	1.039562	0.753472
H	-0.171006	2.105864	0.450867
C	-0.151272	1.266919	-2.200299
H	-0.721132	2.126091	-1.840148
H	0.915471	1.497258	-2.109736
H	-0.379468	1.148523	-3.264583
F	-2.98648	0.0	0.0
