16

C	0.0	0.0	0.0
C	-0.50531	-0.021693	-1.412958
Br	1.936616	0.0	0.0
H	-1.590205	-0.070574	-1.299614
H	-0.109171	-0.964773	-1.838106
N	-0.456001	1.216115	0.785959
O	-0.614678	2.237424	0.130922
O	-0.491082	1.124383	2.015672
C	-0.449265	-1.256858	0.763414
H	-0.070136	-2.111877	0.202106
H	0.004874	-1.264928	1.751394
H	-1.561869	-1.202063	0.772195
N	0.000533	1.063528	-2.258756
H	-0.388421	1.931305	-1.918403
H	-0.376567	0.93648	-3.203074
H	-3.041363	0.0	0.0
