16

C	0.0	0.0	0.0
C	-0.65061	0.183476	-1.357201
Br	1.950912	0.0	0.0
H	-1.653555	0.573012	-1.095061
H	-0.094894	0.908525	-1.953119
N	-0.293305	1.276585	0.808024
O	-0.428324	1.173668	2.021417
O	-0.310997	2.332448	0.182661
C	-0.538436	-1.190555	0.738367
H	-0.131482	-1.252099	1.746185
H	-0.286704	-2.085664	0.169584
H	-1.63386	-1.048894	0.757846
N	-0.776516	-1.102482	-2.046548
H	-0.849828	-0.91577	-3.038903
H	-1.687641	-1.461976	-1.760963
H	-3.30174	0.0	0.0
