16

C	0.0	0.0	0.0
C	-0.574573	0.031871	-1.411256
Br	1.950795	0.0	0.0
H	-1.645189	0.254345	-1.230903
H	-0.112212	0.837464	-1.981379
N	-0.320431	1.342827	0.674879
O	-0.427729	1.357122	1.895453
O	-0.382747	2.329395	-0.051344
C	-0.555911	-1.112472	0.83913
H	-0.187686	-1.062713	1.862097
H	-0.286443	-2.073561	0.399518
H	-1.654452	-0.966868	0.799524
N	-0.491474	-1.222965	-2.139133
H	-1.19215	-1.854087	-1.768846
H	0.422296	-1.648153	-2.028616
H	-3.259871	0.0	0.0
