16

C	0.0	0.0	0.0
C	-0.2373	-0.057757	-1.57822
Br	1.95075	0.0	0.0
H	0.464711	0.638538	-2.029304
H	0.109205	-1.058873	-1.860183
N	-0.411534	1.296386	0.62479
O	-0.545767	1.347781	1.839867
O	-0.471444	2.269407	-0.13236
C	-0.343109	-1.201987	0.85861
H	-0.004048	-2.096337	0.341492
H	-1.40323	-1.232305	0.995739
H	0.183017	-1.138797	1.807794
N	-1.480396	0.194856	-2.229958
H	-1.650233	1.178402	-2.10024
H	-2.1772	-0.208689	-1.587669
H	-2.630279	0.0	0.0
