15
Coordinates from ORCA-job run
  C   -0.72424908134488      0.44422881872039     -0.41465532213820
  C   0.71896198791622     -0.08364024387142     -0.35098913525887
  F   -0.76146501394081      1.40092854376884     -1.43919078357674
  H   0.89466505144772     -0.58565602512593     -1.31128612752315
  C   -1.08579619668977      1.14341404772519      0.83364864924455
  N   -1.37058236058920      1.68970102777327      1.83286947065948
  N   -1.62863046420955     -0.62029581125463     -0.63780181597484
  H   -2.58890692246256     -0.29998094947097     -0.62098665384742
  H   -1.43652581047474     -1.06823153322637     -1.52656241635902
  C   0.93307924859137     -1.06472163766375      0.80349773502496
  H   0.77804163819303     -0.56636987750398      1.76206979389431
  H   1.95371614781284     -1.44908016217847      0.77902887369310
  H   0.23264890174782     -1.89470649349300      0.72038161288214
  C   1.65456258683216      1.03937054849085     -0.26512077342210
  N   2.42848028717035      1.91603974730998     -0.16390310729818
