15
Coordinates from ORCA-job run
  C   -0.77894820686217      0.16620605677653     -0.45868659345240
  C   0.74785643329853      0.10816146515448     -0.25397402158089
  F   -1.08255278931741     -0.62667319491118     -1.54954161992083
  H   1.19785659122009      0.54167248710522     -1.15390109681454
  C   -1.18914750820237      1.54674740837592     -0.82736323442666
  N   -1.52806807967841      2.64490337870324     -1.07225505962703
  N   -1.46783778896641     -0.37165014569570      0.66913845487752
  H   -2.47025526498845     -0.29344130559561      0.54376291941954
  H   -1.20405173968564      0.10577263539651      1.52333798465101
  C   1.23986683137504     -1.32955558964209     -0.06663184094072
  H   2.32759574089254     -1.33675192425139      0.01752872110470
  H   0.94839376298529     -1.92784181302220     -0.92919465883189
  H   0.80792255690682     -1.77205955700958      0.82931279465848
  C   1.10061613945295      0.95025364153082      0.88931461220657
  N   1.35075332156960      1.59425645708503      1.83915263867714
