15
Coordinates from ORCA-job run
  C   -0.79854604313213      0.27483214078907     -0.16956024737821
  C   0.57744732249636     -0.41431353006980     -0.07932954617025
  F   -0.60831388268668      1.62200967305931      0.18326130967644
  H   0.40506795712433     -1.47905425749690     -0.26930765229344
  C   -1.70345828992578     -0.29628798585732      0.84852287610382
  N   -2.40716112079522     -0.76123366264483      1.66471131962021
  N   -1.37145401515102      0.11524616674103     -1.44743374720188
  H   -2.29344521850777      0.52944280878202     -1.49875591356443
  H   -0.77606039572712      0.50587493227106     -2.16853888609526
  C   1.24745270528762     -0.21701060599283      1.28184378560672
  H   2.20936211074390     -0.73092079894903      1.30054987628994
  H   1.41062916492335      0.84222440587520      1.47651355738961
  H   0.62008595895386     -0.63191387011049      2.07296928363840
  C   1.41726339320806      0.10558857120491     -1.16086483664904
  N   2.07213035318826      0.53751601239860     -2.03458117897265
