13

C	0.0	0.0	0.0
C	-0.38236	-0.026982	-1.467359
Br	2.057234	0.0	0.0
H	-1.482239	0.015792	-1.44669
H	-0.03967	-0.95238	-1.936472
H	0.034267	0.821621	-2.017378
N	-0.392532	1.217707	0.586478
H	-0.259397	1.189728	1.587301
H	0.061784	2.017468	0.173159
N	-0.567168	-1.037868	0.781763
H	-1.600075	-0.814717	0.694063
H	-0.410786	-1.925598	0.315397
H	-3.154256	0.0	0.0
