13

C	0.0	0.0	0.0
C	-0.398947	-0.027539	-1.468109
Br	1.99582	0.0	0.0
H	-0.03231	0.861922	-1.983916
H	-0.004512	-0.921699	-1.957705
H	-1.495928	-0.049258	-1.47028
N	-0.490187	1.206731	0.587893
H	-1.513258	1.13884	0.41983
H	-0.368213	1.112717	1.593106
N	-0.440421	-1.149753	0.755435
H	-1.471513	-1.055733	0.712137
H	-0.185673	-2.000071	0.260641
H	-3.067436	0.0	0.0
