15

C	0.0	0.0	0.0
C	-0.298689	-0.120341	-1.520254
F	1.357241	0.0	0.0
H	-0.217943	-1.175133	-1.773641
H	-0.392477	0.880291	0.486082
N	-0.398178	-1.188399	0.807615
O	-0.505576	-1.004783	2.015632
O	-0.424466	-2.284671	0.25514
N	0.617664	0.657387	-2.348752
H	1.565564	0.48538	-2.041201
H	0.400943	1.637539	-2.184924
N	-1.638968	0.307329	-2.043776
O	-2.30484	-0.549368	-2.614423
O	-1.84649	1.516858	-2.095297
F	-2.265863	0.0	0.0
