15

C	0.0	0.0	0.0
C	-0.338291	0.182104	-1.512625
F	1.349996	0.0	0.0
H	0.618517	0.468012	-1.958969
H	-0.403041	0.823419	0.575701
N	-0.438771	-1.240328	0.72822
O	-0.78302	-2.241984	0.121679
O	-0.303142	-1.156783	1.948295
N	-1.333909	1.134594	-1.758338
H	-1.543464	1.17061	-2.746883
H	-2.14048	0.798797	-1.151597
N	-0.530324	-1.18701	-2.230969
O	-1.613623	-1.436856	-2.742061
O	0.478017	-1.886354	-2.323977
F	-2.541227	0.0	0.0
