15

C	0.0	0.0	0.0
C	-0.320374	0.087941	-1.541192
F	1.353009	0.0	0.0
H	0.608039	0.505255	-1.937861
H	-0.398268	0.864151	0.518579
N	-0.438315	-1.178063	0.811909
O	-0.509429	-0.96853	2.019854
O	-0.555364	-2.268932	0.268594
N	-1.431368	0.820192	-2.017936
H	-1.191904	1.802247	-1.977953
H	-2.178922	0.593596	-1.299692
N	-0.310495	-1.305554	-2.15906
O	-1.36888	-1.807704	-2.500517
O	0.803259	-1.820282	-2.291196
F	-2.517099	0.0	0.0
