12

C	-0.417544	0.015118	-1.483502
C	0.0	0.0	0.0
Cl	-0.042969	1.592151	-2.247171
H	1.095397	0.0	0.0
H	0.163764	-0.73467	-2.023461
H	-0.381476	0.90315	0.482087
C	-1.842451	-0.262644	-1.654227
N	-2.992371	-0.492966	-1.732411
N	-0.44401	-1.183546	0.712192
H	-1.413715	-1.410537	0.533848
H	0.142439	-1.972511	0.477707
Cl	3.463093	0.0	0.0
