16
Coordinates from ORCA-job run
  C   0.86420154771684      0.58639352515762     -0.27758025048323
  C   -0.64241472137087      0.22801601393222     -0.33220951183860
  Cl  1.55641358642391      0.64032105741436     -1.89708002997693
  H   -1.04257001313908      0.89004612479246     -1.10674031613922
  N   1.55762911202590     -0.51988135529730      0.54571557587995
  O   2.19055549236412     -1.38073823943573     -0.03979220198562
  O   1.31775026538881     -0.46448368657297      1.74709682553050
  C   1.10355004582790      1.85480326585119      0.39841286879974
  N   1.33767171829383      2.89990168974326      0.88124725679815
  N   -1.26106043325692      0.61755533064075      0.91985612522194
  H   -1.10030969308479     -0.07187001076877      1.64347311594586
  H   -2.25787956785821      0.73401412654492      0.79445195459046
  C   -0.85363673038675     -1.22699699692071     -0.74797617578646
  H   -0.30768063830690     -1.49207950495659     -1.65478352341783
  H   -0.54466485122501     -1.90368533222128      0.05337750429169
  H   -1.91855511941278     -1.38931600790343     -0.92646921743040
