16
Coordinates from ORCA-job run
  C   0.83841481766836      0.61203775451126     -0.00019232100333
  C   -0.54847036489036      0.11640434423733     -0.45563058055950
  Cl  1.23063591517760      2.15472605892496     -0.77762506434972
  H   -0.48556636039906      0.05680325860453     -1.55090085109157
  N   1.86342801343507     -0.42819629414304     -0.46802711967223
  O   1.96661181492324     -0.55833937851743     -1.67916603724017
  O   2.42502855173163     -1.08744715704520      0.39780460444572
  C   0.91818402659226      0.75542917232704      1.44525244355736
  N   0.95574148640266      0.86957642740956      2.61405785610062
  N   -1.52161294843838      1.07270409124890      0.03521171256261
  H   -2.43530187481901      0.64547787758327      0.10507104046283
  H   -1.58841619273186      1.87798791371373     -0.57314961724457
  C   -0.83739675155774     -1.26153174737910      0.12181073504127
  H   -1.81306137533209     -1.59896230055026     -0.23690935836191
  H   -0.10217906384941     -2.00437458090732     -0.18970423496251
  H   -0.86503969391291     -1.22229544001824      1.21309679231510
