16
Coordinates from ORCA-job run
  C   0.85255951738049      0.59198832436183     -0.01229047366135
  C   -0.54845706503917      0.12446939215158     -0.45372581612766
  Cl  1.27684599705503      2.11495017648464     -0.81159961728555
  H   -0.49405767376135      0.05171153550896     -1.54865616186003
  N   1.84992471487037     -0.47846122511198     -0.47251812178054
  O   1.93976067652301     -0.62908500695522     -1.68232528796498
  O   2.40144997400926     -1.13867290211393      0.39893510548599
  C   0.94559538546781      0.75216161510474      1.43055911442746
  N   0.99866592011482      0.88294786811588      2.59707109161746
  N   -1.49527225897904      1.10945458121287      0.03173427365081
  H   -2.41680522966828      0.70366089847308      0.12045051805780
  H   -1.55187225386542      1.90632465799932     -0.58837418269878
  C   -0.86699661522736     -1.24006644951517      0.13980608428682
  H   -1.85036100923089     -1.55971819495361     -0.21416326977903
  H   -0.14896245680679     -2.00227880556101     -0.16460990811539
  H   -0.89201762284250     -1.18838646520199      1.23070665174698
