16
Coordinates from ORCA-job run
  C   0.85187977599364      0.01865213611411      0.46145793154979
  C   -0.44375937215173     -0.04379720811309     -0.37330515726142
  Cl  0.63863017230127      0.96477612045660      1.93095858876275
  H   -0.16829849739390     -0.63671520692792     -1.25022193102849
  N   1.91407037692430      0.68439649821242     -0.44673190555782
  O   2.16661352522217      0.02340156212524     -1.44537533927515
  O   2.37555088573204      1.76168741518128     -0.12836805145056
  C   1.34466253232073     -1.31231090847402      0.79217257808497
  N   1.69651366350187     -2.40370321895146      1.05088172422815
  N   -0.71783096778229      1.30353997135932     -0.83335975434538
  H   -1.26373044001552      1.28421268687503     -1.68403103861105
  H   -1.22682804386620      1.83153618062405     -0.13483222647783
  C   -1.57002365448689     -0.74196850842492      0.37985048843176
  H   -1.29277934168603     -1.74927693399203      0.69937894716482
  H   -1.86467200167989     -0.16472636957501      1.25887243437568
  H   -2.43799861293357     -0.82170421648960     -0.27834728859022
