16
Coordinates from ORCA-job run
  C   0.80171138608482      0.24771070296654      0.48732725622187
  C   -0.40128059551663     -0.18819883240086     -0.37389093619105
  Cl  0.33276857253971      1.38981376463045      1.74188560389892
  H   0.02935203303389     -0.88171286926847     -1.10256659683899
  N   1.80297506136605      0.91443457173821     -0.48852383951874
  O   2.05214022616592      2.09645160637878     -0.36734975956492
  O   2.23528164784583      0.13739600776151     -1.32941246314798
  C   1.47968742636951     -0.89613537332031      1.08347353500910
  N   1.98346654449218     -1.84523197666917      1.56002941945651
  N   -0.85023831865346      0.98379090185243     -1.10168221340808
  H   -1.30471276681692      0.71178850623257     -1.96287266896946
  H   -1.50592702934060      1.52453814281326     -0.55090288604354
  C   -1.45707065431675     -0.91244108601554      0.45271539681680
  H   -2.24135358685342     -1.27419597762718     -0.21589249430908
  H   -1.04396534416404     -1.77112279801394      0.98781713138326
  H   -1.91383460223608     -0.23788529105828      1.17984551520538
