16
Coordinates from ORCA-job run
  C   0.81990921058533      0.20455090367372      0.47507837593551
  C   -0.41657034653274     -0.16724950919005     -0.36812473470170
  Cl  0.43144175025886      1.37396066029011      1.73198310674771
  H   -0.03446935929072     -0.88451720806470     -1.10066474991547
  N   1.84309733651713      0.81342719973085     -0.51621270874343
  O   2.15738156342834      1.98051738333627     -0.40250486170954
  O   2.22002454032813      0.01254249410070     -1.36112892755675
  C   1.44517878364538     -0.97126761959568      1.06655111621807
  N   1.90927104132183     -1.94035168825010      1.54333427542913
  N   -0.81225976293919      1.02614706892142     -1.09156931461622
  H   -1.28718030040323      0.77915512033680     -1.94904699931784
  H   -1.43369787813783      1.60014106010532     -0.53506128937241
  C   -1.49812684210403     -0.83200037963818      0.47522143922627
  H   -1.90461792604453     -0.13360637096819      1.20951118386184
  H   -2.31188678578185     -1.14799141875790     -0.18128467628900
  H   -1.12549502485088     -1.71345769603039      1.00291876480382
