16

C	-0.53712	-0.03864	-1.60347
C	0.210942	-0.032034	-0.243107
Br	-2.456168	-0.114201	-1.391677
H	1.275536	0.016859	-0.526001
N	-0.128987	1.243441	-2.337996
O	-0.919626	2.163452	-2.439237
O	1.032741	1.227821	-2.733545
C	-0.129857	-1.167854	-2.428174
N	0.210365	-2.101239	-3.057193
N	-0.12131	-1.216692	0.519012
H	0.349681	-0.9784	1.426487
H	0.375624	-2.014836	0.129884
N	-0.086069	1.188983	0.45711
H	-1.0427	1.098012	0.793186
H	0.507585	1.05823	1.311377
F	1.280815	0.029215	2.358865
