14

C	-0.509127	-0.060887	-1.42573
C	0.0	0.0	0.0
Br	-0.183441	-1.845847	-2.205755
H	1.093543	0.0	0.0
H	-1.59811	0.026014	-1.442402
H	-0.322755	0.980672	0.377221
C	0.173392	0.978433	-2.295375
H	1.256426	0.845907	-2.245063
H	-0.158056	0.916622	-3.333955
H	-0.065777	1.975764	-1.912206
N	-0.615054	-1.022538	0.856178
H	-0.300038	-0.83914	1.804194
H	-0.19487	-1.911578	0.6017
Cl	3.603789	0.0	0.0
