14

C	-0.459073	0.102655	-1.456167
C	0.0	0.0	0.0
Br	-0.320601	-1.658466	-2.329285
H	1.094106	0.0	0.0
H	-1.530969	0.325085	-1.506838
H	-0.376967	-0.918014	0.456568
C	0.353464	1.113942	-2.243651
H	1.413003	0.854685	-2.183697
H	0.039026	1.162524	-3.288518
H	0.220856	2.104208	-1.797116
N	-0.424758	1.158232	0.792335
H	-1.335504	1.493272	0.501527
H	0.245867	1.90692	0.682259
Cl	3.573353	0.0	0.0
