14

C	-0.325046	0.014262	-1.489281
C	0.0	0.0	0.0
Br	-2.29364	0.047656	-1.791618
H	1.097191	0.0	0.0
H	0.012389	0.960417	-1.916291
H	-0.36204	0.921012	0.464997
C	0.281839	-1.152525	-2.237728
H	1.359729	-1.135736	-2.047236
H	0.099238	-1.081522	-3.311133
H	-0.124344	-2.100396	-1.881
N	-0.465332	-1.151436	0.758179
H	-1.412035	-1.395136	0.488062
H	0.139572	-1.942443	0.579328
Cl	3.522417	0.0	0.0
