14

C	-0.55463	0.0909	-1.402007
C	0.0	0.0	0.0
F	-0.271126	1.366759	-1.929
H	1.098835	0.0	0.0
H	-0.028012	-0.631936	-2.034758
H	-0.384364	0.851919	0.580555
C	-2.053889	-0.104072	-1.500052
H	-2.39397	-0.026853	-2.536871
H	-2.560544	0.669635	-0.913988
H	-2.318101	-1.084435	-1.102462
N	-0.395293	-1.308542	0.577244
H	0.457753	-1.70034	0.963043
H	-1.042303	-1.181592	1.345751
F	2.744073	0.0	0.0
