14

C	-0.527438	0.169499	-1.403415
C	0.0	0.0	0.0
F	-0.190973	1.461959	-1.866243
H	1.093134	0.0	0.0
H	-0.002257	-0.53224	-2.062603
H	-0.354005	-0.97736	0.361649
C	-2.030615	0.040103	-1.541003
H	-2.512364	0.717357	-0.835205
H	-2.350729	0.282182	-2.558764
H	-2.340455	-0.983319	-1.311022
N	-0.578538	1.056767	0.870433
H	-0.168591	1.918187	0.515584
H	-0.134934	0.927944	1.775382
F	2.782972	0.0	0.0
