13

C	-0.425239	-0.013627	-1.456772
C	0.0	0.0	0.0
F	-1.823142	-0.131521	-1.544627
H	1.09391	0.0	0.0
H	-0.168333	0.942699	-1.921504
H	-0.33348	-0.923652	0.48318
C	0.217967	-1.160105	-2.201203
H	-0.093766	-2.110173	-1.759927
H	-0.08288	-1.148188	-3.251603
H	1.305453	-1.078094	-2.125026
C	-0.541103	1.142143	0.726199
N	-0.99712	2.061249	1.296445
Br	3.555453	0.0	0.0
