13

C	-0.518749	-0.031875	-1.431464
C	0.0	0.0	0.0
F	-0.215661	1.178992	-2.050563
H	1.093097	0.0	0.0
H	0.033847	-0.808316	-1.969872
H	-0.301539	-0.92581	0.503718
C	-2.013921	-0.242514	-1.544526
H	-2.302248	-1.203813	-1.111464
H	-2.31611	-0.227024	-2.593996
H	-2.543214	0.555408	-1.018797
C	-0.552334	1.126604	0.743977
N	-1.053331	2.009999	1.332473
Br	3.562704	0.0	0.0
