15

C	-0.296151	0.430251	-1.44851
C	0.0	0.0	0.0
Br	-2.250934	0.740194	-1.656692
H	1.10889	0.0	0.0
N	0.402887	1.620768	-1.857573
H	0.164464	2.374198	-1.219105
H	1.401185	1.426297	-1.745187
C	0.03344	-0.672852	-2.356373
N	0.300177	-1.52784	-3.116073
N	-0.496016	-1.317969	0.31494
H	-1.401988	-1.282909	0.76224
H	0.166038	-1.789382	0.917597
C	-0.421073	1.058554	0.927642
N	-0.77049	1.87481	1.699034
Br	3.380712	0.0	0.0
