15

C	-0.573949	-0.032663	-1.431839
C	0.0	0.0	0.0
Br	0.375563	-1.542566	-2.395654
H	1.096508	0.0	0.0
N	-1.973014	-0.223938	-1.368727
H	-2.140111	-1.019021	-0.757837
H	-2.375621	-0.37677	-2.284281
C	-0.249532	1.167682	-2.199457
N	-0.043707	2.138247	-2.828781
N	-0.481021	-1.202348	0.705572
H	0.31105	-1.829887	0.776417
H	-0.754107	-0.958079	1.647935
C	-0.488001	1.206809	0.667462
N	-0.888284	2.144039	1.251721
Br	3.416393	0.0	0.0
