15

C	-0.569257	-0.017547	-1.437323
C	0.0	0.0	0.0
Br	0.423976	-1.477595	-2.430638
H	1.092826	0.0	0.0
N	-1.961669	-0.247101	-1.383517
H	-2.103835	-1.072744	-0.810769
H	-2.357676	-0.374225	-2.303816
C	-0.274523	1.206877	-2.178017
N	-0.108067	2.190523	-2.797352
N	-0.464206	-1.215841	0.692369
H	-0.878734	-0.974038	1.583686
H	0.356796	-1.781914	0.875711
C	-0.490291	1.201029	0.679293
N	-0.876398	2.142184	1.267547
Br	3.402615	0.0	0.0
