15

C	-0.306271	0.052561	-1.508513
C	0.0	0.0	0.0
Br	-2.263274	0.29653	-1.771634
H	1.102383	0.0	0.0
N	0.383278	1.10482	-2.208077
H	0.145782	1.993776	-1.77693
H	1.383338	0.948869	-2.062234
C	0.021069	-1.241387	-2.115737
N	0.272819	-2.255571	-2.651549
N	-0.488559	-1.200262	0.639298
H	0.202598	-1.518558	1.306123
H	-1.367929	-1.042419	1.116218
C	-0.427083	1.253034	0.634156
N	-0.793296	2.232515	1.171795
Br	3.381059	0.0	0.0
