15

C	-0.501668	0.055845	-1.454275
C	0.0	0.0	0.0
Br	0.32133	-1.43741	-2.474798
H	1.099325	0.0	0.0
N	-1.929104	-0.092743	-1.514661
H	-2.298405	0.287041	-2.377606
H	-2.36051	0.366874	-0.718524
C	-0.020076	1.276563	-2.113837
N	0.238554	2.274069	-2.68114
N	-0.565941	-1.163773	0.697883
H	0.023835	-1.307868	1.513344
H	-0.406594	-1.969012	0.098791
C	-0.484637	1.21757	0.666953
N	-0.921175	2.177568	1.185235
Br	3.435638	0.0	0.0
