17

C	0.0	0.0	0.0
C	-0.234696	-0.01797	-1.539348
Cl	1.783708	0.0	0.0
H	0.24274	-0.940865	-1.890203
H	0.378966	0.803375	-1.916841
N	-0.639736	1.170568	0.617122
O	-0.649535	1.190846	1.877848
O	-0.631724	2.224706	-0.078029
C	-0.295549	-1.272709	0.80083
H	-1.364449	-1.381735	0.957722
H	0.093384	-2.132366	0.247793
H	0.213625	-1.207801	1.762817
C	-1.601408	0.1218	-2.201738
H	-1.421371	0.205714	-3.286071
H	-2.096819	1.027462	-1.859876
H	-2.258645	-0.72651	-2.020399
H	-2.145493	0.0	0.0
