16

C	0.0	0.0	0.0
C	-0.319402	0.204237	-1.496748
Br	2.043606	0.0	0.0
H	-0.164951	1.287477	-1.683415
H	0.444774	-0.315432	-2.084041
N	-0.474197	1.077486	0.759097
H	-0.493842	0.906959	1.752985
H	-0.045189	1.961143	0.528765
C	-0.541352	-1.298232	0.550022
H	-0.243806	-2.142032	-0.070671
H	-1.634045	-1.169638	0.519921
H	-0.19271	-1.4556	1.575879
N	-1.623637	-0.323658	-1.818296
H	-2.378463	-0.074005	-1.100487
H	-1.900375	0.001171	-2.737298
F	-3.393463	0.0	0.0
