16

C	0.0	0.0	0.0
C	-0.533602	-0.147439	-1.403713
Br	2.093314	0.0	0.0
H	-1.630455	-0.131397	-1.177333
H	-0.227967	-1.121604	-1.809513
N	-0.355951	1.256453	0.493034
H	0.07866	1.485605	1.37266
H	-0.219253	1.965747	-0.213688
C	-0.485822	-1.110596	0.891079
H	-1.585837	-0.984227	0.804601
H	-0.146098	-2.086345	0.535383
H	-0.147357	-0.96772	1.921
N	-0.157354	0.992353	-2.239135
H	0.742806	0.823528	-2.672855
H	-0.851453	1.113523	-2.96449
F	-3.008589	0.0	0.0
