16

C	0.0	0.0	0.0
C	-0.251784	-0.336967	-1.522023
Br	1.973865	0.0	0.0
H	0.470615	0.242618	-2.105997
H	0.025405	-1.392287	-1.655208
N	-0.560187	1.247771	0.431897
H	-0.38562	1.949921	-0.281906
H	-1.578943	1.044426	0.42236
C	-0.505932	-1.095546	0.915306
H	-0.09376	-2.066355	0.633068
H	-0.237711	-0.872613	1.950853
H	-1.598046	-1.079327	0.803265
N	-1.57111	-0.093886	-2.069194
H	-1.634006	0.893479	-2.290938
H	-2.292541	-0.232113	-1.329981
F	-3.122262	0.0	0.0
