16

C	0.0	0.0	0.0
C	-0.434819	0.004898	-1.464271
Br	1.991671	0.0	0.0
H	-1.528712	-0.039062	-1.355988
H	-0.151304	0.982063	-1.892694
N	-0.543903	1.118917	0.714805
H	-1.568745	0.894263	0.639395
H	-0.385805	1.957127	0.159535
C	-0.435644	-1.277754	0.692637
H	-0.048151	-2.150991	0.169621
H	-1.530368	-1.243248	0.645416
H	-0.092629	-1.268129	1.729352
N	0.053405	-1.135497	-2.238499
H	1.013603	-0.968037	-2.515635
H	-0.506138	-1.219229	-3.078294
F	-2.924926	0.0	0.0
