16

C	0.0	0.0	0.0
C	-0.469743	-0.08167	-1.449567
Br	1.974602	0.0	0.0
H	-1.563881	-0.110247	-1.321591
H	-0.183445	0.859575	-1.940378
N	-0.54337	1.218487	0.537121
H	-1.568519	1.022179	0.420551
H	-0.363947	1.22744	1.53765
C	-0.422142	-1.243093	0.77562
H	-1.518107	-1.203785	0.74107
H	-0.066578	-1.181882	1.809678
H	-0.041987	-2.151747	0.308251
N	-0.010715	-1.283237	-2.143521
H	-0.685736	-1.522634	-2.853773
H	0.873119	-1.103112	-2.598868
F	-2.939179	0.0	0.0
