16

C	0.0	0.0	0.0
C	-0.454609	-0.063792	-1.453595
Br	1.982503	0.0	0.0
H	-1.54775	-0.103715	-1.34315
H	-0.167152	0.887708	-1.923969
N	-0.546524	1.210437	0.550562
H	-1.571577	1.011417	0.423138
H	-0.375899	1.200584	1.553204
C	-0.420366	-1.253329	0.756836
H	-0.069534	-1.203232	1.793262
H	-1.515769	-1.214317	0.717419
H	-0.037793	-2.156801	0.281489
N	0.02678	-1.252287	-2.159272
H	-0.541772	-1.381697	-2.986727
H	0.981726	-1.099561	-2.46109
F	-2.927559	0.0	0.0
