15

C	-0.336122	-0.262279	-1.460545
C	0.0	0.0	0.0
F	0.084315	-1.526909	-1.826699
H	1.10606	0.0	0.0
C	-1.791593	-0.187457	-1.732546
N	-2.954234	-0.111829	-1.88553
C	0.342835	0.72592	-2.325727
N	0.810332	1.527948	-3.044323
C	-0.564331	-1.045823	0.825751
N	-1.006548	-1.86934	1.540964
C	-0.435145	1.392005	0.453223
H	0.101334	2.142086	-0.132444
H	-1.514211	1.565026	0.373923
H	-0.133306	1.52096	1.49428
F	2.493018	0.0	0.0
