15

C	-0.343119	0.270418	-1.444247
C	0.0	0.0	0.0
F	-1.70259	0.565872	-1.645677
H	1.105154	0.0	0.0
C	0.41526	1.439581	-1.93641
N	0.936984	2.400106	-2.364894
C	-0.033716	-0.889123	-2.302309
N	0.160047	-1.808557	-3.006731
C	-0.558551	-1.260866	0.436106
N	-1.004422	-2.275599	0.832021
C	-0.394258	1.157381	0.915591
H	0.133588	2.05921	0.596237
H	-1.470975	1.348342	0.936711
H	-0.050313	0.924751	1.925005
F	2.482531	0.0	0.0
