15

C	-0.275981	-0.171551	-1.473814
C	0.0	0.0	0.0
F	-1.642131	-0.181121	-1.796386
H	1.10715	0.0	0.0
C	0.323629	0.944591	-2.235934
N	0.718984	1.83995	-2.884684
C	0.293512	-1.438992	-1.971782
N	0.693847	-2.456446	-2.400107
C	-0.526544	-1.123634	0.744179
N	-0.93856	-2.016975	1.389988
C	-0.47447	1.342539	0.545891
H	-1.544743	1.516059	0.394728
H	0.097458	2.14377	0.071849
H	-0.260062	1.379566	1.6155
F	2.483524	0.0	0.0
