17

C	0.0	0.0	0.0
C	-0.577273	-0.005865	-1.430925
Br	1.959946	0.0	0.0
H	-1.701059	-0.068442	-1.168603
N	-0.495536	1.148569	0.703356
H	-0.270289	1.997656	0.192107
H	-1.527904	1.015989	0.680145
C	-0.427142	-1.24214	0.765843
H	0.020972	-2.148156	0.363395
H	-0.121628	-1.105775	1.804138
H	-1.520479	-1.290326	0.704337
N	-0.188203	-1.177575	-2.260559
O	-0.704927	-2.255818	-1.964586
O	0.616883	-1.009701	-3.181593
C	-0.266196	1.218881	-2.14639
N	-0.056297	2.244252	-2.682611
H	-2.945058	0.0	0.0
