17

C	0.0	0.0	0.0
C	-0.629972	-0.081878	-1.386596
Br	1.952663	0.0	0.0
H	-1.763947	-0.104281	-1.066224
N	-0.494799	1.253506	0.510358
H	-1.527578	1.125629	0.489317
H	-0.220595	1.333073	1.485108
C	-0.399088	-1.200384	0.85815
H	-0.067796	-1.011799	1.883104
H	0.040542	-2.135349	0.513779
H	-1.492944	-1.253819	0.828714
N	-0.310642	-1.336973	-2.116714
O	0.474698	-1.286916	-3.067012
O	-0.871048	-2.361358	-1.724281
C	-0.327436	1.06133	-2.224886
N	-0.146262	1.984055	-2.931321
H	-2.928287	0.0	0.0
