16

C	0.0	0.0	0.0
C	-0.435944	-0.169088	-1.468933
Br	2.024677	0.0	0.0
H	0.424348	-0.513889	-2.050458
H	-0.191868	-0.935386	0.522054
N	-0.523448	1.171111	0.605379
H	-0.308422	1.122135	1.597279
H	-1.561394	0.932116	0.491318
C	-1.03345	1.068824	-2.096781
H	-1.996917	1.233331	-1.618577
H	-1.161464	0.926243	-3.170244
H	-0.36811	1.914293	-1.910938
N	-1.369974	-1.354264	-1.61275
O	-1.143267	-2.342598	-0.920562
O	-2.173873	-1.327536	-2.536272
F	-2.697044	0.0	0.0
