16

C	0.0	0.0	0.0
C	-0.53238	0.077123	-1.430455
Br	2.002814	0.0	0.0
H	-1.62576	0.129008	-1.232919
H	-0.223927	-1.015479	0.34476
N	-0.532559	1.050134	0.79539
H	-0.317969	0.850248	1.766648
H	-1.562796	0.881378	0.643203
C	-0.152742	-1.102572	-2.296892
H	0.927314	-1.184263	-2.427527
H	-0.535571	-2.013686	-1.827458
H	-0.615261	-1.011209	-3.282443
N	-0.127738	1.356317	-2.083074
O	-0.814278	2.3535	-1.8584
O	0.86363	1.34964	-2.822689
F	-2.814166	0.0	0.0
