16

C	0.0	0.0	0.0
C	-0.435757	-0.188094	-1.466119
Br	2.025009	0.0	0.0
H	0.425454	-0.53917	-2.043146
H	-0.192239	-0.929247	0.533039
N	-0.523345	1.176771	0.593966
H	-0.310237	1.131739	1.58603
H	-1.560761	0.937499	0.481045
C	-1.033959	1.042388	-2.109019
H	-0.367684	1.889049	-1.932777
H	-1.997372	1.212716	-1.632234
H	-1.164068	0.887503	-3.180899
N	-1.36749	-1.376254	-1.595604
O	-1.134457	-2.358342	-0.897328
O	-2.176662	-1.357616	-2.514818
F	-2.694461	0.0	0.0
