16

C	0.0	0.0	0.0
C	-0.22763	-0.051911	-1.547383
Br	1.948666	0.0	0.0
H	0.461331	0.670022	-1.984595
H	-0.282434	-0.952624	0.452751
N	-0.637353	1.159686	0.518144
H	-0.462175	1.19391	1.518457
H	-1.666808	0.859874	0.387475
C	-1.592967	0.170263	-2.174351
H	-1.917126	1.183767	-1.946693
H	-2.345371	-0.47931	-1.741046
H	-1.467507	0.06286	-3.25819
N	0.264065	-1.372516	-2.070651
O	-0.046015	-2.394874	-1.462145
O	0.900974	-1.3575	-3.12583
F	-2.912151	0.0	0.0
