16

C	-0.416078	0.000552	-1.440933
C	0.0	0.0	0.0
F	0.320867	-0.804342	-2.200286
H	1.095361	0.0	0.0
N	-1.888296	-0.350932	-1.673981
O	-2.159789	-0.891368	-2.736305
O	-2.664231	-0.013346	-0.791427
N	-0.247835	1.416169	-2.012441
O	0.911843	1.795433	-2.088592
O	-1.258379	2.015561	-2.365142
N	-0.394161	-1.25977	0.661397
O	-0.29869	-1.299136	1.883998
O	-0.726444	-2.200181	-0.063224
C	-0.473264	1.144485	0.740824
N	-0.807188	2.105242	1.330119
F	2.388037	0.0	0.0
