16

C	-0.434297	0.005411	-1.437716
C	0.0	0.0	0.0
F	0.064857	1.085791	-2.047288
H	1.095863	0.0	0.0
N	0.01693	-1.206929	-2.258727
O	1.208313	-1.235115	-2.507907
O	-0.84919	-1.990242	-2.624287
N	-1.955323	0.055576	-1.622438
O	-2.62313	-0.465077	-0.73838
O	-2.364006	0.595755	-2.641749
N	-0.374847	-1.217944	0.739058
O	-0.686375	-1.101822	1.920513
O	-0.253626	-2.281208	0.133574
C	-0.494381	1.192619	0.647363
N	-0.876356	2.199936	1.118524
F	2.394772	0.0	0.0
