16

C	-0.313003	0.012087	-1.468763
C	0.0	0.0	0.0
F	0.122063	-1.099043	-2.052293
H	1.092083	0.0	0.0
N	-1.804454	0.142581	-1.802047
O	-2.283673	1.254388	-1.614635
O	-2.380437	-0.864948	-2.185069
N	0.326521	1.201898	-2.177011
O	0.633214	2.169688	-1.500146
O	0.436831	1.066052	-3.390528
N	-0.523938	-1.312637	0.52163
O	0.271186	-2.238769	0.610434
O	-1.723207	-1.365964	0.803967
C	-0.581616	1.074446	0.765868
N	-1.010748	1.911951	1.47089
F	2.422671	0.0	0.0
