16

C	-0.626993	0.001515	-1.363448
C	0.0	0.0	0.0
F	-1.960748	-0.126268	-1.342292
H	1.09176	0.0	0.0
N	-0.317115	1.305036	-2.102617
O	0.663927	1.939715	-1.744264
O	-1.079269	1.561525	-3.030452
N	-0.076427	-1.061373	-2.320471
O	1.124351	-0.992014	-2.520897
O	-0.885381	-1.821547	-2.823486
N	-0.350157	-1.257443	0.703979
O	-0.422707	-2.274679	0.012283
O	-0.458026	-1.219363	1.925631
C	-0.485233	1.137818	0.753003
N	-0.88593	2.078982	1.332567
F	2.390953	0.0	0.0
