16
Coordinates from ORCA-job run
  C   -0.47069896544849     -0.05152326108947      0.16365817438713
  C   0.83106939479159     -0.83620924898137      0.02514500854336
  F   -0.93463825508813     -0.25346528724194      1.46812988202283
  H   1.15282543107208     -0.87593695017688     -1.01451549186105
  H   0.69929253947480     -1.83488573453275      0.44084051791083
  C   -0.29175544068045      1.44028820587201     -0.02702209121487
  H   0.33965747877336      1.85312333941280      0.76059488476059
  H   0.16795414840956      1.66384723255271     -0.99144236146409
  H   -1.26656136274088      1.92833250363098      0.02559805666953
  C   -1.50439949178795     -0.64188709637894     -0.77744981126033
  H   -1.60710340126482     -1.71643802249045     -0.61045280814026
  H   -2.47123540755086     -0.17304845954422     -0.58609747212580
  H   -1.23169597240282     -0.46780386255755     -1.82041510390068
  N   1.92968670201759     -0.18714836687893      0.78786997204559
  O   2.65194724944767      0.59406578238717      0.16801196389325
  O   2.00565535297775     -0.43931077398317      1.98754667973398
