16
Coordinates from ORCA-job run
  C   -0.39819641174063      0.17700545588921      0.24694169783614
  C   1.11570218006286      0.03618741948709      0.38038919969525
  F   -0.95900201637974     -0.26530558493113      1.45007310212438
  H   1.43400270798884      0.43343882683661      1.34392403930877
  H   1.62681736608376      0.53135983061071     -0.44396856611629
  C   -0.74550330319846      1.64716239039525      0.10285202021961
  H   -0.38497634954119      2.04513621800389     -0.84798237474121
  H   -0.31023707877949      2.22688202884453      0.91989857900696
  H   -1.82996849334334      1.76383287022731      0.14183985947401
  C   -0.98126516865819     -0.67235966536797     -0.86323585360277
  H   -0.84201477642590     -1.73217859064147     -0.64679202026796
  H   -0.50847588716633     -0.45022180658681     -1.82164300745191
  H   -2.05236334331443     -0.47715215558005     -0.93969246721528
  N   1.52482673010226     -1.39245000522195      0.34032068310600
  O   1.85201521857476     -1.84740357400407     -0.75610030289943
  O   1.45963862573521     -2.02493365796116      1.39117541152374
