16
Coordinates from ORCA-job run
  C   -0.36092619202052      0.22184478355903      0.26716026215191
  C   1.15573966158241      0.05368077516564      0.22783781430958
  F   -0.76736621590623     -0.03143462092790      1.58190232426028
  H   1.56342412146422      0.41434624925640     -0.71537986227841
  H   1.60001003612385      0.57031143610297      1.07827727654875
  C   -0.70428378860241      1.66786654166495     -0.03858546149243
  H   -0.45975064906565      1.92015894671110     -1.07250586002776
  H   -1.77366078194152      1.82229174027843      0.11546031088359
  H   -0.16246608126291      2.34047857069354      0.63008098994758
  C   -1.09371311099193     -0.75501807471290     -0.62873073004576
  H   -0.93947859336171     -1.77855166318697     -0.28529284865904
  H   -2.16325784409661     -0.54040642457246     -0.59403091254163
  H   -0.74802942545303     -0.68081968679187     -1.66141174350911
  N   1.53758728235105     -1.37867933024141      0.33932998022060
  O   1.71341393495230     -1.99149463566654     -0.71405051183333
  O   1.60175764622869     -1.85657460733201      1.46893897206518
