13
Coordinates from ORCA-job run
  C   0.46467514015903     -0.78791885685375      0.08063072264551
  C   -0.46789479570129      0.37587316141316     -0.23948155937700
  Cl  0.41811681135676     -1.21803754728064      1.76530153751064
  H   -0.40181855648395      0.58289543603466     -1.31141508770917
  H   0.19533066618390     -1.64616922844549     -0.53331806548109
  N   1.85692547914335     -0.36694308508921     -0.38349195137568
  O   2.75630377698044     -0.25561354288084      0.43090376544178
  O   1.91414403143923     -0.17194419801137     -1.59373163677020
  C   -0.16133611143339      1.56602680722049      0.53762100733836
  N   0.13405326020738      2.53081439207415      1.13860656465494
  N   -1.89716969330928     -0.08718415347725     -0.00567658871455
  O   -2.61261693635423      0.59024384013357      0.71611289904825
  O   -2.19771307218796     -1.11304302483749     -0.60306160721181
