13
Coordinates from ORCA-job run
  C   0.95383845309898      0.12701003477154      0.04637010367320
  C   -0.44803850216120      0.23971247172317     -0.52770100079934
  Cl  2.14066455430533      0.43430905801789     -1.21361522496661
  H   -0.58918357492647     -0.48255551707219     -1.33306162249143
  H   1.12346150134230      0.80229556513577      0.88113193893831
  N   1.16220489488216     -1.27213429884966      0.57896757929538
  O   0.50660836799272     -2.16718522922279      0.05610892881237
  O   1.99079268255401     -1.38200291961480      1.47091491259491
  C   -0.73002049633796      1.59534554483051     -0.98098849973207
  N   -0.95206666572914      2.69254121793616     -1.33650727439566
  N   -1.47363898532478     -0.11977692900998      0.53555681979425
  O   -1.11326463176200     -0.01945809070310      1.70283439987738
  O   -2.57235759793394     -0.45110090794251      0.11898893939931
