13
Coordinates from ORCA-job run
  C   0.96145312812982      0.03856458939341      0.06074956639757
  C   -0.41802902056009      0.30521329401524     -0.51651518749419
  Cl  2.18487472862569      0.29949766390732     -1.17448905466319
  H   -0.61406157854830     -0.36249997979117     -1.35682174827090
  H   1.18203443483251      0.65302035419948      0.92987769556710
  N   1.03714590709772     -1.39887439766577      0.52226320579789
  O   0.32789681975360     -2.20681992079510     -0.06811367912739
  O   1.82495804938381     -1.62462625628920      1.42917920708361
  C   -0.57248947026210      1.70047450084774     -0.90615466262456
  N   -0.69269048371558      2.82870712926849     -1.20961492383665
  N   -1.48518297096691     -0.01086645162257      0.51982754513610
  O   -2.60962304705199     -0.19222681527708      0.08020112974338
  O   -1.12628649671816     -0.02956371019079      1.69161090629122
