15

C	-0.453708	0.013757	-1.451544
C	0.0	0.0	0.0
F	-1.672951	0.602529	-1.627679
H	1.08785	0.0	0.0
H	0.289717	0.566344	-2.033903
N	-0.503171	-1.362499	-2.066372
O	0.42406	-2.099785	-1.760165
O	-1.40693	-1.602896	-2.854572
N	-0.557713	-1.193492	0.724307
O	0.063599	-1.607262	1.691933
O	-1.652612	-1.613622	0.338597
N	-0.418193	1.168493	0.716482
H	0.366491	1.78488	0.865986
H	-1.200691	1.639643	0.293152
Br	3.418758	0.0	0.0
