15

C	-0.625531	0.114397	-1.372556
C	0.0	0.0	0.0
F	-1.988714	0.088047	-1.254122
H	1.096034	0.0	0.0
H	-0.316516	1.055967	-1.822852
N	-0.223463	-0.958499	-2.354732
O	0.918647	-0.85129	-2.779323
O	-1.056958	-1.79873	-2.668718
N	-0.411579	-1.341534	0.601967
O	-0.082491	-2.34245	-0.025598
O	-1.02245	-1.336514	1.669533
N	-0.434945	1.115368	0.77155
H	0.231136	1.27957	1.514603
H	-1.34883	0.947917	1.170705
Br	3.404068	0.0	0.0
