15

C	-0.480224	0.031122	-1.435173
C	0.0	0.0	0.0
F	0.132618	1.017748	-2.117568
H	1.092626	0.0	0.0
H	-0.343692	-0.919865	-1.948433
N	-1.969969	0.318732	-1.461983
O	-2.640146	-0.326331	-0.657494
O	-2.399163	1.122009	-2.277145
N	-0.369835	-1.346577	0.606608
O	-0.181308	-2.341884	-0.086672
O	-0.78806	-1.356048	1.760064
N	-0.469237	1.114388	0.743194
H	0.225995	1.371883	1.43057
H	-1.339663	0.901904	1.212467
Br	3.391523	0.0	0.0
