15

C	-0.597517	0.069025	-1.38851
C	0.0	0.0	0.0
F	-1.962272	0.037802	-1.30321
H	1.090275	0.0	0.0
H	-0.280996	0.996616	-1.862619
N	-0.161567	-1.036152	-2.322891
O	0.988339	-0.932536	-2.723725
O	-0.980758	-1.895251	-2.621635
N	-0.417484	-1.326404	0.631338
O	-1.076335	-1.294028	1.670471
O	-0.048843	-2.344018	0.053326
N	-0.45317	1.133921	0.730608
H	0.185151	1.309082	1.495211
H	-1.382517	0.979567	1.098867
Br	3.412539	0.0	0.0
