18
Coordinates from ORCA-job run
  C   -0.53127490359186     -0.54342876705037     -0.06891443548738
  C   0.64399042116752      0.39176081200726      0.11908731274773
  H   -0.53590433847765     -0.95531998979557     -1.07783703852120
  H   0.71697125744461      0.71170300920127      1.15827469780305
  C   -1.86712598591041      0.09801309666251      0.27584743275337
  H   -2.65672180241983     -0.65273831268361      0.21917507633688
  H   -2.10677119207998      0.89221430471325     -0.43149833135048
  H   -1.84669384265829      0.51433092044452      1.28586644258881
  N   -0.37052853552277     -1.74526535319714      0.82329231135413
  O   -0.93213747448314     -2.77187367153829      0.45680921228027
  O   0.25847344446048     -1.60090694499933      1.86979005860244
  C   0.61890800906001      1.58178377421986     -0.82855609380805
  H   1.53862775188213      2.15742665473845     -0.71429907475707
  H   0.53696851875602      1.24815932200828     -1.86579046442364
  H   -0.21998466366819      2.23910518622443     -0.59896760506131
  N   1.92861511610249     -0.35155812763563     -0.13286753433478
  O   1.89706637167567     -1.29962238015983     -0.91505785147278
  O   2.92752184826318      0.08621646683992      0.42764588475002
