18
Coordinates from ORCA-job run
  C   -0.36521855553631     -0.65852786292459      0.42617252033128
  C   0.85164193394947      0.14126402723800     -0.05607160928819
  H   -0.08450860625249     -1.09675769321346      1.38659415470092
  H   1.66164282410097     -0.57985146985652     -0.18701130430996
  C   -0.85625008734128     -1.71652776953449     -0.54065191158772
  H   -1.66643287222806     -2.28907974537032     -0.08550038941465
  H   -1.22484147981831     -1.27077750616979     -1.46233198356672
  H   -0.03947448781520     -2.39776311088297     -0.78587519193238
  N   -1.48052908071986      0.28948262769114      0.77404781968499
  O   -1.51015577075800      0.70120104341717      1.93312840530122
  O   -2.26134981390882      0.60225087707315     -0.12096979017697
  C   1.26753157205936      1.27908683881822      0.85366253727316
  H   1.45110528849014      0.89709103249477      1.85950602053096
  H   2.18438207964421      1.73829213194556      0.47964636492728
  H   0.49631280001974      2.04475102941119      0.90868835298705
  N   0.59452555732238      0.65209853098052     -1.44769382325668
  O   0.92975287104498     -0.08492759294438     -2.37412451699929
  O   0.05086582774707      1.74769461182681     -1.56021565520429
