18
Coordinates from ORCA-job run
  C   0.85824365286649      0.09307776901103     -0.06191231790623
  C   -0.39755700901101     -0.63483984898770      0.43339881229690
  H   1.62784695330436     -0.67189704203517     -0.18771507376816
  H   -0.13413357005356     -1.08425192161607      1.39357109742516
  C   1.33878759321958      1.21592155278983      0.83460360839979
  H   1.50469456585262      0.83498073048856      1.84389505459063
  H   0.61074886056733      2.02323604529776      0.88333861539394
  H   2.27804274232568      1.62044356637523      0.45311611854019
  N   0.62438249013051      0.60285930657671     -1.45791837710903
  O   0.14227561408975      1.72569033395279     -1.58093533765381
  O   0.91423600085896     -0.16169235475522     -2.37728867237627
  C   -0.95550137034699     -1.66820819240474     -0.52389598604036
  H   -0.18052703905752     -2.39551879192861     -0.77234614027779
  H   -1.30650201382365     -1.20657909822356     -1.44465070431462
  H   -1.79257796691131     -2.19205450771985     -0.05882830576959
  N   -1.45515716315559      0.37534703236007      0.78557591165989
  O   -2.22132322297313      0.73133726902636     -0.10589412215354
  O   -1.45497911788252      0.79014815179261      1.94388581906291
