18
Coordinates from ORCA-job run
  C   -0.49210261390808     -0.58271006602910     -0.00181775627995
  C   0.61726158502605      0.44439195989372      0.06808212482000
  H   -0.47039203317637     -1.10431442236010     -0.95842287535530
  H   0.67501971450144      0.87904338403223      1.06575260201842
  C   -1.86814255420602      0.00073742213073      0.28190058460211
  H   -1.87444065932443      0.53108777265852      1.23722491183085
  H   -2.16403396632624      0.69013227170202     -0.50912961675746
  H   -2.60355778204316     -0.80412458071153      0.31965570979639
  N   -0.24723845298956     -1.66469656897785      1.01714262063072
  O   -0.75708944025681     -2.75468794003611      0.78157717294136
  O   0.39248554463508     -1.36942902186308      2.02452717923383
  C   0.50433497661167      1.52016703007549     -1.00159773265921
  H   1.38422564943214      2.16418330141081     -0.96452436710737
  H   0.43603058770461      1.07175701263083     -1.99565275614991
  H   -0.37479844614891      2.14171911730244     -0.83046562572016
  N   1.94877740297922     -0.23368260943395     -0.11961195255526
  O   2.91843340998760      0.33016881845437      0.37553902320442
  O   1.97722707750176     -1.26174288087944     -0.79317924649348
