12
Coordinates from ORCA-job run
  C   0.95101580598528      0.18725430729209      0.33585810601712
  C   -0.48981541792632     -0.27162386158346      0.08384398470529
  Br  1.36623519270230      1.75470202087048     -0.73153698692781
  H   -0.70279566777343     -1.12275373618221      0.74084204175054
  H   1.03383329962805      0.48896671631749      1.38163182585589
  C   1.87690551139891     -0.89574033796035      0.04378359050750
  N   2.60479348936747     -1.79178948128518     -0.17626370449071
  C   -0.74611043938807     -0.62917164485609     -1.30253976804470
  N   -0.92821609027759     -0.96305723857132     -2.41372814526693
  N   -1.43326456769470      0.82702574792144      0.55390621056103
  O   -1.23632994815234      1.20318091911475      1.70255832797781
  O   -2.29725116786955      1.21500658892235     -0.21735548264502
