12
Coordinates from ORCA-job run
  C   0.94461404016039     -0.03197057931998      0.39812234008812
  C   -0.54232255781593     -0.15897177966163      0.04742111205722
  Br  1.76067482801198      1.42081657758821     -0.59810363451257
  H   -0.97920708108108     -0.95016609634357      0.66752593118939
  H   1.02391900916031      0.22929168544066      1.45500663563114
  C   1.62848675878381     -1.28766521626570      0.13149310076434
  N   2.15714653835852     -2.31782397020266     -0.06947096803157
  C   -0.77988525891562     -0.43313956919654     -1.36114982841814
  N   -0.95714036497198     -0.70442200842718     -2.49005651345846
  N   -1.25001799984964      1.11551255971907      0.48820304232994
  O   -1.04972274547099      1.42486139196214      1.65610798912201
  O   -1.95454516636977      1.69467700470719     -0.32409920676141
