12
Coordinates from ORCA-job run
  C   0.85856621116415     -0.43319939536242      0.53342780727534
  C   -0.62806407080960     -0.34209089532879      0.16001645520274
  Br  1.14255428381286      0.34553143629283      2.29298230853340
  H   -1.22450844165303     -0.85304281176570      0.91808818933469
  H   1.10534264714802     -1.49390294847562      0.62929027035771
  C   1.75000128522144      0.17105747309341     -0.44622330332488
  N   2.51090985193004      0.60459341709641     -1.22977272573198
  C   -0.85960053169806     -0.91252871080874     -1.16192603034910
  N   -1.03104053247323     -1.40597595505181     -2.21430631788947
  N   -1.09799015030346      1.09812006214325      0.16869445729907
  O   -0.55031029850609      1.84910960610609     -0.62751112907812
  O   -1.97586025383305      1.37232872206110      0.97724001837060
