12
Coordinates from ORCA-job run
  C   0.94810062016673     -0.44137536896418      0.07004640640276
  C   -0.53051762763578     -0.10751266242626      0.30749650974043
  Br  1.48543824868808     -1.85836146740850      1.28481045719806
  H   -0.69104997007926      0.26097610502204      1.32234954647334
  H   1.07820168461713     -0.81604477662384     -0.94625950836853
  C   1.76911082289603      0.74253321052945      0.27949333424370
  N   2.40806085716220      1.71443743782739      0.44755731438576
  C   -1.39658601378076     -1.24259069444201      0.01452854330340
  N   -2.09956820077096     -2.15155698939749     -0.22886265077256
  N   -0.90498305022671      1.03179900978924     -0.62715242803985
  O   -0.63444582001385      0.85860293122057     -1.80958234112271
  O   -1.43276155102284      2.00909326487358     -0.11442518344379
