13

C	0.0	0.0	0.0
C	-0.458574	-0.298468	-1.485068
Cl	1.792863	0.0	0.0
H	-0.223166	-1.35495	-1.653292
H	0.223566	0.294308	-2.101735
C	-0.435185	1.338889	0.392703
N	-0.709687	2.450884	0.65667
C	-0.445075	-1.020622	0.944797
N	-0.700993	-1.899587	1.682064
N	-1.800093	-0.005516	-1.840269
H	-2.529938	-0.431068	-1.265416
H	-1.993365	0.987083	-1.827146
Cl	-4.392256	0.0	0.0
