13

C	0.0	0.0	0.0
C	-0.541321	0.405977	-1.380622
Cl	1.794822	0.0	0.0
H	-1.603407	0.601859	-1.207615
H	-0.026415	1.328706	-1.665033
C	-0.393727	0.977631	1.02138
N	-0.581949	1.811908	1.825968
C	-0.425829	-1.350541	0.375021
N	-0.64168	-2.466306	0.672373
N	-0.308172	-0.670441	-2.326214
H	-1.191347	-1.110083	-2.550562
H	0.122135	-0.330923	-3.17481
Cl	-3.518548	0.0	0.0
