13

C	0.0	0.0	0.0
C	-0.517352	-0.430801	-1.384085
Cl	1.794895	0.0	0.0
H	-1.585683	-0.617383	-1.240753
H	-0.000929	-1.361815	-1.633044
C	-0.420976	1.360419	0.346431
N	-0.624234	2.483954	0.622299
C	-0.408037	-0.962873	1.029634
N	-0.604881	-1.788115	1.842027
N	-0.235362	0.613577	-2.353453
H	-1.091327	1.119229	-2.545183
H	0.10624	0.219319	-3.217783
Cl	-3.466659	0.0	0.0
