13

C	0.0	0.0	0.0
C	-0.514898	0.420507	-1.388895
Cl	1.794728	0.0	0.0
H	0.03859	1.32176	-1.664554
H	-1.57403	0.651276	-1.245269
C	-0.409899	0.975306	1.01746
N	-0.584102	1.829861	1.804721
C	-0.421228	-1.356718	0.360347
N	-0.620572	-2.478285	0.646788
N	-0.269407	-0.65309	-2.337626
H	-0.033512	-0.273641	-3.243774
H	-1.120733	-1.194689	-2.434269
Cl	-3.45078	0.0	0.0
