16

C	-0.566396	-0.017735	-1.403332
C	0.0	0.0	0.0
Br	0.088993	-1.548154	-2.387432
H	1.089322	0.0	0.0
H	-1.653235	-0.05384	-1.431654
N	-0.199688	1.215251	-2.196079
O	0.777805	1.855322	-1.836745
O	-0.931233	1.463309	-3.15185
C	-0.509778	-1.149668	0.855935
H	-1.604762	-1.16579	0.889902
H	-0.142879	-2.096869	0.462847
H	-0.115767	-1.026252	1.864853
N	-0.462857	1.265691	0.663907
O	0.075436	1.567239	1.720871
O	-1.393518	1.886839	0.13931
Br	3.470438	0.0	0.0
