16

C	-0.420857	-0.013494	-1.46145
C	0.0	0.0	0.0
Br	0.247754	1.512577	-2.418762
H	1.091129	0.0	0.0
H	0.004431	-0.904554	-1.923429
N	-1.921779	-0.154187	-1.656295
O	-2.603862	0.813335	-1.959635
O	-2.337182	-1.297987	-1.463775
C	-0.493016	-1.181491	0.817363
H	-0.029255	-1.119885	1.804427
H	-0.164169	-2.111135	0.349797
H	-1.577694	-1.191223	0.917296
N	-0.488399	1.261092	0.646016
O	0.336091	2.061296	1.073517
O	-1.715309	1.388594	0.723101
Br	3.458506	0.0	0.0
