16

C	-0.427299	-0.008582	-1.459451
C	0.0	0.0	0.0
Br	0.263156	1.503221	-2.42138
H	1.091146	0.0	0.0
H	-0.018043	-0.906279	-1.92169
N	-1.930108	-0.125465	-1.645855
O	-2.597317	0.85077	-1.952248
O	-2.362934	-1.260868	-1.444954
C	-0.498276	-1.176807	0.820374
H	-0.027979	-1.118821	1.804588
H	-0.181505	-2.109639	0.351587
H	-1.58214	-1.176203	0.926938
N	-0.478223	1.261528	0.653897
O	-1.70321	1.398733	0.733825
O	0.353503	2.053036	1.081762
Br	3.441788	0.0	0.0
