16

C	-0.457381	0.113195	-1.443871
C	0.0	0.0	0.0
Br	-2.347284	0.531934	-1.596471
H	1.097573	0.0	0.0
H	0.086251	0.911456	-1.947568
N	-0.152563	-1.144699	-2.23431
O	-0.784282	-1.342514	-3.265206
O	0.768648	-1.829215	-1.808269
C	-0.567873	-1.146928	0.796999
H	-1.659328	-1.117265	0.835594
H	-0.232506	-2.083298	0.355438
H	-0.180633	-1.096686	1.814069
N	-0.322204	1.322479	0.639943
O	-0.013568	2.330045	0.005958
O	-0.823337	1.327803	1.760434
Br	3.393905	0.0	0.0
