14
Coordinates from ORCA-job run
  C   0.87860029155842      0.16818271272476      0.39554351360669
  C   -0.43054115774704     -0.05492325149982     -0.39052299829816
  Cl  0.56889868828010      0.48704580707791      2.12064906433180
  H   -0.24438918372817     -0.00569631771523     -1.46429067965046
  C   1.58519032565091      1.32050489088543     -0.17506539528115
  N   2.18978094480422      2.21783663639720     -0.63537809767812
  C   1.73204802508014     -1.01343486040458      0.23625063111816
  N   2.44108832510172     -1.93458854501848      0.05993055939165
  N   -1.42965088436619      1.02949885352997     -0.06293135659800
  O   -2.38578666958864      0.72593549676959      0.63431781716211
  O   -1.14885778954676      2.12469916226107     -0.53175744506120
  N   -1.08181275574777     -1.37749229770657     -0.11863061977848
  O   -1.89776887358330     -1.70794183290416     -0.97107080122583
  O   -0.77679928616766     -1.97862645439710      0.90295580796101
