14
Coordinates from ORCA-job run
  C   0.93861209736343     -0.27530521145284     -0.01540269768137
  C   -0.47993418041877      0.33264781045103     -0.01062580030778
  Cl  0.91875151101934     -2.00050584731143     -0.45924731325615
  H   -0.42929703950657      1.42198562359367      0.01879763262236
  C   1.53505948871958     -0.09343400306589      1.31161561832585
  N   2.03605397532185      0.10565781339325      2.35646415562784
  C   1.76225123955860      0.45025298664922     -0.98914691174872
  N   2.45248384578602      1.03908668738733     -1.73704218039629
  N   -1.32012388920666     -0.09974230134141      1.15276373242661
  O   -2.28647349990409      0.62535012717193      1.35858728600012
  O   -1.00100117847750     -1.11576739890806      1.75635954457808
  N   -1.21445123072360     -0.04371630992874     -1.27634229251449
  O   -2.11218328097453     -0.86713557602565     -1.18583959284459
  O   -0.79974785855709      0.52062559938759     -2.27994118083147
