14
Coordinates from ORCA-job run
  C   0.99812978833885     -0.22513001353281      0.13104540791801
  C   -0.47041650357766     -0.44645913119704     -0.26293881261058
  Cl  1.63554253097393     -1.78800189716319      0.72359007014002
  H   -0.55075988393966     -1.22616761140521     -1.01881372299771
  C   1.18361301867265      0.81692991590916      1.14212517456291
  N   1.40607252153228      1.68319864521224      1.90532895188809
  C   1.73785827047598      0.14612062112277     -1.07924395031432
  N   2.32765989185234      0.43780394903793     -2.05387508271236
  N   -1.04798743825675      0.81994067587007     -0.84321997795341
  O   -1.42350802472045      1.66175608558805     -0.03558260339228
  O   -1.05814496050505      0.88386519567303     -2.06653440679165
  N   -1.35331649927123     -0.83339540617685      0.88886554978988
  O   -2.43389815273447     -1.29742649103167      0.54328668081734
  O   -0.94984455884074     -0.63303453790648      2.02596672165606
