14
Coordinates from ORCA-job run
  C   0.88141758411546      0.02611845383026      0.43289838388328
  C   -0.41457289337848     -0.04817782013878     -0.40365760394587
  Cl  0.57837358901262     -0.29904336281304      2.15723866783445
  H   -0.17873914283926     -0.09337692462914     -1.46782545204430
  C   1.47630927309332      1.35435128729098      0.25491175172333
  N   1.96955526742073      2.40291628195072      0.05684055615100
  C   1.82885047285793     -0.97179630944676     -0.07599653945051
  N   2.61664187567176     -1.73500961489300     -0.50015111408998
  N   -1.33049989888905      1.12142690876776     -0.20531315560014
  O   -2.15503592233099      1.25840615786637     -1.10178176005623
  O   -1.20411756510688      1.79532562777554      0.80868021234428
  N   -1.18545943576029     -1.30218015472465     -0.06497625880160
  O   -2.21184449417641     -1.17674692395987      0.58545877200432
  O   -0.66787870969048     -2.33221360687636     -0.47532645995203
