14
Coordinates from ORCA-job run
  C   0.85927296074383      0.43629126554594      0.18824303488624
  C   -0.39955834138187     -0.35680964976716     -0.22331144676960
  Cl  0.44908922868001      2.04985306068923      0.81976010724189
  H   -0.12548429286306     -1.22293893461699     -0.82716497559560
  C   1.72371347731077      0.59403891637743     -0.98682543159267
  N   2.45013664920829      0.68593896616368     -1.90704744590148
  C   1.59281628551543     -0.34050070903096      1.19251327524314
  N   2.20177353648330     -0.99843181893503      1.95260646815119
  N   -1.30989367788623      0.50399350647472     -1.06679027596066
  O   -0.87946798501712      0.73400653990673     -2.18950834007134
  O   -2.34937672527148      0.89615768273925     -0.55859351522340
  N   -1.19876706982308     -0.86855945164098      0.93712711989844
  O   -1.05130690699754     -0.33193755420706      2.02757303766783
  O   -1.96394713870125     -1.78010181969880      0.64441838802601
