14
Coordinates from ORCA-job run
  C   0.97459397601312      0.02307575540215      0.30736492788148
  C   -0.55871012767301      0.04934257729195      0.39675035245616
  Cl  1.54347189253966     -0.98178354493655      1.68061793066966
  H   -0.88145692827696      0.49487661825214      1.33784500141772
  C   1.46972404829376      1.38801668068677      0.49753715948243
  N   1.85270809196780      2.48063477504259      0.70124730075446
  C   1.49248093062113     -0.54140977283375     -0.93867080722919
  N   1.98552435663938     -0.99639412746646     -1.90400358097120
  N   -1.14122065290862     -1.33139509887850      0.31869891285948
  O   -0.97190386607178     -1.91389892721508     -0.74684941088949
  O   -1.72878425120146     -1.73123485902732      1.31547826614508
  N   -1.18658266599577      0.83359398356407     -0.72801999605897
  O   -0.43830637700088      1.35261257155687     -1.54753470743128
  O   -2.40853842694637      0.87496336856112     -0.69146134908633
