19

C	-0.164688	-0.023181	-1.522892
C	0.0	0.0	0.0
Cl	-1.940976	-0.304675	-2.012975
H	1.102018	0.0	0.0
C	0.249161	1.289388	-2.167358
H	1.265717	1.503115	-1.81978
H	-0.416362	2.112453	-1.905753
H	0.257527	1.185349	-3.256149
N	0.60228	-1.151512	-1.990069
H	1.531897	-1.048554	-1.558111
H	0.715555	-1.091887	-2.996493
N	-0.455847	-1.211278	0.672182
H	-1.418002	-1.386912	0.391672
H	0.091075	-1.983463	0.304738
C	-0.559832	1.226327	0.686888
H	-0.402936	1.108538	1.760254
H	-1.635431	1.335575	0.503638
H	-0.052811	2.138901	0.367181
H	2.930218	0.0	0.0
