19

C	-0.382893	0.024794	-1.487273
C	0.0	0.0	0.0
Cl	-0.117041	-1.659018	-2.15806
H	1.104533	0.0	0.0
C	-1.835875	0.361073	-1.75868
H	-2.476669	-0.301347	-1.175303
H	-2.03982	1.396308	-1.467861
H	-2.05076	0.249127	-2.822714
N	0.502632	0.884566	-2.244698
H	0.266116	1.847778	-2.029961
H	1.453463	0.723518	-1.896688
N	-0.606685	-1.127303	0.72205
H	-0.118329	-1.965906	0.424009
H	-0.355161	-1.005975	1.699293
C	-0.425939	1.285022	0.699092
H	0.096449	1.343719	1.659504
H	-1.504644	1.307021	0.884079
H	-0.133421	2.173093	0.135047
H	3.021474	0.0	0.0
