15

C	-0.435695	0.043181	-1.449846
C	0.0	0.0	0.0
Cl	-2.236431	-0.110296	-1.646602
H	1.10286	0.0	0.0
H	-0.01421	-0.827241	-1.953879
C	-0.021349	1.25935	-2.145005
N	0.2952	2.241937	-2.706255
N	-0.360128	-1.310842	0.544805
H	0.479377	-1.672567	0.990934
H	-1.073981	-1.219148	1.25883
C	-0.488201	1.175942	0.822128
H	-1.575931	1.159092	0.959173
H	-0.209104	2.126975	0.360842
H	-0.005493	1.133042	1.802019
H	2.821277	0.0	0.0
