15

C	-0.570436	-0.001411	-1.417464
C	0.0	0.0	0.0
Cl	-0.064955	1.429377	-2.384544
H	1.100362	0.0	0.0
H	-1.662736	0.038177	-1.358718
C	-0.21744	-1.213023	-2.158715
N	0.030199	-2.179282	-2.778408
N	-0.486909	-1.265576	0.589819
H	-0.639987	-1.116157	1.579926
H	0.288498	-1.919813	0.527271
C	-0.506747	1.184624	0.796339
H	-0.01569	1.182329	1.773831
H	-1.594071	1.132702	0.941766
H	-0.2559	2.12755	0.309542
H	2.906862	0.0	0.0
