15

C	-0.409465	-0.03648	-1.459597
C	0.0	0.0	0.0
Cl	-2.200845	-0.262479	-1.677655
H	1.097328	0.0	0.0
H	0.051632	-0.914564	-1.91226
C	-0.031189	1.1619	-2.205341
N	0.227047	2.136165	-2.807935
N	-0.372875	-1.275986	0.604671
H	0.39067	-1.547389	1.213344
H	-1.214716	-1.181458	1.159649
C	-0.496664	1.226123	0.743599
H	-0.164832	2.14788	0.257671
H	-0.070026	1.214236	1.750213
H	-1.590408	1.244344	0.82309
H	2.834516	0.0	0.0
