17

C	-0.105906	0.069981	-1.536191
C	0.0	0.0	0.0
Cl	-1.701895	0.786291	-2.147078
H	1.105234	0.0	0.0
N	0.991403	0.873058	-1.980874
H	1.823722	0.626233	-1.390136
H	1.180577	0.729574	-2.963735
C	-0.107576	-1.290363	-2.107759
N	-0.023049	-2.373722	-2.558009
N	-0.646278	-1.19485	0.536003
H	-0.876965	-1.020123	1.507219
H	0.035284	-1.946285	0.531102
C	-0.512228	1.260979	0.657592
H	-1.607065	1.276988	0.685818
H	-0.1571	2.135169	0.111337
H	-0.122984	1.316059	1.679644
F	2.738033	0.0	0.0
