17

C	-0.095572	-0.079656	-1.541575
C	0.0	0.0	0.0
Cl	-0.000646	1.679458	-2.266747
H	1.10505	0.0	0.0
N	0.990436	-0.873023	-1.942075
H	1.843469	-0.593432	-1.393569
H	1.132946	-0.888165	-2.942054
C	-1.378939	-0.562643	-2.069396
N	-2.409673	-0.942209	-2.487274
N	-0.536909	-1.28267	0.50224
H	-0.357318	-1.291796	1.502602
H	0.064648	-2.005949	0.116016
C	-0.706203	1.146881	0.67315
H	-0.603866	1.037348	1.75826
H	-1.775021	1.149052	0.433263
H	-0.267908	2.103354	0.394046
F	2.75043	0.0	0.0
