17

C	-0.532739	-0.076734	-1.427219
C	0.0	0.0	0.0
Cl	-0.010784	-1.600234	-2.218834
H	1.095642	0.0	0.0
N	-1.990738	-0.053973	-1.475986
H	-2.296873	0.83847	-1.101335
H	-2.292762	-0.101058	-2.444348
C	0.038298	1.01447	-2.246053
N	0.372285	1.937343	-2.893717
N	-0.418865	-1.179522	0.745376
H	-1.203412	-0.983854	1.355634
H	0.377883	-1.465383	1.301333
C	-0.420543	1.310484	0.662888
H	-0.168218	2.184332	0.053607
H	-1.492554	1.343822	0.912468
H	0.145786	1.396792	1.594074
F	2.630359	0.0	0.0
