19

C	-0.534903	-0.00488	-1.431592
C	0.0	0.0	0.0
Br	-0.059551	1.785702	-2.141537
H	1.091456	0.0	0.0
C	0.228398	-1.007153	-2.296369
H	-0.071538	-2.019729	-2.027801
H	1.304065	-0.904439	-2.150931
H	-0.003027	-0.830706	-3.349493
C	-2.038389	-0.165541	-1.594109
H	-2.293942	-0.154062	-2.656555
H	-2.333702	-1.131161	-1.176037
H	-2.585669	0.623919	-1.08411
N	-0.435507	-1.17489	0.821205
O	-0.648034	-2.238829	0.237438
O	-0.372692	-1.033818	2.04078
N	-0.432004	1.191884	0.806938
O	-1.640025	1.343802	0.988254
O	0.457306	1.915348	1.237803
Cl	2.685764	0.0	0.0
