19

C	-0.52759	0.014122	-1.442013
C	0.0	0.0	0.0
Br	-0.079483	-1.778134	-2.15948
H	1.091493	0.0	0.0
C	-2.029258	0.188188	-1.613412
H	-2.26605	0.163835	-2.679621
H	-2.5866	-0.599707	-1.110594
H	-2.333566	1.154379	-1.207909
C	0.279969	1.011595	-2.267044
H	0.058475	0.868332	-3.326983
H	0.001525	2.025457	-1.979842
H	1.3482	0.869439	-2.092574
N	-0.511731	-1.162417	0.795878
O	-1.722227	-1.172033	1.026985
O	0.292381	-2.009811	1.155548
N	-0.398928	1.203493	0.815703
O	-0.272407	1.088387	2.02931
O	-0.751463	2.227222	0.234227
Cl	3.228568	0.0	0.0
