19

C	-0.561576	0.002874	-1.412849
C	0.0	0.0	0.0
Br	0.400911	-1.459537	-2.346664
H	1.087377	0.0	0.0
C	-2.041059	-0.295304	-1.596007
H	-2.286791	-0.259302	-2.660283
H	-2.625388	0.451865	-1.058929
H	-2.301717	-1.28089	-1.213171
C	-0.157706	1.307841	-2.093213
H	-0.744363	2.129947	-1.674615
H	0.905933	1.511361	-1.951445
H	-0.361672	1.248864	-3.164806
N	-0.431532	-1.191743	0.805837
O	0.437356	-2.017211	1.066446
O	-1.605224	-1.234501	1.184267
N	-0.423982	1.186405	0.820567
O	-1.545743	1.674327	0.654697
O	0.440232	1.639139	1.56978
Cl	2.696947	0.0	0.0
