16

C	0.0	0.0	0.0
C	-0.406775	-0.424551	-1.44454
F	1.410727	0.0	0.0
H	0.538116	-0.40021	-2.000472
H	-0.263391	-0.786039	0.720735
N	-0.526022	1.280724	0.345813
H	-1.547221	1.075583	0.29917
H	-0.302143	1.455	1.3212
N	-1.364852	0.43026	-2.13724
H	-2.19915	0.385953	-1.529186
H	-1.019002	1.381703	-2.061093
C	-0.967651	-1.842706	-1.422843
H	-1.909377	-1.780197	-0.872143
H	-0.284476	-2.542599	-0.930259
H	-1.157252	-2.186786	-2.443858
F	-2.901971	0.0	0.0
