16

C	0.0	0.0	0.0
C	-0.401072	-0.104791	-1.508865
F	1.389338	0.0	0.0
H	0.544886	0.05997	-2.038882
H	-0.277979	-0.919142	0.534294
N	-0.53132	1.181942	0.600719
H	-0.324155	1.146945	1.59446
H	-1.550346	0.990245	0.498847
N	-1.369908	0.858311	-2.0157
H	-1.030542	1.780598	-1.765505
H	-2.200803	0.682992	-1.428673
C	-0.919488	-1.506011	-1.79972
H	-1.868313	-1.595312	-1.267963
H	-1.079463	-1.639205	-2.874056
H	-0.220136	-2.270001	-1.449431
F	-2.884516	0.0	0.0
