16

C	0.0	0.0	0.0
C	-0.23381	-0.057907	-1.556082
F	1.404364	0.0	0.0
H	0.062652	0.953471	-1.888717
H	-0.32774	-0.933618	0.468719
N	-0.603812	1.079687	0.693168
H	-0.510682	1.914246	0.119693
H	-1.614485	0.811763	0.653298
N	-1.572239	-0.326669	-2.057914
H	-2.267208	-0.016244	-1.342056
H	-1.687483	-1.337258	-2.037243
C	0.712078	-1.059405	-2.223646
H	0.447333	-1.127087	-3.281983
H	0.571702	-2.051929	-1.776402
H	1.76264	-0.792497	-2.128289
F	-3.044005	0.0	0.0
