18
Coordinates from ORCA-job run
  C   0.63654163437311     -0.54727185450048     -0.35435332385172
  C   -0.82313383753211     -0.05835418867134     -0.30949826603879
  H   0.64002287205563     -1.55441678709066     -0.78068971626557
  H   -1.16548936058365     -0.00840030545491     -1.35376763643298
  C   1.36325077010762     -0.51587616000465      0.97023585682223
  H   2.35532846784270     -0.96121521197233      0.87378569029382
  H   1.48652483381954      0.50241815637461      1.33400635810708
  H   0.78101663233730     -1.09110553721221      1.69035488230912
  N   1.34484860896848      0.27640184870869     -1.39177997631190
  O   2.04823130714367      1.21458013329015     -1.01974443125194
  O   1.12533314020220     -0.02148302621490     -2.56541408736336
  C   -0.96441678102946      1.31799158983878      0.32080723493921
  H   -0.75457418731761      1.27021117086160      1.39097821348749
  H   -1.98740904053017      1.68220122885226      0.19124271581154
  H   -0.29150730256285      2.04435577853588     -0.13779165483295
  N   -1.57321869973028     -1.03417348017322      0.48145980548388
  H   -2.47744593023210     -0.64874678518439      0.72769244451149
  H   -1.74290312733201     -1.86911656998286     -0.06852410941665
