18
Coordinates from ORCA-job run
  C   0.71166853572232      0.11351454399496     -0.23896215501607
  C   -0.70776240569755      0.10533218054993      0.31591325404798
  H   0.75655299062798      0.78896911087649     -1.09544340534145
  H   -0.73658205563765     -0.60457207458596      1.15481978951199
  C   1.28522051563934     -1.25641903823900     -0.56683353670678
  H   0.74020533336868     -1.71134334266765     -1.39430328313686
  H   2.33175764430766     -1.16493158500876     -0.86453284567260
  H   1.22258037904957     -1.91401056177083      0.30320558163617
  N   1.63648038138048      0.73776301651246      0.76772122545158
  O   2.54200742538633      1.44523940446863      0.33623063245128
  O   1.45668871925422      0.45673985756349      1.95353818415165
  C   -1.68708603833544     -0.34394240686041     -0.75952725643963
  H   -1.48642288871740     -1.35993711350334     -1.10124570808382
  H   -1.64577169697694      0.33664973451193     -1.61387956529304
  H   -2.70663684476451     -0.32943265648702     -0.36452168136597
  N   -1.04143168886772      1.47155153672415      0.71947098341545
  H   -0.62854022973352      1.66915117721760      1.62353312163830
  H   -2.04492807600586      1.55967821670333      0.82481666475183
