18
Coordinates from ORCA-job run
  C   0.69771869708354     -0.29167635867343     -0.40573448452601
  C   -0.79252511381395     -0.17969556933519     -0.04651603895850
  H   0.77754075661613     -0.48979151064697     -1.47765063710001
  H   -1.19657672382058     -1.18494487413921     -0.26013680690995
  C   1.43420455597273     -1.34414504662447      0.39835024410810
  H   0.96139450118938     -2.31679599799549      0.23963755772400
  H   1.42669016230444     -1.10167204928775      1.45985011936749
  H   2.47681965539215     -1.41467018033883      0.08364626274059
  N   1.35424053365076      1.04647795510976     -0.22669324305945
  O   1.20518555583066      1.85336858296713     -1.14570647700434
  O   1.97188302818656      1.26170726688468      0.81145163500717
  C   -1.54770238805314      0.81889251226136     -0.91203043180415
  H   -2.62207481448761      0.71987133891403     -0.73159382389878
  H   -1.24792845701789      1.83936083109251     -0.67218900317774
  H   -1.36321374059418      0.64863973152565     -1.97389424600345
  N   -0.92869137917624      0.20606457098269      1.35295888930600
  H   -0.72753159658252     -0.57073197942436      1.96981056596624
  H   -1.87943323268024      0.50174077672791      1.53643991822279
