17

C	-0.470904	-0.079697	-1.448858
C	0.0	0.0	0.0
Br	-0.076604	1.748108	-2.285049
H	1.091317	0.0	0.0
N	0.23877	-1.103354	-2.107409
H	0.134771	-1.035912	-3.110292
H	1.225165	-1.077772	-1.840305
N	-1.919301	-0.179909	-1.539799
H	-2.15671	-1.163986	-1.441737
H	-2.235899	0.138058	-2.448005
N	-0.396183	-1.330766	0.64019
O	-1.364987	-1.333416	1.411137
O	0.289798	-2.320598	0.393749
N	-0.527003	1.101	0.711472
H	0.028907	1.244662	1.544038
H	-1.492506	0.936169	0.957806
H	2.753239	0.0	0.0
