17

C	-0.180695	0.067752	-1.514165
C	0.0	0.0	0.0
Br	-2.10245	0.418669	-2.06943
H	1.093576	0.0	0.0
N	0.565734	1.237982	-1.908091
H	1.516821	1.091998	-1.529592
H	0.621757	1.274521	-2.920826
N	0.172842	-1.197583	-2.094633
H	1.068137	-1.468686	-1.68644
H	0.291459	-1.083302	-3.093966
N	-0.540975	-1.277496	0.543132
O	0.184482	-2.271939	0.502904
O	-1.68522	-1.260057	0.998845
N	-0.471979	1.098344	0.772891
H	-1.336501	1.464112	0.391174
H	0.238293	1.816502	0.739297
H	2.726462	0.0	0.0
