17

C	-0.169762	0.040583	-1.516998
C	0.0	0.0	0.0
Br	-2.085335	0.348009	-2.100101
H	1.094202	0.0	0.0
N	0.565708	1.214135	-1.921098
H	0.618729	1.244395	-2.934267
H	1.517427	1.075484	-1.543481
N	0.215088	-1.230024	-2.067698
H	0.329276	-1.136142	-3.071603
H	1.122973	-1.457288	-1.657234
N	-0.53969	-1.267844	0.561751
O	-1.692027	-1.244596	0.998767
O	0.190014	-2.258827	0.555385
N	-0.48323	1.108793	0.751651
H	-1.371053	1.427192	0.38116
H	0.197159	1.8528	0.661448
H	2.729593	0.0	0.0
