17

C	-0.571855	0.19472	-1.408528
C	0.0	0.0	0.0
Br	0.062771	1.965972	-2.067577
H	1.088733	0.0	0.0
N	-0.043267	-0.75483	-2.349707
H	-0.470083	-0.612883	-3.259384
H	-0.261258	-1.681803	-2.001447
N	-2.022947	0.347962	-1.315449
H	-2.39418	0.583522	-2.231044
H	-2.374806	-0.56984	-1.047844
N	-0.384181	-1.316285	0.552368
O	-0.993	-2.157911	-0.156771
O	0.017491	-1.566854	1.68836
N	-0.375394	1.013531	0.940633
H	0.438599	1.598308	1.098039
H	-1.144075	1.560066	0.576323
H	2.550076	0.0	0.0
