17

C	-0.429467	-0.086875	-1.472354
C	0.0	0.0	0.0
Br	0.007001	1.863383	-2.201499
H	1.094966	0.0	0.0
N	0.306693	-1.036409	-2.155091
H	0.183959	-0.96266	-3.155414
H	1.285366	-1.015448	-1.869687
N	-1.832853	-0.203985	-1.74095
H	-2.306386	0.470758	-1.146861
H	-2.105618	-1.142572	-1.461742
N	-0.372289	-1.261446	0.681025
O	-1.130155	-1.216573	1.666926
O	0.152203	-2.301132	0.275418
N	-0.636255	1.115174	0.667445
H	-0.853213	0.82139	1.611307
H	0.057989	1.853303	0.712582
H	2.65526	0.0	0.0
