13

C	0.0	0.0	0.0
C	-0.46399	-0.016557	-1.466246
Cl	1.762911	0.0	0.0
H	-0.190944	0.969672	-1.859703
H	-0.384321	0.864888	0.524061
H	-1.556397	-0.07511	-1.349867
N	-0.460897	-1.175644	0.807946
O	-0.582576	-0.993748	2.013717
O	-0.581148	-2.259285	0.243123
N	0.069812	-1.040792	-2.349777
H	-0.254391	-1.932929	-2.00101
H	1.082247	-1.055042	-2.300216
F	-2.571678	0.0	0.0
