13

C	0.0	0.0	0.0
C	-0.493682	0.040396	-1.429579
Cl	1.765695	0.0	0.0
H	-0.080833	-0.816183	-1.972918
H	-0.382705	0.836245	0.569431
H	-1.587977	-0.041524	-1.269836
N	-0.441455	-1.236352	0.721934
O	-0.578148	-1.147443	1.936607
O	-0.535195	-2.271363	0.070537
N	-0.12462	1.339299	-2.002715
H	-0.895255	1.67153	-2.565678
H	0.688348	1.2513	-2.598205
F	-2.647866	0.0	0.0
