13

C	0.0	0.0	0.0
C	-0.489552	-0.222375	-1.449573
Cl	1.761455	0.0	0.0
H	-1.189107	-1.051102	-1.419413
H	-0.378591	0.915268	0.43525
H	0.366873	-0.486208	-2.079564
N	-0.412504	-1.085535	0.952599
O	-0.574799	-0.757341	2.122494
O	-0.450254	-2.234099	0.525447
N	-1.210232	0.914584	-1.99644
H	-0.662135	1.758456	-1.864576
H	-2.013045	0.917529	-1.343758
F	-2.544417	0.0	0.0
