17
Coordinates from ORCA-job run
  C   -0.57881446614600      0.34007487311800      0.26685169164914
  C   0.75354918420401      0.18550210796633     -0.48614356848821
  F   -0.64900186310182      1.76711343317403      0.43891047974212
  H   0.64694298085021      0.59592704045132     -1.49725161745744
  C   -1.82237672613164     -0.03236878206628     -0.50181821660826
  H   -1.85142475277754      0.49397294560036     -1.45636614112793
  H   -1.86509694722839     -1.10406788878835     -0.67885299390399
  H   -2.69216384373606      0.27484846605124      0.08394494719118
  N   -0.47860431957969     -0.34033321426519      1.48979255702901
  H   0.37366062860933     -0.08872412431247      1.97529450544740
  H   -1.29248926615095     -0.20710808013407      2.07351292642280
  N   1.02821906872872     -1.27968093269946     -0.70983721778687
  O   1.93035716187867     -1.81341011703194     -0.07634861842652
  O   0.31260509499944     -1.82669888487284     -1.54507527084042
  N   1.80089179392255      0.74808282175425      0.32277898319842
  H   1.67021350862185      1.75042984210603      0.36021021556016
  H   2.71253276303733      0.53544049394903     -0.05960266160059
