17
Coordinates from ORCA-job run
  C   -0.60799214566888      0.47131935768572      0.22409397932577
  C   0.86667303341786      0.41052822400194     -0.24871670024959
  F   -1.14281990526332      1.61892580678056     -0.41146328530668
  H   1.15938886071273      1.41306447309130     -0.56382575960679
  C   -1.47701115429650     -0.68916255439925     -0.21594041830457
  H   -2.47214101946166     -0.56247263096415      0.21532387883625
  H   -1.57820505693612     -0.70380012873021     -1.30057901179267
  H   -1.06415422051731     -1.63784916603946      0.12717347137702
  N   -0.63219612195952      0.59062857092612      1.63437823775969
  H   0.01674526165154      1.28824393159417      1.97285156035955
  H   -1.56990612609949      0.79475580366736      1.95499736906742
  N   0.88604717018734     -0.38597813413075     -1.55812128112965
  O   1.19778722895961     -1.57247288565251     -1.49049926998347
  O   0.55281725293310      0.21729508936463     -2.57359856172030
  N   1.74652801035788     -0.08970854725815      0.73905373804058
  H   1.43121924306632     -0.97468819425749      1.11145122596961
  H   2.68721968891644     -0.18862901567983      0.38142082735785
