17
Coordinates from ORCA-job run
  C   -0.45127774329969      0.10745099981702      0.46875281912927
  C   0.70271027683853     -0.22869592676351     -0.50193099149304
  F   0.11557334021401      1.04145666099020      1.37527791073344
  H   0.33614265553439     -0.91499651970106     -1.26624999104073
  C   -1.55864620768480      0.85476610960564     -0.24681949884635
  H   -1.19098491696300      1.79262464706183     -0.66113314108313
  H   -1.98941852122097      0.24453948450230     -1.04354830090004
  H   -2.33878579940483      1.09523904505276      0.47920068504987
  N   -0.93403858795489     -1.01313261105953      1.16267069970175
  H   -1.93113172832077     -1.13216642302745      1.17586603492122
  H   -0.41715794449745     -1.87214415372206      1.07678749007768
  N   1.72670465995305     -1.02819729557450      0.27738813247603
  O   1.54340655784727     -2.24736411871523      0.33446692831994
  O   2.63138876158122     -0.41247097060499      0.82133370765537
  N   1.37346297620632      0.87819509369073     -1.09853222501502
  H   0.88878276438894      1.20444461045804     -1.92111356561661
  H   1.49226945678267      1.62845136798982     -0.43141669406965
