17
Coordinates from ORCA-job run
  C   -0.51493516374894      0.48653890004400      0.19333866577980
  C   0.91627858845698      0.12843812905409     -0.23025271660820
  F   -0.86321226058079      1.60684804988691     -0.58636903196509
  H   1.54057655370243      1.02191864803637     -0.10245753861184
  C   -1.54789836123890     -0.58547821782348     -0.06313406332979
  H   -2.51262260821131     -0.23872505195883      0.31610381807975
  H   -1.64171343858199     -0.77213696909392     -1.13003059358147
  H   -1.27103421567925     -1.51546088668494      0.43014721113654
  N   -0.45849039369708      0.81872970957809      1.57814592353338
  H   0.08142430163954      1.66548014343068      1.71761394622337
  H   -1.38849220829234      0.96249389381787      1.95109788508897
  N   0.95689597878909     -0.07627431544843     -1.73346869776335
  O   0.50441079781425     -1.12038105329996     -2.18898475518942
  O   1.44789353354901      0.84366517368167     -2.38554120715592
  N   1.34812795664408     -1.05762260076765      0.43471946692420
  H   1.04887053977366     -1.01198465572094      1.40078702739870
  H   2.35392039966157     -1.15704889673154      0.39828466004036
