17
Coordinates from ORCA-job run
  C   -0.49438300619756      0.11245100924362      0.49756184413323
  C   0.58636145652072     -0.19925604789705     -0.55868304095692
  F   0.18552186576117      0.94798618572536      1.41858394803421
  H   0.18571928418548     -0.89627716886144     -1.29696456987135
  C   -1.61226795292803      0.94010786988952     -0.09998904710661
  H   -2.09385511096598      0.40302927949479     -0.92018659113276
  H   -2.34625147207794      1.13939020334412      0.68382458312033
  H   -1.22610687159899      1.88242667299906     -0.47915586945154
  N   -1.00494587428747     -1.01085891565227      1.18093629367979
  H   -0.42579856121692     -1.83519815839911      1.15508434831123
  H   -1.96987490828715     -1.21174129145189      0.98021729997242
  N   1.69860578187205     -1.00771355405472      0.13772486584117
  O   2.72835969163513     -0.41777335381018      0.43988810691655
  O   1.47007644620823     -2.20166368058604      0.34075037552539
  N   1.07112365903972      0.98422774402444     -1.16142428566156
  H   1.77178399681044      0.78492942556927     -1.86266867414944
  H   1.47593157552712      1.58493378042252     -0.45449958720412
