17
Coordinates from ORCA-job run
  C   -0.40222911169060      0.08074597487383      0.51646635564454
  C   0.64337341569685     -0.20977810342289     -0.58334136670504
  F   0.28983588937492      0.89642452044039      1.44986613802224
  H   0.17542628015726     -0.80335960215531     -1.36960668409177
  C   -1.52709646669330      0.94176526794580     -0.02221351243435
  H   -2.05417585353136      0.43264339616402     -0.83199016961385
  H   -2.22967298397187      1.14169143800394      0.79014920046643
  H   -1.14854280944112      1.89963287177494     -0.37659281867287
  N   -0.88097326827239     -1.07968344439221      1.14409247246776
  H   -1.87775888104649     -1.15609002002323      1.23874160750140
  H   -0.41752851631779     -1.94796444250000      0.93527253825972
  N   1.68981204113349     -1.12283854079398      0.02122085977900
  O   1.44941312809031     -2.33291930185021     -0.01563723722487
  O   2.66995663740023     -0.60130127006550      0.53183848045253
  N   1.31461866260940      0.91964736205593     -1.13569731424984
  H   1.53046738709788      1.59658658744918     -0.41655749469226
  H   0.77607444940459      1.34379730649530     -1.87601105490878
