17
Coordinates from ORCA-job run
  C   -0.67863336724506      0.48577389473374      0.03206646396951
  C   0.81380858992046      0.40405886461882     -0.32304258145503
  F   -1.31105094879814      1.06175051570327     -1.06712447591692
  H   1.15287238314929      1.42014035620627     -0.52405321675732
  C   -1.35500305161033     -0.85414993945412      0.25878667351296
  H   -0.91997220609077     -1.36726217527631      1.11826184713663
  H   -2.41018062982935     -0.66642011617787      0.47145506566858
  H   -1.29075812578710     -1.49751601678187     -0.61831567245611
  N   -0.76575669761971      1.40855350609789      1.12486888940719
  H   -0.05531825893757      1.18172827649845      1.80987388499411
  H   -1.67819704680738      1.36036282449083      1.56144274420805
  N   0.95741781036500     -0.32222062282761     -1.65197308595770
  O   1.00365059015093      0.36136938727238     -2.66824080074992
  O   1.01296706271471     -1.55173396093156     -1.60301257585789
  N   1.56319472462370     -0.19772583430484      0.72937835911584
  H   1.40928061517219     -1.19923108250346      0.73567000605211
  H   2.55367855662913     -0.02847787736403      0.61095847508591
