17
Coordinates from ORCA-job run
  C   -0.54168161772950      0.01983333227260      0.39436806379951
  C   0.62436860032653     -0.10047816829725     -0.59831350421126
  F   -0.05861472780905      0.87246764691869      1.42742109576023
  H   0.31484948947086     -0.71992052986647     -1.44034578111148
  C   -1.71916690450820      0.72937004781471     -0.23686953466648
  H   -2.49593046919321      0.86717995911313      0.51923842857638
  H   -1.41211256742618      1.70250790207987     -0.61236396125299
  H   -2.12265386104543      0.13161429128682     -1.05477722899907
  N   -0.92906554099247     -1.24320711495407      0.89098458321138
  H   -1.73262114009465     -1.15646091853657      1.49857914154127
  H   -0.18836149256680     -1.72915689071913      1.37830350102589
  N   1.73054127603044     -0.92120569854126      0.08080459069290
  O   2.56858635894612     -0.30207050325077      0.73049787627225
  O   1.68690539335524     -2.14303680201568     -0.05977450286527
  N   1.06846112481677      1.17883369255871     -1.01024550485471
  H   1.40379470732602      1.69925293769095     -0.20972486636911
  H   1.80470137109356      1.11247681644574     -1.69978239654946
