17
Coordinates from ORCA-job run
  C   -0.55904706003520      0.45831728201449      0.27305517411793
  C   0.75598584606163      0.22133588492362     -0.49254242403927
  F   -0.64302145013526      1.88155398923329      0.25048148464701
  H   0.65730910778049      0.60074126748231     -1.51447187781337
  C   -1.79329282330747     -0.04286304657340     -0.43912856713703
  H   -1.85009114203668      0.37580803254609     -1.44367624702055
  H   -1.80145170589092     -1.13052754321122     -0.51106681254711
  H   -2.66650173364688      0.28937063884189      0.12577961220726
  N   -0.47775244391080      0.01563635421699      1.60534193165506
  H   0.46330153330987     -0.19403668051846      1.90568270495992
  H   -1.13408840845607     -0.70763384415036      1.84691582318591
  N   0.92758154315253     -1.26893990101741     -0.67724194866526
  O   1.48214857024079     -1.91386966353717      0.20590414214415
  O   0.45102212565426     -1.73120206744133     -1.71419777606529
  N   1.84079396300909      0.73958368469989      0.28502771413262
  H   2.71340723520007      0.70448929671781     -0.22573386130889
  H   1.63369684301057      1.70223631577294      0.52087092754689
