17
Coordinates from ORCA-job run
  C   -0.51953971894575      0.50492058527555      0.31228840104671
  C   0.72197442458071      0.38858388678973     -0.59278868605654
  F   -0.79316924286846      1.86162954458670      0.40149339651150
  H   0.50968433495062      0.85449942783005     -1.55636397261293
  C   -1.75053242641389     -0.14762318774373     -0.29038393033667
  H   -1.92642682384066      0.21094458069528     -1.30650921057957
  H   -2.61247089186651      0.11449824157148      0.32664373770326
  H   -1.65784698160759     -1.23428630425684     -0.31364524395125
  N   -0.17297756980930      0.07904391831437      1.64644786760891
  H   -0.93255215845047      0.30697771394162      2.27677097132087
  H   -0.01024257336000     -0.92033890113243      1.66928102836330
  N   0.85364683643823     -1.10434241240177     -0.94659354548187
  O   0.47202465025587     -1.45602078929371     -2.06059979941356
  O   1.31903608162032     -1.84714117121878     -0.08171878933029
  N   1.85347320375053      0.94161401583240      0.02765795103951
  H   1.93781280639727      0.63149994462703      0.98538897465308
  H   2.70610604916905      0.81554090658306     -0.49736915048444
