17
Coordinates from ORCA-job run
  C   -0.51428565395374      0.51303627114704      0.30501172701344
  C   0.73778168927541      0.37569736883995     -0.58225422615410
  F   -0.76517026548595      1.87414790890278      0.39143302242012
  H   0.54913555880648      0.84932709317630     -1.54700203164126
  C   -1.74667320042408     -0.11949699040944     -0.31578414297656
  H   -1.90011819059752      0.23981057030939     -1.33526153835651
  H   -1.67142015356178     -1.20763324394982     -0.33555901372854
  H   -2.61367747930557      0.15800408795891      0.28717869281486
  N   -0.19523735096686      0.08171785694622      1.64505525381642
  H   -0.08466484651757     -0.92450053992064      1.67770285357970
  H   -0.94688100481857      0.35419199429773      2.26718085941871
  N   0.84533536534344     -1.11778707069164     -0.93845532099463
  O   1.28398694820526     -1.87133514437458     -0.06894042907343
  O   0.48815812329941     -1.45711411183630     -2.06441429450347
  N   1.87051319783991      0.90437398107969      0.05747264326038
  H   1.93427540488995      0.58496811466099      1.01388863032304
  H   2.72794185797179      0.76459185386347     -0.45625268521820
