17
Coordinates from ORCA-job run
  C   -0.58325707711534      0.54800339750674      0.00313616302553
  C   0.88763459328658      0.21530940367631     -0.33834904593526
  F   -1.02931617407133      1.29998479478134     -1.08587060217891
  H   1.40790625951728      1.16501392100057     -0.48147721587724
  C   -1.50468392933932     -0.64128084009342      0.15322588854466
  H   -1.16812395882477     -1.31739401374750      0.94165723452536
  H   -2.49506032746848     -0.26412917626135      0.41116973636080
  H   -1.56574615362953     -1.19847177814602     -0.77892563921278
  N   -0.66915589700548      1.38140316474958      1.16097445952394
  H   0.06905896930058      2.07040177611242      1.21618455561992
  H   -0.74604765605941      0.86159896544951      2.02156082472807
  N   0.95284546519661     -0.46157335828910     -1.67630215586055
  O   0.67549133629076     -1.66037020620116     -1.68857006032099
  O   1.25578118139306      0.21975728311871     -2.64912799999630
  N   1.61335379870847     -0.60603152155370      0.58736453496319
  H   1.75579310652859     -0.12316879731310      1.46280815048669
  H   1.14252646329175     -1.48705301478984      0.74354117160384
