17
Coordinates from ORCA-job run
  C   -0.44097097287986      0.52510660432135      0.23511497936188
  C   0.99089567547997      0.10588225879507     -0.15218436836579
  F   -0.69436363774029      1.71765480719238     -0.47669739619768
  H   1.67028589940398      0.89368680305869      0.18065467535241
  C   -1.53074373290650     -0.45388848315614     -0.13455803745211
  H   -1.53020035871910     -0.64458019031019     -1.20577470174228
  H   -2.49486404955499     -0.01810340241801      0.13777313973090
  H   -1.40876691381449     -1.39432293718403      0.40196774222263
  N   -0.41894654849926      0.75506906287423      1.63950719182069
  H   -1.35322424135225      0.91109566361916      1.99694535373993
  H   0.14976623666122      1.56570819264728      1.85644702785021
  N   1.11791943408462      0.10636826201272     -1.64544131091203
  O   1.63879500043680      1.08260362500369     -2.17189827341019
  O   0.67100130038468     -0.87878686383265     -2.23183187601500
  N   1.43790192871788     -1.17139301458196      0.32819744030232
  H   1.31214492554471     -1.19548581947005      1.33284713255507
  H   0.88237005475286     -1.90661456857158     -0.09206871884094
