17
Coordinates from ORCA-job run
  C   -0.55446400300027      0.47268788476150      0.25419646129358
  C   0.73579110513648      0.24051817043547     -0.58236202641188
  F   -0.63870951550652      1.87181952601141      0.25247601265133
  H   0.58958308370972      0.69406417875521     -1.56290206865883
  C   -1.79239209860656     -0.07959761011695     -0.41247637759430
  H   -1.84755331536630      0.25121377905337     -1.45027324153135
  H   -1.80156016880303     -1.17108578780220     -0.39951872420482
  H   -2.66228754510949      0.28794975982267      0.13173389835650
  N   -0.50145371093852      0.07719218259399      1.62435076629174
  H   -0.55703162558837     -0.92735176743213      1.72321382074639
  H   0.34350503597518      0.40880857137491      2.07167821934195
  N   0.86304799260605     -1.22798721105156     -0.82306517227909
  O   0.45500427945525     -1.67166679643832     -1.89342386313175
  O   1.32190479702375     -1.89597041962131      0.10394216780132
  N   1.96812738298591      0.70637534630408     -0.01554157442902
  H   2.15417477117764      0.25456246327708      0.87033757032562
  H   1.92431353484907      1.70946773007279      0.10863413143261
