17
Coordinates from ORCA-job run
  C   -0.59112825358248      0.42135985899320      0.30283729518842
  C   0.72223752998013      0.39703107218946     -0.50763268516517
  F   -0.99030661020478      1.78074885199044      0.23933794883084
  H   0.61458888665794      1.07637691876526     -1.35185545968674
  C   -1.72275209125714     -0.38305846464555     -0.29548671413146
  H   -1.88216483722737     -0.10997027641147     -1.33752337797024
  H   -1.52014353345924     -1.45175724337750     -0.23017685678545
  H   -2.63364312994923     -0.15796128001937      0.26338353057328
  N   -0.32649958348243      0.03108663232235      1.63687641665016
  H   -1.18515849773700     -0.06079800874057      2.16369057603747
  H   0.26851281781159      0.72033119669158      2.08046321613722
  N   0.87137591972840     -0.98167020069816     -1.14863665360713
  O   1.46843134981685     -1.84128483388801     -0.50593553835046
  O   0.36414859127847     -1.13461644111702     -2.25799503275026
  N   1.83438485799050      0.74625829224373      0.30300862956696
  H   2.06858129147153     -0.03501251793563      0.90445656378194
  H   2.63953529216427      0.98293644363730     -0.26081185831937
