17
Coordinates from ORCA-job run
  C   -0.60171625488093      0.37059000953853      0.20388382792129
  C   0.81737382322858      0.31009030450880     -0.37839129707778
  F   -1.31910712782151      1.22760939229681     -0.65333056456999
  H   1.19380594117228      1.33782985277751     -0.45974547391944
  C   -1.33403938657540     -0.94983718352507      0.24558616368756
  H   -0.76852668985216     -1.68730277445949      0.81220143684986
  H   -2.31028906087505     -0.79338157734730      0.71159829062023
  H   -1.48783702497066     -1.32826478163907     -0.76199738261626
  N   -0.48163985490681      0.92935592394880      1.50964559749926
  H   -0.18054525437742      1.89592313039946      1.45446330138438
  H   -1.36714643552505      0.89341243712184      1.99876433474247
  N   0.74478826174067     -0.11961794520220     -1.83139710125229
  O   0.89108290796341      0.77556495778630     -2.66167045978644
  O   0.54736659659205     -1.30412969468788     -2.07668212998950
  N   1.61626577810415     -0.61133004865088      0.36277097714037
  H   2.60152514576010     -0.48051937524696      0.17514905857428
  H   1.43863863522372     -0.46799262761924      1.34915142079196
