17
Coordinates from ORCA-job run
  C   -0.51410004287591      0.50001874328691      0.31500920886017
  C   0.72021475255264      0.39228415765276     -0.60148976280341
  F   -0.79110866871290      1.85504616474901      0.41263595876007
  H   0.50046817892586      0.86513328545960     -1.56003796231106
  C   -1.74688650090449     -0.15826504802622     -0.27676983596738
  H   -1.93198951859259      0.19817635174479     -1.29196250278679
  H   -1.64880701312713     -1.24449132493950     -0.30053721762829
  H   -2.60460222778170      0.09993665080958      0.34756625424939
  N   -0.15438256010649      0.07321779585972      1.64735380771884
  H   -0.06588329535182     -0.93471438643801      1.68814072620650
  H   -0.87715296420581      0.36994829819325      2.29218245527252
  N   0.84908462678726     -1.09783140061985     -0.96498925055926
  O   1.31508923652951     -1.84624873787201     -0.10559204383843
  O   0.44668165731796     -1.44506447948395     -2.07330988103038
  N   1.85510573728479      0.94077613669163      0.01688190581595
  H   2.70446525814058      0.81792356591383     -0.51435369603820
  H   1.94280334412024      0.61415422701847      0.96927183607971
