17
Coordinates from ORCA-job run
  C   -0.56248363963021      0.45278597022888      0.28367385934297
  C   0.74281506661703      0.22735900586780     -0.50509290927233
  F   -0.65368150892841      1.87323391847765      0.27106066424469
  H   0.62388473017494      0.60389807952000     -1.52603982427206
  C   -1.80474351226736     -0.05510970801262     -0.40909397703799
  H   -1.80592410636281     -1.14241187069018     -0.48672541377923
  H   -2.67019964236965      0.26791241906216      0.17250576830971
  H   -1.88111087400744      0.36723307542803     -1.41082780362255
  N   -0.46133622474911      0.00637701061776      1.61512580069339
  H   0.49189549049153     -0.15411884289462      1.90920174354134
  H   -1.06757509537029     -0.76494539890568      1.83988527489090
  N   0.92933124837613     -1.25983378954259     -0.68659914266121
  O   0.42992960034494     -1.73449914398810     -1.70703181410547
  O   1.51989759580843     -1.89189308421593      0.18254298286274
  N   1.83412661374421      0.76156247762020      0.25420896781194
  H   1.63055528523270      1.73078124085647      0.46492749297481
  H   2.70361897289538      0.71066864057077     -0.26072166992165
