11
Coordinates from ORCA-job run
  C   -0.13142255312011      0.20034329924103     -0.14116997075352
  C   1.15987537109687      0.00452490399143      0.14203961534195
  H   1.88583271118704      0.72184301924806     -0.23122594410998
  N   -0.59719878205482      1.38741130688828     -0.87555232685254
  O   0.24842770892299      2.02153600560468     -1.49114891183409
  O   -1.79247240341529      1.64023898145407     -0.77030560317698
  N   -1.20409425025382     -0.71357892749132      0.23963642541651
  O   -1.42838120665259     -0.84171311599074      1.43727779572033
  O   -1.76483088255497     -1.26561592563575     -0.70142475058556
  C   1.60827893062242     -1.11819712746857      0.88963443095607
  N   2.01398535622228     -2.03879241984117      1.50123923987782
