11
Coordinates from ORCA-job run
  C   -0.12492192511291      0.21787585370444     -0.11661454166034
  C   1.17668901942461     -0.04799625667240      0.03307599136460
  H   1.90235975181909      0.66942942368323     -0.33721349971422
  N   -0.60987754773631      1.44592511833384     -0.76910271363620
  O   0.24006935881611      2.21856041261876     -1.18687972694590
  O   -1.82875031262884      1.56957850894136     -0.82987736052892
  N   -1.19816534478051     -0.66001384908685      0.33740247115921
  O   -1.60629818880142     -0.45885649346739      1.47616881079881
  O   -1.58139558127911     -1.49701115908929     -0.47268234880015
  C   1.62180559841588     -1.23955343899393      0.66922814755342
  N   2.00848517186339     -2.21793811997178      1.19849477040970
