11
Coordinates from ORCA-job run
  C   -0.11852020232944      0.22225203372537     -0.11492906728960
  C   1.17349852196591     -0.07673554959391      0.05281318778685
  H   1.92097866882266      0.62926906555353     -0.29573752248414
  N   -1.21986070924933     -0.64266078402679      0.29428795980225
  O   -1.57358406190343     -0.54901654446093      1.46475040417887
  O   -1.67717800799286     -1.36575182308566     -0.58416867314021
  N   -0.56192196968290      1.47967491291614     -0.74074809234301
  O   0.31286611702797      2.22116912228556     -1.16412832013596
  O   -1.77472124019557      1.66124554373414     -0.76763315498856
  C   1.58079054812348     -1.29021990441805      0.67234428343052
  N   1.93665233541350     -2.29022607262941      1.18214899518300
