11
Coordinates from ORCA-job run
  C   -0.26130089551088     -0.07956134269977     -0.06263210225190
  C   0.81566162337525     -0.78383476008339      0.30095294489873
  H   0.73108984407498     -1.86463345088472      0.36743892118160
  N   -0.26673147085610      1.36847382335457     -0.25473710755082
  O   -0.02724966369664      2.06345728757729      0.72597930445501
  O   -0.50568482958922      1.73093655020168     -1.40200515114647
  N   -1.56634155221467     -0.71287275467684     -0.30048868190521
  O   -2.53712808880750      0.03297758909483     -0.22864750056883
  O   -1.56416348220107     -1.91699235626968     -0.51581875594677
  C   2.06589652366028     -0.16352200147353      0.57339965103937
  N   3.11395199176555      0.32457141585956      0.79555847779530
