11
Coordinates from ORCA-job run
  C   -0.14035997630646      0.21017009230396     -0.11597669335309
  C   1.14806072851191     -0.14534841710361     -0.15123561727333
  H   1.83295725961947      0.46215098476120     -0.73552751369044
  N   -1.18638615258729     -0.54322306705554      0.57098797316298
  O   -1.06711636121916     -0.68867186815589      1.78220628884898
  O   -2.07577287868631     -0.96567173163704     -0.16054711445229
  N   -0.62745946818397      1.42893987973585     -0.78097061227706
  O   0.07294558461828      1.88898581105688     -1.67206583403313
  O   -1.67965914973838      1.88358926599114     -0.34519941401015
  C   1.64051515191715     -1.29230660172626      0.53005693599193
  N   2.08127526205477     -2.23761434817069      1.07627160108559
