11
Coordinates from ORCA-job run
  C   -0.26985201332860     -0.07701058703564     -0.05749923469440
  C   0.78977107608030     -0.79737201153485      0.32305587445911
  H   0.68717084939315     -1.87463133358882      0.42303430937144
  N   -0.22253454734367      1.36391389226259     -0.29080436078877
  O   -0.27251706526342      1.69872761592600     -1.46898382631792
  O   -0.12460634040809      2.07827778302596      0.70065201810800
  N   -1.59205218975501     -0.67730028008783     -0.28335764876841
  O   -2.52216571590098      0.11276897212906     -0.41369277755218
  O   -1.64678724553317     -1.89930526395165     -0.28319288157799
  C   2.05510453795953     -0.19345218574268      0.56490044498156
  N   3.11746865409995      0.26438339859783      0.78588808277956
