11
Coordinates from ORCA-job run
  C   -0.24779586259118     -0.08506424742841     -0.08118971484732
  C   0.87227777242626     -0.75084950463850      0.21841863458887
  H   0.86374064558959     -1.83271998883517      0.12848668377915
  N   -0.37866054027969      1.36771318708518     -0.06376996529760
  O   -0.28582862689679      1.92351397865349      1.02496078557880
  O   -0.55961900232312      1.87821400934399     -1.16485773706321
  N   -1.48697408779627     -0.78428192403866     -0.46435777189022
  O   -1.37885439313726     -1.95467334705571     -0.80135401147293
  O   -2.51706963152506     -0.12518892603276     -0.37181261225162
  C   2.05951567048612     -0.08356995160028      0.62669964684494
  N   3.05926805604739      0.44790671454683      0.94877606203112
