11
Coordinates from ORCA-job run
  C   -0.11636062772002      0.18412229495066     -0.16579971135142
  C   1.14864389895208      0.05163823918587      0.24498569961636
  H   1.88829466065731      0.75671210887805     -0.12335465225420
  N   -0.52359478109348      1.22914932604058     -1.12174860984557
  O   -1.67106781608250      1.14526722978513     -1.54677543756272
  O   0.31760912240196      2.06760262764877     -1.41112265910066
  N   -1.21634133813347     -0.67305393433278      0.25993053324097
  O   -1.98155180388238     -0.17464054169417      1.07842834465880
  O   -1.26623048801083     -1.78775780798229     -0.24836510331642
  C   1.53998642096431     -0.98026181414012      1.14094308504552
  N   1.88061275194701     -1.81977772833969      1.89287851086935
