11
Coordinates from ORCA-job run
  C   -0.15297886299661      0.22416179060537     -0.06435367122469
  C   1.15734925441353     -0.02773645378677      0.03496231858399
  H   1.85162724191429      0.76303622242029     -0.23116388813895
  N   -0.64172871711387      1.49556546687260     -0.61342963932737
  O   0.07636087376022      2.47657169211276     -0.47285171618864
  O   -1.70849319395905      1.42956334195698     -1.21571711993087
  N   -1.21150501248829     -0.70606063510148      0.32100238142191
  O   -1.14587014086627     -1.84561981289705     -0.12476745751765
  O   -2.05750541981564     -0.23680903724122      1.07677261745566
  C   1.67772498620986     -1.27627757867773      0.47528278606450
  N   2.15601899094183     -2.29639499626374      0.81626338880211
