11
Coordinates from ORCA-job run
  C   -0.27269526939895     -0.05463757083099     -0.01840076919276
  C   0.82875900292759     -0.79219156911610      0.16330218201373
  H   0.71874296988223     -1.87106818165898      0.21431356425779
  N   -0.30370685280213      1.40564927401890     -0.03755146993504
  O   -1.13690285004131      1.91170112629312      0.70845034488090
  O   0.49871357926709      1.97350283119768     -0.76923235785913
  N   -1.57970008883815     -0.68547749077780     -0.24452056836725
  O   -2.34708187128966     -0.05531562695944     -0.96468291909246
  O   -1.75941926724876     -1.78991050444897      0.25068733359773
  C   2.12799962638721     -0.22907237605490      0.29865787195206
  N   3.22429102115484      0.18782008833748      0.39797678774444
