11
Coordinates from ORCA-job run
  C   -0.26098566908800     -0.08700660855098     -0.04274314579182
  C   0.89371291058690     -0.74014345535451      0.12368065914140
  H   0.87930109150079     -1.82550067848753      0.10782038625037
  N   -0.40334964472830      1.36556208272801      0.01861436383172
  O   -1.14113828511486      1.76932189590921      0.91120845839926
  O   0.22756913660472      2.02410357135291     -0.80057372337295
  N   -1.52198787232463     -0.79608133071706     -0.30930776157452
  O   -1.56748821925830     -1.97805539000887      0.00309196284723
  O   -2.39795316075076     -0.13149714199751     -0.85180386658711
  C   2.12720341359724     -0.06410676616414      0.33168973805905
  N   3.16511629897517      0.46240382129046      0.51032292879737
