11
Coordinates from ORCA-job run
  C   -0.14062001606694      0.20669602099476     -0.12202759283266
  C   1.12577515820066     -0.20999728672547     -0.22384769159607
  H   1.78724631877626      0.31607336376657     -0.90579175741115
  N   -0.62887989745443      1.38897908315556     -0.84895294934503
  O   0.01885860736558      1.74383462388009     -1.82403323102261
  O   -1.62605672706435      1.92448436660907     -0.37714550278869
  N   -1.15851970998013     -0.43945893114242      0.70234470300061
  O   -2.11854420061005     -0.87940041939694      0.07828058649271
  O   -0.95008776030742     -0.49128954454717      1.90918186419865
  C   1.62332072962243     -1.32075060523441      0.51163428590508
  N   2.06750749751840     -2.23917067135962      1.09935728539916
