11
Coordinates from ORCA-job run
  C   -0.13132150924322      0.20155953160380     -0.14188908956193
  C   1.15950224613833     -0.02475203515550      0.12126038727611
  H   1.89723929408767      0.67691535778191     -0.25651555422359
  N   -0.57764891648150      1.40523325441526     -0.86111893927368
  O   0.26430467146157      1.99637385087846     -1.52398889618486
  O   -1.75004677720808      1.71983401950936     -0.68558050708057
  N   -1.21982372240382     -0.68835195449398      0.25082882378635
  O   -1.38785545750815     -0.87372315149125      1.45085408750097
  O   -1.84538628162314     -1.17350348842893     -0.68739813148040
  C   1.59674004849839     -1.15524155223737      0.86635106198434
  N   1.99429640428195     -2.08534383238175      1.46719675725726
