11
Coordinates from ORCA-job run
  C   -0.13785631539332      0.19653940998672     -0.13991861119223
  C   1.15290278276117      0.04735416395424      0.17542107486915
  H   1.85194806643178      0.81417259262187     -0.14494461373529
  N   -1.20010292329902     -0.71635443559553      0.27401536570673
  O   -2.06473790682799     -0.20800784383795      0.98008506517121
  O   -1.11674590670690     -1.87921151355405     -0.10452404384267
  N   -0.61043241121481      1.32344594652940     -0.95964927119216
  O   -1.67923868939042      1.14691011034064     -1.53426756952027
  O   0.11611664174051      2.30566844391861     -1.01909535582446
  C   1.63003362604518     -1.06381697901347      0.92363905120743
  N   2.05811303585380     -1.96469989535049      1.54923890835255
