11
Coordinates from ORCA-job run
  C   -0.25261412469277     -0.08526829224136     -0.07194353863845
  C   0.82748071121581     -0.79265355864024      0.27450291180372
  H   0.75568679981818     -1.87549196736385      0.29816275065796
  N   -0.29406360800277      1.37147729835193     -0.13498414474315
  O   -0.67329850964248      1.93646672513724      0.88518827544531
  O   0.04357457784377      1.87231875130095     -1.20227753757302
  N   -1.53124699739229     -0.72262990790952     -0.43030441770878
  O   -2.43358116750276      0.04193055651488     -0.75562921119875
  O   -1.57164480359222     -1.94302951295824     -0.37395409364509
  C   2.05355594337148     -0.15631492979294      0.61303487076959
  N   3.07615117857604      0.35319483760114      0.89820413483067
