11
Coordinates from ORCA-job run
  C   -0.13033726543118      0.21543757282054     -0.11326950492319
  C   1.17122331334111      0.02707700418537      0.12659200735436
  H   1.86973566236382      0.81354687184460     -0.14157663881946
  N   -0.64766765974727      1.44655619850432     -0.73463133058246
  O   0.17194518732781      2.31254232554603     -1.00380378014524
  O   -1.85910676486217      1.47781353429416     -0.92444773613299
  N   -1.17222902438785     -0.75451234147449      0.20544712374869
  O   -1.70565273082038     -0.61977829029386      1.30138867104924
  O   -1.40900975570341     -1.59128282717431     -0.65924543298164
  C   1.64939561212671     -1.17162830382777      0.72411942865844
  N   2.06270342579281     -2.15677174442458      1.21942719277425
