11
Coordinates from ORCA-job run
  C   -0.13628644799204      0.22647829803261     -0.08613820319315
  C   1.16465149310500     -0.05078608168617      0.04899688614515
  H   1.88473595457791      0.72137643458108     -0.20497937926368
  N   -0.60297587517164      1.51116286639227     -0.63087681411851
  O   -1.73432026326919      1.50471312843895     -1.10385097400743
  O   0.18553208205552      2.44561355357270     -0.59338576528879
  N   -1.21730824377884     -0.68689937472270      0.27503842874741
  O   -1.96559130920187     -0.27161653334600      1.15379713586511
  O   -1.26052935227980     -1.76167240222089     -0.31286661205585
  C   1.63006980451625     -1.30671186771794      0.52709152051759
  N   2.05102215743870     -2.33165802132389      0.92517377665216
