11
Coordinates from ORCA-job run
  C   -0.24831410192449     -0.08390716677349     -0.09231524672301
  C   0.80207216784783     -0.74504273299516      0.40488292825240
  H   0.73404013477161     -1.82501520922421      0.49612735517419
  N   -0.32652889193792      1.36943018202637     -0.21548431739495
  O   0.50826507024958      1.91544580984501     -0.92791877506780
  O   -1.22828762923366      1.89000316073345      0.43291431317163
  N   -1.44749582939030     -0.78514054767026     -0.57718933461737
  O   -2.13688616334289     -0.16148443861850     -1.37691191262197
  O   -1.62361676995580     -1.92460562468590     -0.16873285224153
  C   1.98675469735518     -0.08287859934438      0.82958072909707
  N   2.97999731556088      0.43219516670708      1.19604711297133
