11
Coordinates from ORCA-job run
  C   -0.12488819997908      0.21129997936361     -0.12933677527470
  C   1.16458935309041     -0.10813055163652      0.02397859813398
  H   1.91199191120607      0.53781422165341     -0.42697896229021
  N   -1.23903215770664     -0.59152595682506      0.36804671390440
  O   -1.30836220417957     -0.76132899311868      1.58019178955531
  O   -1.98960846695695     -1.02038305890314     -0.50231214830913
  N   -0.54434590381418      1.43584656062958     -0.82652780484683
  O   -1.66777364900216      1.84368072825980     -0.55078392792670
  O   0.26947644828186      1.94571264386059     -1.58452163891462
  C   1.57757954354471     -1.26746548880946      0.73615889493896
  N   1.95037332551553     -2.22452008447413      1.31208526102955
