11
Coordinates from ORCA-job run
  C   -0.13206597095644      0.22505263297929     -0.09471472885831
  C   1.16339993644199     -0.09386325768847     -0.00666138761434
  H   1.89564193431193      0.62976513727455     -0.35241132152862
  N   -0.58053674764422      1.48564286692365     -0.70703072239884
  O   -1.73514926040249      1.49078555626119     -1.12006261392373
  O   0.24199321869718      2.38828474331616     -0.77754638575555
  N   -1.22459274856114     -0.61651170748362      0.38631844481332
  O   -1.90884154206971     -0.11078549280349      1.26986530163955
  O   -1.33869134184377     -1.72727134571777     -0.11941827451673
  C   1.60789705247274     -1.33076730456016      0.53627805251717
  N   2.01194546955394     -2.34133182850132      0.98538363562609
