11
Coordinates from ORCA-job run
  C   -0.13970767018501      0.21946944772540     -0.10124825414787
  C   1.14135036171063     -0.15677126083889     -0.17464734919106
  H   1.83080361924933      0.47508511887772     -0.72697849355967
  N   -1.19177685941959     -0.55777787270022      0.55050914418870
  O   -2.09826345191284     -0.91418867208722     -0.19452005556878
  O   -1.05524213303870     -0.79019289540698      1.74591631350960
  N   -0.60846302005598      1.48538288055178     -0.68457142908248
  O   0.09042165910962      1.98588011279059     -1.55543630514849
  O   -1.64201156680073      1.93747614284181     -0.20244599550083
  C   1.62000287148794     -1.35050787553300      0.43100134896323
  N   2.05188618985532     -2.33485512622099      0.91142107553766
