11
Coordinates from ORCA-job run
  C   -0.12446304367008      0.21764328871310     -0.11530112886500
  C   1.17349351404302     -0.02329753644922      0.09471155096757
  H   1.89874181338592      0.72055240776067     -0.22047466575653
  N   -0.60335300888690      1.45832367536359     -0.74869639054175
  O   -1.82119601472514      1.57388552470076     -0.83799978823460
  O   0.25037956323193      2.25131156018966     -1.11815568654732
  N   -1.19936776484434     -0.69882074562473      0.24991634168324
  O   -1.56725961891658     -1.46292130170329     -0.63597908477830
  O   -1.62495402931322     -0.59916674170927      1.39547893792860
  C   1.61554667330367     -1.22473972010635      0.71399759157567
  N   2.00143191639172     -2.21377041113493      1.22350232256842
