11
Coordinates from ORCA-job run
  C   -0.26169838938726     -0.06992297707632     -0.06067700880002
  C   0.89116366540930     -0.74578198568540     -0.10016191860792
  H   0.86758905191711     -1.78352291654041     -0.41953169195868
  N   -0.37983930354176      1.34326061878917      0.28829035171731
  O   -0.84301262561992      2.05250698165114     -0.59881714335039
  O   -0.00003145672215      1.67618460580896      1.40520568019338
  N   -1.54879293154314     -0.71558370730774     -0.36405070950869
  O   -1.50789816971792     -1.74602822093792     -1.02181495214044
  O   -2.53846700064359     -0.16825428596041      0.10999128396185
  C   2.13634939444830     -0.15112751493141      0.24320166660604
  N   3.18563776540103      0.30726940219033      0.51736444188756
