11
Coordinates from ORCA-job run
  C   -0.26267939329304     -0.05579938144027     -0.06885402066620
  C   0.86642107551299     -0.77006524826844     -0.11069311792552
  H   0.81876628715792     -1.78146692551784     -0.50413776550740
  N   -0.34798502283394      1.33603058710592      0.36630368672739
  O   0.03522153878852      1.59042916295759      1.50259454225259
  O   -0.78552316990690      2.11071508897169     -0.47778916910605
  N   -1.55786577126674     -0.63554338270970     -0.46033256975281
  O   -2.54534801489161     -0.10237507581118      0.03355215375681
  O   -1.52610880889996     -1.60729433319842     -1.20259396803121
  C   2.12199304064111     -0.24432434325943      0.30056787178303
  N   3.18110823899164      0.15969385117007      0.61938235646938
