11
Coordinates from ORCA-job run
  C   -0.11885050400445      0.21399651172077     -0.12877555454158
  C   1.17249701545574     -0.10059402395888      0.01438550125130
  H   1.91933734163319      0.55578014332556     -0.42154384947512
  N   -1.22074523350028     -0.58584303875574      0.39472667418467
  O   -1.73754549871495     -1.35950671597395     -0.40418540893393
  O   -1.51631231986033     -0.39437660137467      1.56940110183964
  N   -0.55985773811544      1.42518626402526     -0.84140162265955
  O   0.31267688608721      2.10742789642738     -1.35853994836788
  O   -1.76871339901992      1.63343036461691     -0.83771890744880
  C   1.58047620090459     -1.26734788610999      0.71753918619155
  N   1.93803724913466     -2.22915291394264      1.29511282795970
