11
Coordinates from ORCA-job run
  C   -0.13824036954941      0.20654565460251     -0.12283120280145
  C   1.13472383967363     -0.19381550593979     -0.20549474865379
  H   1.80576999504283      0.35701816091557     -0.85782436402386
  N   -1.16805425093497     -0.47056392451468      0.66072745612265
  O   -2.10070075737859     -0.91813296181939      0.00164365853348
  O   -0.99571235178708     -0.53475963501618      1.87265679934662
  N   -0.62281527100608      1.40264872875654     -0.82955989154215
  O   0.04916602267318      1.79655738369510     -1.77272701093668
  O   -1.64372338667415      1.90762527898077     -0.37502520250319
  C   1.62585797763302     -1.31759946536437      0.51435993120580
  N   2.05272855230760     -2.23652371429609      1.11407457525257
