11
Coordinates from ORCA-job run
  C   -0.12729093240510      0.20252692089930     -0.14156102405798
  C   1.16168561300655     -0.07381092591990      0.08166612096255
  H   1.91109107816936      0.58282700406116     -0.35044823528842
  N   -1.24063108056165     -0.62298075913472      0.31954404281182
  O   -1.35420703261108     -0.78278982243061      1.52948520069854
  O   -1.94199729662105     -1.08218373209996     -0.57608352220867
  N   -0.54624188959297      1.39996076140501     -0.88677277983779
  O   0.28799356375142      1.91485332106783     -1.61839987338780
  O   -1.68996576763973      1.78445319014613     -0.66827354520799
  C   1.57824694997991     -1.19920541507546      0.84452685454257
  N   1.96131679452433     -2.12265054291878      1.46631676097318
