11
Coordinates from ORCA-job run
  C   -0.12610696350124      0.19006679128231     -0.15785052337503
  C   1.15197695277583      0.01763941242753      0.19518444269564
  H   1.88816241889185      0.72346455548861     -0.17781731983879
  N   -0.53761801225631      1.25587337405159     -1.08515987286924
  O   0.23291748977718      2.19585422697881     -1.22276612003522
  O   -1.60655908956629      1.07413784808662     -1.65800974930526
  N   -1.23270406806569     -0.63738073948921      0.31498206624091
  O   -2.08107851051504     -0.03410938485484      0.96381715925513
  O   -1.19786132987237     -1.83028335584674      0.03520523088152
  C   1.56860086899447     -1.04076729095035      1.04871055063706
  N   1.94027024333761     -1.91549543717434      1.74370413571329
