11
Coordinates from ORCA-job run
  C   -0.25481999782370     -0.10097799981361     -0.04581336035768
  C   0.93703073679050     -0.68839839456658      0.10393266377034
  H   0.98671921825373     -1.77184591797784      0.04931976633317
  N   -1.46784104892072     -0.87624079320536     -0.34985757013323
  O   -1.44014909579431     -2.07016492783105     -0.08452924546918
  O   -2.38068281845793     -0.24728309853827     -0.87472082879428
  N   -0.48604999873608      1.33698135940445      0.06165278571352
  O   -1.25003298617095      1.66682549134843      0.96293906522441
  O   0.10603974098758      2.05857716256331     -0.73304815417741
  C   2.12464395947300      0.05399702373793      0.35059443127281
  N   3.12514229039887      0.63853009487859      0.55953044661753
