11
Coordinates from ORCA-job run
  C   -0.13249514365659      0.19952947243014     -0.13597024407592
  C   1.16413755379606     -0.04345901530526      0.08189162501557
  H   1.89118976337593      0.64561307158942     -0.33808983173449
  N   -0.58424988171689      1.39559151267961     -0.86639843857795
  O   0.23821398021151      1.94793239590992     -1.58346583542514
  O   -1.74147631994055      1.73988506429983     -0.65080633922917
  N   -1.22471845551041     -0.66309291751531      0.30739311189683
  O   -1.35187543150947     -0.82648982413866      1.51551448541333
  O   -1.89631682845402     -1.14390123814049     -0.59910528141687
  C   1.61371884768785     -1.16507164980477      0.83065336642868
  N   2.02487191571660     -2.08553687200442      1.43838338170513
