11
Coordinates from ORCA-job run
  C   -0.12593845676222      0.22939449390138     -0.09261277228209
  C   1.15558869938239     -0.14875071086711     -0.04418565867815
  H   1.90802050959657      0.53790116127523     -0.42063697666297
  N   -1.24040527510918     -0.55393655098970      0.43502508502708
  O   -1.40576590536622     -1.67560093202547     -0.03081433887397
  O   -1.88703352451235      0.00551315135101      1.31444910803458
  N   -0.53428117952343      1.50350607602627     -0.70460422466636
  O   0.32077042684425      2.37416817534810     -0.79047645945460
  O   -1.69291447150332      1.54991796649661     -1.10341004291917
  C   1.56254535225170     -1.39955054915997      0.49645990645771
  N   1.93841382470181     -2.42256228135634      0.94180637401794
