11
Coordinates from ORCA-job run
  C   -0.13368344625472      0.22098679520406     -0.09675259563722
  C   1.15832690680287     -0.10969285264605      0.00056449778729
  H   1.89742141773407      0.60799994312213     -0.34596705316848
  N   -1.24234654813024     -0.60139817112692      0.38116485603493
  O   -1.98382814085198     -0.04401872407707      1.18341049123873
  O   -1.30975728340071     -1.75000401015270     -0.04128178797751
  N   -0.55651062855919      1.49010059513737     -0.71016829827398
  O   -1.67607975301334      1.48427811147274     -1.20968127428154
  O   0.25017174482830      2.40992147301267     -0.69418702903103
  C   1.59677973354449     -1.34936946167606      0.54121514695046
  N   1.99950599730046     -2.35980369827019      0.99168304635834
