11
Coordinates from ORCA-job run
  C   -0.26261065285529     -0.06512357844652     -0.06075259838806
  C   0.85652548492045     -0.79468290868000     -0.00735076758933
  H   0.79218738328807     -1.85570747878798     -0.22921163642970
  N   -1.57267244311582     -0.67315488591755     -0.34088808085713
  O   -1.56886313890905     -1.75719956239863     -0.90778408375366
  O   -2.54373769945847     -0.04171704382560      0.06159436897310
  N   -0.31995010139901      1.37888723447795      0.15395186156630
  O   0.05832319593067      1.79782639304310      1.24219503510355
  O   -0.73705049595289      2.02235291260203     -0.80336747529589
  C   2.11965041491135     -0.22717442892285      0.31678242543513
  N   3.17919805263999      0.21569334685606      0.57583095123569
