11
Coordinates from ORCA-job run
  C   -0.13825282480912      0.20531600489276     -0.12500150903524
  C   1.13815806223181     -0.18782400785062     -0.18629830592498
  H   1.81853985706465      0.36539428417732     -0.82674269008693
  N   -1.17751737966775     -0.47496291647746      0.64421323303413
  O   -1.00904016480466     -0.56380475964261      1.85525629560401
  O   -2.11406561269194     -0.89939744208334     -0.02451860043126
  N   -0.61853965919911      1.39687793749730     -0.84191761999004
  O   0.05279991515025      1.77894140716852     -1.79052725521392
  O   -1.63320065520072      1.91298234253358     -0.38609877763315
  C   1.62577057471878     -1.30531452873818      0.54583259365387
  N   2.05634788720781     -2.22920832147729      1.13480263602352
