11
Coordinates from ORCA-job run
  C   -0.14187270973181      0.20941202021618     -0.11843904006350
  C   1.12971555078795     -0.19715388414587     -0.20293515072531
  H   1.80379066072483      0.36630248417835     -0.84095031727157
  N   -1.17724064921961     -0.47714223968323      0.64918585174567
  O   -0.98113391625244     -0.61170258133061      1.85175679331281
  O   -2.13230012304216     -0.86961181247338     -0.01268438402092
  N   -0.60793773892542      1.42938682054118     -0.80000202415384
  O   -1.60969424622037      1.94914883166091     -0.32051900459383
  O   0.05861384306998      1.82375680085639     -1.74587779512813
  C   1.61250165404548     -1.33840332175162      0.49365689714597
  N   2.04555767476358     -2.28299311806831      1.04680817375264
