15

C	-0.519704	-0.002919	-1.426828
C	0.0	0.0	0.0
F	0.161378	0.906937	-2.222584
H	1.089447	0.0	0.0
H	-0.309049	-0.901983	0.528246
C	-0.252959	-1.350371	-1.983388
N	-0.090774	-2.427082	-2.423031
C	-2.007413	0.293572	-1.567771
H	-2.29386	0.235919	-2.62031
H	-2.594757	-0.428064	-0.996038
H	-2.195333	1.29999	-1.19767
N	-0.439701	1.128747	0.783655
O	-0.552124	0.960575	2.008105
O	-0.540829	2.234617	0.225249
H	2.555119	0.0	0.0
