15

C	-0.44694	0.011036	-1.433906
C	0.0	0.0	0.0
F	-1.850025	-0.086684	-1.524018
H	1.088523	0.0	0.0
H	-0.332672	-0.918043	0.483292
C	-0.070518	1.222908	-2.185872
N	0.227381	2.116191	-2.886128
C	0.171139	-1.196525	-2.117667
H	-0.092953	-1.207903	-3.176894
H	-0.207211	-2.104743	-1.642681
H	1.25703	-1.146166	-1.986142
N	-0.49301	1.103476	0.811924
O	-0.634726	2.210528	0.285008
O	-0.650921	0.881715	2.018501
H	2.633992	0.0	0.0
