15

C	-0.45171	0.088292	-1.439553
C	0.0	0.0	0.0
F	0.064061	-0.959348	-2.189507
H	1.088558	0.0	0.0
H	-0.30461	0.887367	0.556081
C	-1.924385	0.047029	-1.581456
N	-3.091916	0.119999	-1.690336
C	0.110293	1.376628	-2.02278
H	-0.337089	2.251666	-1.546595
H	-0.091021	1.406644	-3.095778
H	1.188845	1.36772	-1.837874
N	-0.50838	-1.154067	0.733064
O	-0.93089	-2.12771	0.099313
O	-0.413711	-1.10857	1.963121
H	2.659247	0.0	0.0
