15

C	-0.28701	-0.019668	-1.488011
C	0.0	0.0	0.0
Br	0.127898	1.749215	-2.218189
H	1.093023	0.0	0.0
H	-0.416401	0.882473	0.483876
C	0.559223	-1.061597	-2.176834
H	1.574625	-0.879937	-1.810796
H	0.236209	-2.054328	-1.852987
H	0.489546	-0.997621	-3.259498
N	-1.776718	-0.196226	-1.780292
O	-2.095777	-0.88497	-2.747383
O	-2.563026	0.373005	-1.0302
C	-0.51333	-1.207687	0.619436
N	-0.925404	-2.191151	1.115229
F	2.577084	0.0	0.0
