15

C	-0.480166	0.032413	-1.438285
C	0.0	0.0	0.0
Br	0.336824	-1.434758	-2.42312
H	1.090094	0.0	0.0
H	-0.332824	0.913158	0.500777
C	-1.985067	-0.021934	-1.640043
H	-2.373383	-0.943573	-1.206985
H	-2.440384	0.830916	-1.126309
H	-2.233879	0.012487	-2.702545
N	-0.041989	1.35236	-2.08161
O	0.034743	1.400433	-3.305466
O	0.072837	2.314499	-1.326856
C	-0.548051	-1.148823	0.688384
N	-1.000248	-2.075963	1.254151
F	2.525591	0.0	0.0
