15

C	-0.543016	0.031161	-1.412959
C	0.0	0.0	0.0
Br	0.280905	-1.435959	-2.408545
H	1.089975	0.0	0.0
H	-0.291543	-0.966878	0.427362
C	-2.050335	-0.069661	-1.542817
H	-2.353918	-0.084912	-2.588333
H	-2.508228	0.788786	-1.041889
H	-2.386592	-0.983992	-1.050829
N	-0.113881	1.316604	-2.128004
O	0.631567	2.082087	-1.530923
O	-0.579352	1.4991	-3.252415
C	-0.589612	1.052904	0.805269
N	-1.082187	1.906828	1.447516
F	2.529036	0.0	0.0
