15

C	-0.226658	0.025965	-1.490976
C	0.0	0.0	0.0
Br	-2.121798	0.299317	-1.999071
H	1.09276	0.0	0.0
H	-0.298954	0.982828	0.377998
C	0.665305	1.087567	-2.100275
H	1.665125	0.879072	-1.690579
H	0.636275	1.051326	-3.187225
H	0.338883	2.069992	-1.755747
N	0.145923	-1.313385	-2.132704
O	0.205634	-1.338234	-3.35854
O	0.35853	-2.264681	-1.392027
C	-0.675699	-1.018947	0.771652
N	-1.219708	-1.797551	1.46339
F	2.585441	0.0	0.0
