15

C	-0.566498	0.022654	-1.404118
C	0.0	0.0	0.0
Br	0.233564	-1.454829	-2.406732
H	1.089954	0.0	0.0
H	-0.293373	-0.959903	0.441944
C	-2.076287	-0.07429	-1.506602
H	-2.398786	-0.094947	-2.546099
H	-2.405983	-0.983671	-1.000928
H	-2.521432	0.79022	-1.003354
N	-0.141335	1.300213	-2.136144
O	0.634057	2.057725	-1.563378
O	-0.635399	1.483391	-3.249334
C	-0.574011	1.068426	0.800507
N	-1.049126	1.934373	1.439934
F	2.524688	0.0	0.0
