15

C	-0.254193	0.008812	-1.492619
C	0.0	0.0	0.0
Br	-0.00031	1.806847	-2.214952
H	1.094117	0.0	0.0
H	-0.317392	-0.973377	0.387994
C	0.722391	-0.941317	-2.158991
H	1.706349	-0.69704	-1.732763
H	0.463967	-1.964899	-1.865496
H	0.686728	-0.858018	-3.243495
N	-1.684472	-0.376088	-1.875001
O	-2.494022	-0.536634	-0.964358
O	-1.926039	-0.534904	-3.069076
C	-0.623474	1.055736	0.766274
N	-1.102515	1.915719	1.407705
F	2.60306	0.0	0.0
