14

C	-0.267201	-0.113159	-1.478107
C	0.0	0.0	0.0
Cl	-2.034622	-0.940299	-1.759242
H	1.092443	0.0	0.0
H	-0.364993	-0.881549	0.529052
H	-0.440402	0.90249	0.432141
N	-0.270063	1.14303	-2.111609
H	-0.45984	1.06501	-3.101697
H	-0.932647	1.773753	-1.681115
C	0.736149	-1.048325	-2.118507
H	0.58002	-2.067395	-1.762458
H	0.662945	-1.038675	-3.210476
H	1.715528	-0.702998	-1.753443
F	2.758013	0.0	0.0
