14
Coordinates from ORCA-job run
  C   -0.41875140263035      0.10695726895528      0.62695664817150
  C   0.65298067135583      0.95783904561668     -0.05800046030443
  Cl  -1.39988503111625      1.28099819891007      1.57890847297451
  H   1.36988599086156      1.34560291789451      0.66764002273604
  H   0.18813869475673      1.77524171155944     -0.60556174615663
  C   -1.32480554500664     -0.59679792735324     -0.37477029142062
  H   -0.75703731014362     -1.34928158228135     -0.92539683133417
  H   -2.14313639382658     -1.09126579683002      0.14862585036277
  H   -1.74085193483252      0.13282476019670     -1.07241094238162
  C   0.15129405154229     -0.84652163450177      1.57869094005644
  N   0.56462561448044     -1.61898852543154      2.36121417992085
  N   1.42437159929188      0.16267780595508     -1.06105955581195
  O   1.57493867812605      0.66664293795398     -2.17065296338548
  O   1.85823231714118     -0.92592918064382     -0.69418332342722
