14
Coordinates from ORCA-job run
  C   -0.43255484910105      0.14332912899370      0.60204818706026
  C   0.69665815014713      0.94036279349581     -0.06065439844671
  Cl  -1.32231185241743      1.33909320974594      1.60869411720102
  H   1.37166891780477      1.35003599222199      0.68881190262444
  H   0.27013639517498      1.72299302928673     -0.68622317729552
  C   -1.39656880258412     -0.47578327589395     -0.40154122327277
  H   -0.88777797147123     -1.23298312612687     -0.99994942316610
  H   -2.22698148726932     -0.94257460748504      0.12872213195074
  H   -1.78483997665763      0.29823242780687     -1.06524577365349
  C   0.10866003078673     -0.88198579552166      1.49492098627066
  N   0.52173289697319     -1.73068731768301      2.19465549131735
  N   1.50069542073195      0.05145006075772     -0.94898626668063
  O   1.13594948268126     -0.04009622423796     -2.12029914462807
  O   2.44553364520076     -0.54138629536028     -0.43295340928116
