14
Coordinates from ORCA-job run
  C   -0.26615158719958     -0.10515667682218      0.61402310959091
  C   1.09687741294026     -0.01993272111627     -0.08570704684384
  Cl  -0.50146073242153      1.36773448305834      1.61066907397589
  H   1.88951806271670      0.13626499310596      0.64350539315295
  H   1.26450433796025     -0.92784429293891     -0.66725814720195
  C   -1.45453230360229     -0.26774764621633     -0.32706205887094
  H   -1.56165602478826      0.61167828029772     -0.95913841764009
  H   -2.36313771339779     -0.39889912591382      0.26091012751715
  H   -1.30785665969390     -1.14315506153393     -0.96344259110805
  C   -0.18388485135771     -1.25594987824018      1.51741656584066
  N   -0.10875676431733     -2.20520724108742      2.20586580756410
  N   1.15348611542240      1.12136062410691     -1.04292484769601
  O   1.77854738506864      2.11863430481701     -0.69382607400183
  O   0.56550332267013      0.97021995848307     -2.11303089427895
