14
Coordinates from ORCA-job run
  C   -0.34974663751930     -0.05350853052412      0.41091783328494
  C   0.56964887996151      0.35129530211640     -0.73666245519812
  Cl  -0.54779533897157      1.35748489566776      1.50106862309547
  H   0.78947492121509     -0.51660659734237     -1.36303817326430
  H   0.10620581684325      1.14601442488081     -1.31840518189766
  C   -1.71786624228546     -0.43336403344843     -0.15320940809230
  H   -2.39314004816342     -0.69833411681950      0.66032183933829
  H   -1.61892565632309     -1.29176606220182     -0.82232431275991
  H   -2.13974385068879      0.41063123895407     -0.70150387725948
  C   0.17708067961634     -1.17596963795678      1.18856454338943
  N   0.49907834784647     -2.13113452716738      1.79203353974923
  N   1.88205983023807      0.88378202736339     -0.26485728336472
  O   2.20572322764812      1.99670693667387     -0.66912220864561
  O   2.53794607058278      0.15576867980408      0.47321652162472
