14
Coordinates from ORCA-job run
  C   -0.34289855578801     -0.05149743016413      0.41767431217627
  C   0.56558880264049      0.34582533459748     -0.74092253094224
  Cl  -0.48496955610318      1.34878350277186      1.53002887448446
  H   0.11130237983282      1.15780035006419     -1.30578995682971
  H   0.75438650473601     -0.51896200184584     -1.38176411002009
  C   -1.73031654584269     -0.38727578464480     -0.12743292868624
  H   -2.39717757158782     -0.65094042925207      0.69344502859126
  H   -1.66459033222445     -1.23504257759679     -0.81398791874151
  H   -2.14083461356610      0.47712118101802     -0.65201143577376
  C   0.16752700313889     -1.19853521912881      1.16991668451680
  N   0.47457313749584     -2.17218724840470      1.75114696306404
  N   1.89855581271652      0.84251759827328     -0.28727437246864
  O   2.24970360939048      1.94306776137599     -0.70213805546060
  O   2.54114992516120      0.10132496293631      0.44910944608996
