14
Coordinates from ORCA-job run
  C   -0.34423835907753     -0.09109831197261      0.41030054198212
  C   0.55975516234484      0.41379116179905     -0.70929265233157
  Cl  -0.53226620489074      1.22061436362549      1.61952050778610
  H   0.08643797861774      1.25189407325074     -1.21748606260436
  H   0.77618970054766     -0.39679798085233     -1.40943925754735
  C   -1.71829468692745     -0.42458528573765     -0.16883846959995
  H   -2.38293809490711     -0.76386090002571      0.62559736864477
  H   -2.14898943716066      0.46357245100828     -0.63416922044609
  H   -1.62523940083617     -1.21919761350294     -0.91332276843227
  C   0.19376178089522     -1.27506664007828      1.08183864153215
  N   0.52530341157808     -2.27894871298300      1.59413553834291
  N   1.87597608700331      0.91247911557159     -0.21084714834946
  O   2.53315697478680      0.13952349456622      0.47843531967977
  O   2.20038508802603      2.04768078533115     -0.54643233865678
