14
Coordinates from ORCA-job run
  C   -0.24186115987480     -0.08653178425020      0.62637777606851
  C   1.08955617867314      0.10606999205170     -0.11196748722724
  Cl  -0.64217808062419      1.42436369648167      1.50731029760203
  H   1.35847186702363     -0.81875184164077     -0.62473692278381
  H   1.86808315719479      0.41612676730473      0.58233268116664
  C   -1.41512122478384     -0.46980390226235     -0.26842620485391
  H   -1.17218400997066     -1.37285576930618     -0.83253040682296
  H   -2.29288894599834     -0.65791228531301      0.35021450200649
  H   -1.63687198044154      0.33314446921595     -0.96871562933704
  C   -0.00494297249489     -1.13951381168664      1.61735839099481
  N   0.19579369842590     -2.01243553082422      2.37796812091533
  N   0.99071006509030      1.16497749808405     -1.15659015451364
  O   1.49226657887833      2.25613840804607     -0.90142050313725
  O   0.41016682890217      0.85798409409921     -2.19717446007798
