14
Coordinates from ORCA-job run
  C   -0.28062537444256     -0.06596531247184      0.61271854112157
  C   1.08762815327098      0.16352291512869     -0.04298792788022
  Cl  -0.82417070551368      1.46427430886050      1.37510496257760
  H   1.79645686187623      0.55621382719601      0.68339512542334
  H   1.44249299031583     -0.77121188093383     -0.47992529272936
  C   -1.36442386606461     -0.56473035775932     -0.33658820730130
  H   -2.27118073632960     -0.77397289031904      0.23132033382088
  H   -1.58161502264144      0.18692347240914     -1.09309515123327
  H   -1.03158569664864     -1.47867416905720     -0.83335659142149
  C   -0.05865700127734     -1.04873777288415      1.67673699134720
  N   0.13007219387804     -1.86677290466157      2.49888977232495
  N   1.00653586216328      1.15502793017914     -1.15287951458275
  O   0.51801991617105      0.75780521948014     -2.20993259895280
  O   1.43105242524247      2.28529761483334     -0.93040044251434
