14
Coordinates from ORCA-job run
  C   -0.22002739435765     -0.08603481888664      0.63485684992673
  C   1.08773995422328      0.05477043027211     -0.15557552865176
  Cl  -0.50689323181960      1.42548751259646      1.55780586269457
  H   1.90848498926009      0.31386884147873      0.51035708961288
  H   1.28941386287413     -0.87326057848070     -0.69284510132363
  C   -1.44706125200266     -0.39335539946886     -0.21602519593802
  H   -1.27253260203534     -1.29419127200689     -0.80841993417897
  H   -2.30596019314464     -0.55312786232886      0.43612420860830
  H   -1.65893376062414      0.43439374105528     -0.89007243131252
  C   0.00473739503991     -1.16871808718679      1.59631132638281
  N   0.19432105906372     -2.06471921871299      2.33248909592862
  N   0.99888492747986      1.13496658694847     -1.17871060564585
  O   1.56696051376035      2.19444152566715     -0.92975148232894
  O   0.35986573228269      0.87547859905354     -2.19754415377421
