13

C	-0.447607	-0.018758	-1.468183
C	0.0	0.0	0.0
Cl	0.094117	1.457034	-2.301637
H	1.09166	0.0	0.0
H	0.085115	-0.853446	-1.932722
C	-1.887898	-0.194563	-1.659778
N	-3.032879	-0.37066	-1.856852
C	-0.516554	-1.171147	0.692331
N	-0.917195	-2.135742	1.230329
N	-0.525732	1.235922	0.679519
O	0.281526	2.110762	0.966849
O	-1.742273	1.272466	0.866303
Br	3.342829	0.0	0.0
