13

C	-0.430294	-0.056147	-1.472059
C	0.0	0.0	0.0
Cl	0.036057	1.443953	-2.307259
H	1.091569	0.0	0.0
H	0.157189	-0.860979	-1.922981
C	-1.853231	-0.318483	-1.680031
N	-2.980665	-0.566587	-1.896924
C	-0.501066	-1.170099	0.707163
N	-0.886318	-2.135733	1.254326
N	-0.55763	1.235728	0.649956
O	-1.78061	1.265622	0.788946
O	0.23117	2.116794	0.961999
Br	3.334084	0.0	0.0
