13

C	-0.529737	-0.025096	-1.438154
C	0.0	0.0	0.0
Cl	-0.187014	-1.623467	-2.156497
H	1.091453	0.0	0.0
H	-1.613582	0.100665	-1.43996
C	0.059093	1.016988	-2.275842
N	0.451253	1.839687	-3.016174
C	-0.514077	-1.111496	0.78559
N	-0.953536	-2.000888	1.414663
N	-0.428824	1.271083	0.686638
O	-1.038837	2.104337	0.015929
O	-0.117656	1.380643	1.864403
Br	3.272472	0.0	0.0
