12

C	-0.392596	-0.057084	-1.468714
C	0.0	0.0	0.0
Br	-0.091486	1.660405	-2.331527
H	1.094763	0.0	0.0
H	0.257683	-0.770681	-1.966919
H	-1.440925	-0.310594	-1.629167
N	-0.368911	-1.279047	0.647879
O	-0.470373	-1.305057	1.872822
O	-0.479089	-2.268639	-0.08298
C	-0.572259	1.099034	0.743351
N	-1.028249	2.011012	1.329149
F	2.45074	0.0	0.0
