12

C	-0.42903	-0.061108	-1.458804
C	0.0	0.0	0.0
Br	0.013228	1.5772	-2.397355
H	1.090693	0.0	0.0
H	-1.500065	-0.222111	-1.576852
H	0.146024	-0.853094	-1.933134
N	-0.496166	-1.295004	0.585577
O	-1.658822	-1.337322	0.996166
O	0.2706	-2.250557	0.567436
C	-0.589635	1.098755	0.734852
N	-1.032047	2.007377	1.335219
F	2.49565	0.0	0.0
