12

C	-0.464361	-0.028677	-1.446065
C	0.0	0.0	0.0
Br	0.019974	1.619352	-2.355093
H	1.094714	0.0	0.0
H	-1.546656	-0.130535	-1.543909
H	0.044261	-0.835314	-1.964365
N	-0.374959	-1.274733	0.656648
O	-0.489426	-1.289191	1.880708
O	-0.477605	-2.271767	-0.064479
C	-0.532356	1.107668	0.765514
N	-0.946185	2.033808	1.360024
F	2.448432	0.0	0.0
