12

C	-0.396092	-0.153209	-1.460984
C	0.0	0.0	0.0
Br	-0.069312	1.496168	-2.44166
H	1.091964	0.0	0.0
H	-1.448445	-0.400281	-1.6032
H	0.241171	-0.910714	-1.907267
N	-0.373274	-1.231823	0.732906
O	-0.470294	-2.271098	0.072274
O	-0.491083	-1.172268	1.9543
C	-0.571374	1.148485	0.666106
N	-1.022886	2.10137	1.185706
F	2.452211	0.0	0.0
