12

C	-0.384998	-0.321463	-1.436986
C	0.0	0.0	0.0
Br	-0.109057	1.219337	-2.589913
H	1.09079	0.0	0.0
H	-1.427039	-0.618794	-1.552467
H	0.281029	-1.098634	-1.79895
N	-0.369899	-1.145519	0.86314
O	-0.4951	-0.951689	2.071285
O	-0.456674	-2.251659	0.320795
C	-0.57768	1.212017	0.534069
N	-1.03277	2.212624	0.952186
F	2.451376	0.0	0.0
