12

C	-0.504475	0.121261	-1.42045
C	0.0	0.0	0.0
Br	0.254496	-1.230703	-2.59852
H	1.090955	0.0	0.0
H	-1.585976	0.032103	-1.50563
H	-0.15952	1.078014	-1.81028
N	-0.511747	-1.22081	0.684209
O	-1.363122	-1.906622	0.112908
O	-0.045438	-1.46434	1.793005
C	-0.455298	1.143259	0.770872
N	-0.808729	2.104379	1.350108
F	2.461979	0.0	0.0
