18

C	0.0	0.0	0.0
C	-0.22315	-0.051054	-1.591053
Cl	1.806329	0.0	0.0
H	0.519327	0.670501	-1.948351
C	-0.559736	1.221388	0.553888
N	-0.601517	2.32707	0.978446
C	-0.317961	-1.262787	0.808297
H	0.171633	-2.118304	0.338724
H	-1.394753	-1.389558	0.848014
H	0.107215	-1.148555	1.809391
C	-1.530541	0.385127	-2.23076
H	-2.321507	-0.345081	-2.085542
H	-1.312997	0.506614	-3.30307
H	-1.893414	1.318504	-1.806201
N	0.14461	-1.337482	-2.174922
H	1.044658	-1.633045	-1.814777
H	-0.54807	-2.02247	-1.891291
H	-2.453597	0.0	0.0
