18

C	-0.046276	-0.075018	-1.543433
C	0.0	0.0	0.0
Br	-1.883412	-0.507515	-2.20849
H	1.0992	0.0	0.0
C	0.431091	1.210297	-2.184077
H	-0.235672	2.050143	-1.993348
H	0.529952	1.048945	-3.258404
H	1.410932	1.411464	-1.740461
N	0.843768	-1.140489	-1.972154
H	1.730263	-0.904229	-1.48841
H	0.517737	-2.007865	-1.556781
N	-0.509868	-1.109452	0.735867
H	-1.333654	-1.516628	0.312088
H	0.221258	-1.793668	0.857445
N	-0.618638	1.256258	0.502571
O	-1.799475	1.209276	0.856044
O	0.064466	2.282781	0.503607
F	2.644784	0.0	0.0
