18

C	-0.434332	-0.097011	-1.476898
C	0.0	0.0	0.0
Br	-0.314899	1.630246	-2.434339
H	1.100365	0.0	0.0
C	0.590605	-1.018724	-2.135506
H	1.595358	-0.685234	-1.857163
H	0.450591	-1.049384	-3.219496
H	0.441932	-2.020982	-1.720438
N	-1.821855	-0.509927	-1.574872
H	-2.034309	-0.705965	-2.547806
H	-1.875715	-1.383308	-1.057729
N	-0.438856	-1.21088	0.662686
H	-1.273335	-1.011307	1.202627
H	0.305942	-1.487444	1.290346
N	-0.548093	1.212667	0.693948
O	0.035599	2.279408	0.533483
O	-1.554792	1.077228	1.402328
F	2.620517	0.0	0.0
