18

C	-0.224985	-0.240043	-1.527296
C	0.0	0.0	0.0
Br	-0.071856	-2.223391	-1.761421
H	1.092536	0.0	0.0
C	-1.597679	0.142691	-2.039591
H	-1.719058	1.228163	-1.979021
H	-2.366317	-0.341841	-1.434421
H	-1.705673	-0.163926	-3.080736
N	0.845978	0.321361	-2.306741
H	1.702315	0.192238	-1.744275
H	0.683807	1.323051	-2.331823
N	-0.658775	-0.930205	0.885945
H	-1.024902	-0.408433	1.672685
H	0.056523	-1.558117	1.231797
N	-0.419397	1.389794	0.329495
O	-1.031095	1.599884	1.384913
O	-0.113909	2.297308	-0.448813
F	2.604678	0.0	0.0
