14

C	0.0	0.0	0.0
C	-0.383473	-0.089046	-1.501208
Cl	1.79769	0.0	0.0
H	-1.416814	0.247773	-1.526654
H	0.284256	0.591239	-2.040193
C	-0.460388	1.264079	0.58175
N	-0.587917	2.337147	1.045789
C	-0.457864	-1.139769	0.795358
N	-0.567133	-2.112556	1.449165
C	-0.279716	-1.507877	-2.034628
H	0.697795	-1.959363	-1.844872
H	-1.050648	-2.118396	-1.56276
H	-0.45135	-1.51543	-3.114358
F	-2.400595	0.0	0.0
