14

C	0.0	0.0	0.0
C	-0.386395	-0.024299	-1.504859
Cl	1.798098	0.0	0.0
H	0.274522	0.687187	-2.011603
H	-1.422886	0.305041	-1.513469
C	-0.445085	1.249042	0.624378
N	-0.566336	2.316914	1.101059
C	-0.474502	-1.169412	0.738856
N	-0.584951	-2.179216	1.332218
C	-0.266835	-1.415619	-2.104494
H	0.722993	-1.855164	-1.951559
H	-1.018986	-2.065055	-1.653586
H	-0.456233	-1.373996	-3.180781
F	-2.404516	0.0	0.0
