14

C	0.0	0.0	0.0
C	-0.183788	0.083351	-1.576943
Cl	1.796316	0.0	0.0
H	0.393514	0.97217	-1.853872
H	0.394599	-0.770574	-1.94602
C	-0.487108	1.18583	0.695056
N	-0.593581	2.219483	1.247579
C	-0.496815	-1.249128	0.563088
N	-0.606125	-2.33732	0.997892
C	-1.517243	0.118168	-2.299255
H	-2.105553	-0.771652	-2.102085
H	-2.119458	0.964229	-1.986417
H	-1.289284	0.190815	-3.375027
F	-2.316904	0.0	0.0
