14

C	0.0	0.0	0.0
C	-0.190825	0.096717	-1.573273
Cl	1.796337	0.0	0.0
H	0.294053	1.045119	-1.833733
H	0.469165	-0.686233	-1.959698
C	-0.493025	1.168356	0.719371
N	-0.602767	2.18641	1.30042
C	-0.483183	-1.264028	0.544442
N	-0.592056	-2.359858	0.96013
C	-1.517908	-0.008467	-2.302482
H	-2.201635	0.780322	-2.014437
H	-1.28398	0.051501	-3.377177
H	-2.015865	-0.95006	-2.088318
F	-2.312738	0.0	0.0
