19

C	0.0	0.0	0.0
C	-0.629984	0.033734	-1.38563
Br	1.964648	0.0	0.0
H	-1.729342	-0.04928	-1.139145
C	-0.46883	1.256221	0.719207
H	-0.126198	2.156272	0.211979
H	-1.569317	1.213433	0.705818
H	-0.109414	1.247174	1.751582
C	-0.454169	-1.216287	0.793022
H	-0.112686	-1.11786	1.826723
H	-0.076506	-2.151772	0.383804
H	-1.553802	-1.206555	0.76121
N	-0.26901	-1.208104	-2.186487
O	-0.784395	-2.276979	-1.86227
O	0.508271	-1.075863	-3.138589
N	-0.3546	1.224756	-2.116653
H	0.558527	1.159205	-2.553443
H	-1.052151	1.340797	-2.841655
H	-3.227368	0.0	0.0
