11
Coordinates from ORCA-job run
  C   1.08356734371449      0.39631981789334     -0.06567643904884
  C   -0.22031199928527      0.13306141020887      0.24666955464445
  H   1.58667290876094      1.26135824897076      0.34720012498491
  C   1.80290721602235     -0.49235570354641     -0.89951851364779
  N   2.36162735792343     -1.26111443698198     -1.59605971285240
  N   -0.99047238123949      1.01956275940891      0.96190659212086
  H   -0.84150058377157      1.99933969001050      0.80055217808469
  H   -1.93144680886375      0.74645377081956      1.18416579877115
  N   -0.84097616810826     -1.07284756408125     -0.02510275155403
  H   -0.25417328100014     -1.73483497192675     -0.51226095007628
  H   -1.75689360415272     -0.99294302077555     -0.44187588142671
