11
Coordinates from ORCA-job run
  C   0.99530299383467     -0.51592753251541     -0.28259543090224
  C   -0.30597477590082     -0.17859308834836     -0.03739024570517
  H   1.27088509803088     -1.54401509519064     -0.47988435911041
  C   1.98880668280626      0.49083527100939     -0.32686767582077
  N   2.77971988237354      1.36376580458656     -0.35525113645669
  N   -1.28562835634233     -1.13026389841096      0.12455304630476
  H   -1.03155588937921     -1.98030463773165      0.59493437098297
  H   -2.22667188860270     -0.81004925750762      0.27096204454031
  N   -0.76912284192757      1.12435259163883     -0.04043600812372
  H   -0.05154288075687      1.81542898977319     -0.20525867021714
  H   -1.36421802413586      1.36577085269667      0.73823406450811
