11
Coordinates from ORCA-job run
  C   1.00317545430377     -0.49323227200063      0.14502658106503
  C   -0.31192456302776     -0.14545086967983      0.04366066439883
  H   1.29332187925600     -1.48735355636820      0.46129692358930
  C   2.01351542313220      0.45521103549984     -0.14855798530981
  N   2.81723729800683      1.27948109293055     -0.39812858083602
  N   -0.75638931529636      1.14835256148199     -0.14349562032848
  H   -1.50909337692450      1.22601346593096     -0.81146200417123
  H   -0.02186254975116      1.82330547910905     -0.29943245780225
  N   -1.34700321774437     -1.06160157696871      0.11974334109768
  H   -1.05757511924658     -1.99924680868729      0.34939397266732
  H   -2.12440191270806     -0.74547855124772      0.68095516562962
