11
Coordinates from ORCA-job run
  C   1.03602956575502     -0.50743215735844     -0.07115542601172
  C   -0.26696556881041     -0.16964917730340      0.16391804756277
  H   1.38165551562485     -1.52039606239928      0.09108240406050
  C   1.95829852702232      0.48279958155852     -0.48505792707170
  N   2.68927305389500      1.34133240881385     -0.82713988361087
  N   -0.71506460069255      1.13664631759588      0.23397407090387
  H   0.00104412512843      1.82695689566907      0.05976267440261
  H   -1.56268505491169      1.32306421180572     -0.28135364899904
  N   -1.22120518184367     -1.11469825022387      0.45922205975857
  H   -1.14872580932245     -2.00589635726661      0.00236078904317
  H   -2.15265457184484     -0.79272741089145      0.65438683996184
