11
Coordinates from ORCA-job run
  C   1.08525823278954      0.21336273489570      0.21601957540509
  C   -0.27491411471237      0.17171071388423      0.12340646625422
  H   1.57886642805490      0.97176251259330      0.81085469647984
  C   1.87488716202183     -0.73165331113865     -0.48373908679740
  N   2.48907294190520     -1.53488999346083     -1.08813540097265
  N   -1.11340672158691      0.92780594743137      0.92454724980443
  H   -0.63780277425223      1.58432824888364      1.52334197418601
  H   -1.88221655227215      1.34595713798530      0.42121335385140
  N   -0.96439543042923     -0.62112762820063     -0.77253678863561
  H   -0.38293050130740     -1.25458200009560     -1.30194765745546
  H   -1.77441867021119     -1.07267436277782     -0.37402438211987
