11
Coordinates from ORCA-job run
  C   0.96030143116470     -0.53429721542884     -0.24649394787615
  C   -0.29509173653117     -0.14204181949471      0.11489538104843
  H   1.24263783229248     -1.57948711410668     -0.23121997651732
  C   1.91151394342325      0.42580156328851     -0.67052487821036
  N   2.66801001285864      1.25776919411606     -1.02162362306155
  N   -0.79415673494815      1.13001974412483     -0.08254887188471
  H   -1.32009196517731      1.48632384801246      0.70178278297550
  H   -0.11922983379044      1.79261318124819     -0.43596028343519
  N   -1.20756996195684     -0.98729082634944      0.72283937998826
  H   -2.14370450113719     -0.90189133387768      0.35461237394738
  H   -0.90361848619798     -1.94551922153270      0.79424166302569
