11
Coordinates from ORCA-job run
  C   1.10344321999888      0.25722924004004      0.10860055419539
  C   -0.26024302651595      0.17847778913049      0.12969413004708
  H   1.63696262824627      0.99101331408094      0.68883796809483
  C   1.83731404128629     -0.58312176526840     -0.76158053966303
  N   2.38513799296165     -1.35763139822955     -1.46069260089136
  N   -0.95236599148116     -0.78447099062262     -0.53514904262216
  H   -0.47334469368071     -1.61442550372011     -0.83089386189234
  H   -1.89845755642883     -0.62801747336010     -0.81192389971040
  N   -1.08143645739088      1.08618145941291      0.79099527125894
  H   -0.57745347145712      1.82489903730446      1.25721686923476
  H   -1.71855668553845      0.62986629123195      1.42489515194830
