11
Coordinates from ORCA-job run
  C   1.00379237223694     -0.52030772978150     -0.05633952386934
  C   -0.30555936736653     -0.15218329057458      0.05021910490069
  H   1.31394674284480     -1.54564599627523      0.00426265218197
  C   1.96475209607406      0.44708190250763     -0.43522214937643
  N   2.69492242250989      1.33376545882173     -0.69737652980260
  N   -1.36409760376422     -1.04824307104160      0.20135973578601
  H   -1.07707616097233     -2.01498556802074      0.20627105702638
  H   -1.88086706725246     -0.83845528429849      1.03821659010070
  N   -0.71903194224287      1.13941216417361      0.01462733176671
  H   -0.01339140372970      1.85015391210085      0.03080885432453
  H   -1.61739008833758      1.35040750238833     -0.35682712303861
