11
Coordinates from ORCA-job run
  C   0.98938766591673     -0.51993924610572     -0.14684851823540
  C   -0.30757634932988     -0.14958628401652      0.05677855020808
  H   1.27830255671038     -1.56342059473535     -0.13567419547272
  C   1.98469289432324      0.46522339926788     -0.35948408586385
  N   2.77730502056927      1.32044342134613     -0.52678846085895
  N   -1.35946812286494     -1.04942035187638      0.07382304529920
  H   -2.02326732701001     -0.87972018518255      0.81525610237078
  H   -1.08142937960303     -2.01627524091436      0.01474409759028
  N   -0.71479651988842      1.15251830534118      0.26836295769292
  H   0.01691255430875      1.84072562236140      0.16636295086041
  H   -1.55906299313209      1.39945115451429     -0.22653244359075
