11
Coordinates from ORCA-job run
  C   0.98947251619294     -0.53885074283190     -0.01147345869797
  C   -0.31417531227631     -0.14098884087760      0.04070497339577
  H   1.25453870146676     -1.58595961292336      0.06356284553262
  C   2.01854837300792      0.41789520842469     -0.18974991911786
  N   2.83935324104843      1.24862429477448     -0.34473535594212
  N   -1.35014005927729     -0.98465364681147      0.40406022035133
  H   -1.07632143608287     -1.94540765420797      0.53725638074017
  H   -2.16890000977474     -0.89126069311828     -0.17940186671946
  N   -0.74511311016754      1.13553366030400     -0.26036365741388
  H   -0.00215722050747      1.79704887828088     -0.43356325859889
  H   -1.44510568362985      1.48801914898653      0.37570309647028
