11
Coordinates from ORCA-job run
  C   0.97619533820357     -0.53005592831866     -0.18835704311052
  C   -0.30835032738853     -0.14587762993440      0.06246333694123
  H   1.25013244428995     -1.57746314328691     -0.20421180918255
  C   1.97983584069710      0.44453058147918     -0.40961417958363
  N   2.78136836774807      1.29042386603129     -0.58231775804572
  N   -0.69066953453517      1.15723162972539      0.31083252899079
  H   0.04676718801628      1.83757364246078      0.19734351112430
  H   -1.54674140984688      1.42423695708330     -0.15251917249879
  N   -1.37191915517830     -1.03184343538296      0.09469819392122
  H   -1.10823170199580     -2.00091181635580      0.01032033271239
  H   -2.00938705001028     -0.86784472350121      0.86036205873128
