11
Coordinates from ORCA-job run
  C   0.95155654772990     -0.53679269636745     -0.18943079499778
  C   -0.32162910549211     -0.14054981652692      0.06474378209255
  H   1.22532941752090     -1.58576291930561     -0.15964915409600
  C   1.98231592381747      0.40021817763369     -0.42911800121205
  N   2.83243662843445      1.19281938449847     -0.61881768831679
  N   -0.66302993714722      1.16882472208481      0.26357779707426
  H   -1.51787497305716      1.45925534957227     -0.17342119863692
  H   0.09799630191502      1.81942134351274      0.14853463459004
  N   -1.40269317219077     -1.00064351442245      0.11897376855661
  H   -2.02110069203950     -0.80446437950357      0.89602628513568
  H   -1.16430693949098     -1.97332565117597      0.07958056981041
