11
Coordinates from ORCA-job run
  C   1.02072387507881     -0.53882210915334      0.06287179949594
  C   -0.29765225013726     -0.19308191372542     -0.03422397755989
  H   1.31006018661362     -1.56747480803262      0.23639304874574
  C   2.02308797952583      0.44464170466015     -0.11185351192879
  N   2.82116681801775      1.29772868004667     -0.26577923814532
  N   -0.73160319731219      1.03100599452051     -0.50952407867261
  H   0.01546740043126      1.66798517478283     -0.74609095351142
  H   -1.44997353168959      1.47150442134902      0.04612512918538
  N   -1.30624409537293     -1.08910638621040      0.23354019826367
  H   -2.25276270522971     -0.77297658613308      0.11610490635260
  H   -1.15227047992559     -1.75040417210431      0.97343667777470
