11
Coordinates from ORCA-job run
  C   0.96301365715179     -0.57435959388905     -0.11250429955536
  C   -0.30932729654884     -0.12718758653797      0.09193084839518
  H   1.20965800648479     -1.62250835282260      0.00170391327665
  C   1.98234692002654      0.33231351724989     -0.49403081594467
  N   2.79485420401976      1.12252061670500     -0.81512633371057
  N   -1.30576491725129     -0.90645839620444      0.65453828686121
  H   -2.19610836216305     -0.82232477832872      0.18599549554671
  H   -1.04185239896680     -1.86545393714320      0.81706115782890
  N   -0.74409729543556      1.14140796664746     -0.23609504788696
  H   -1.33696294229932      1.56065120773238      0.46503123004370
  H   -0.01575957501802      1.76239933659125     -0.55750443485479
