11
Coordinates from ORCA-job run
  C   0.96562661694763     -0.53670336182976     -0.20610294377213
  C   -0.30854728360072     -0.14128893676428      0.07729209447651
  H   1.23216105440646     -1.58615176178552     -0.21985975149256
  C   1.97017784717799      0.42674063386938     -0.46955154171780
  N   2.78456083023349      1.24478201144257     -0.70404575414942
  N   -0.67524026857278      1.16721190233326      0.32382441108153
  H   -1.53964049493594      1.43599569372147     -0.12281301717348
  H   0.06416476470481      1.84055128349716      0.18471856174094
  N   -1.37734762961903     -1.01852051233042      0.14702380758804
  H   -1.99331468583721     -0.84209788270713      0.92722037854821
  H   -1.12460075090472     -1.99051906944673      0.06329375487017
