11
Coordinates from ORCA-job run
  C   1.09243798240229      0.24882670403239      0.12494546543173
  C   -0.26821125975155      0.15484096569431      0.15632138427109
  H   1.61215036939968      0.99766295175391      0.70929204751682
  C   1.84636455198401     -0.63030110227769     -0.69058720848276
  N   2.42894172576671     -1.38053309087160     -1.38722376747970
  N   -1.05447772364688      0.83669291059243      1.06932241584931
  H   -1.88371975505373      1.24389582788144      0.66212330076433
  H   -0.54839044069332      1.48555753949931      1.65131503019220
  N   -1.00864635260384     -0.62334074413000     -0.71122609348826
  H   -1.76081013726284     -1.12588807170832     -0.26384438664118
  H   -0.45663896054054     -1.20741389046619     -1.32243818793360
