11
Coordinates from ORCA-job run
  C   1.03317370505102     -0.51234942959152     -0.08135323864069
  C   -0.26755677103018     -0.17135044249734      0.16148515283359
  H   1.37225958993243     -1.53030505271635      0.06139170092696
  C   1.96044250913886      0.47973248242183     -0.47899075081006
  N   2.69642011608309      1.33938085525599     -0.80731208495937
  N   -0.70715351702416      1.13587062852550      0.25797779613088
  H   0.01282706712783      1.82551848793032      0.09744693962911
  H   -1.55595857137098      1.33890202060657     -0.24879419166712
  N   -1.22678934260392     -1.11705220829575      0.43982470644464
  H   -1.16089085326845     -1.99670764158586     -0.04002037281687
  H   -2.15677393203553     -0.79263970005340      0.63834434292892
