11
Coordinates from ORCA-job run
  C   1.02024882030832      0.42930425060294     -0.21197509920255
  C   -0.26503365260992      0.15985952656640      0.15688858726599
  H   1.45886778299418      1.40260991080624     -0.03104656697548
  C   1.79690356343501     -0.56420371623717     -0.85741921294727
  N   2.40070091371851     -1.42050017065987     -1.39573736347964
  N   -1.01581442543645      1.00137520292131      0.95984614775241
  H   -0.56828618061328      1.87791677361443      1.17693223570027
  H   -1.96706430532593      1.11875041759667      0.64275511705925
  N   -0.95702148332828     -0.97183221140220     -0.22592185789016
  H   -1.50189617811303     -1.38467413921475      0.51667020105381
  H   -0.40360485502912     -1.64860584459401     -0.73099218833663
