11
Coordinates from ORCA-job run
  C   0.99946565236813     -0.50299330754589      0.13728496483684
  C   -0.31292091522995     -0.14334198356213      0.04192566657094
  H   1.28122267340519     -1.50322918825227      0.44146161440588
  C   2.01708976289541      0.44089334759160     -0.14546961970856
  N   2.82697339594891      1.26209750622287     -0.38492116507259
  N   -0.74740098338823      1.15601216061717     -0.12909375883445
  H   -0.00814586617308      1.82744612471204     -0.27807801424673
  H   -1.50130722876068      1.24720111846177     -0.79394809999273
  N   -1.35515644512218     -1.05222508492950      0.10903762357476
  H   -2.12873873481053     -0.73721777399187      0.67611845498816
  H   -1.07208131113301     -1.99464291932378      0.32668233347848
