11
Coordinates from ORCA-job run
  C   1.11339690805365      0.20209171462026      0.23510184224688
  C   -0.24203352380214      0.25152888210220      0.06880538049561
  H   1.62550197277696      0.95582927992260      0.81949675503465
  C   1.86592929632046     -0.81567342582502     -0.39761971824914
  N   2.45084935021177     -1.67990085404072     -0.94478008233926
  N   -1.02696606741003      1.14749567076295      0.75413958234590
  H   -0.76427208728454      1.37592184901807      1.69574774506048
  H   -2.01007903829941      1.16450669224121      0.54924129006238
  N   -0.92376897772925     -0.50711818106535     -0.86523782860047
  H   -1.75312464788061     -0.96467476309468     -0.51656074649322
  H   -0.33443318495686     -1.13100686464152     -1.39733421956381
