11
Coordinates from ORCA-job run
  C   1.01659559842399     -0.54655510057726      0.05797163120789
  C   -0.29942604678255     -0.18992089221893     -0.03279573652322
  H   1.29912613178296     -1.57793457009936      0.22633815409272
  C   2.02642559849031      0.42978963271488     -0.11394421584994
  N   2.83194403100892      1.27605331769885     -0.26666181808937
  N   -0.72560619968023      1.03850305399377     -0.50367777950404
  H   0.02532839156995      1.66830246844886     -0.74691398946213
  H   -1.43637089899659      1.48484947593385      0.05696114170075
  N   -1.31393851063684     -1.07534243361099      0.24185813676313
  H   -1.16586731571531     -1.74493219913800      0.97500359983092
  H   -2.25921077946461     -0.76381275314566      0.10686087583326
