11
Coordinates from ORCA-job run
  C   1.01132000920047     -0.49663577286944     -0.03230569192178
  C   -0.30447571956873     -0.15141465686492      0.06855405315198
  H   1.33488573799343     -1.51446645390515      0.14604253525490
  C   1.98007355166171      0.48429588312512     -0.35749674668600
  N   2.74889100427531      1.33567918584712     -0.62533460585000
  N   -1.32541363623822     -1.07919663052244      0.18536379502290
  H   -1.01276805213106     -2.03233219409087      0.28280084179883
  H   -2.02269789690320     -0.82652741184692      0.87042793251861
  N   -0.76350650302521      1.15062499193672      0.06663070069431
  H   -0.05205114863505      1.84397725395867     -0.11406311481918
  H   -1.59525734662944      1.28699580523212     -0.48861969916457
