11
Coordinates from ORCA-job run
  C   1.01341552045778     -0.55456936024527     -0.04334828559833
  C   -0.30224255960754     -0.18925969895315      0.00760962730755
  H   1.30880729713206     -1.58093848498692      0.13350403311199
  C   2.00108774728050      0.40569369415976     -0.36695208890830
  N   2.78766095003109      1.23886041624896     -0.64178296690168
  N   -0.77436921876774      1.02534327692536     -0.45615811996415
  H   -1.41220682087922      1.49825693857709      0.16687422067506
  H   -0.05296160050088      1.63959353637890     -0.80581900622594
  N   -1.28288535386310     -1.05623955746326      0.42918216717944
  H   -1.05126567743400     -1.69516958458049      1.16831980065939
  H   -2.23304028384894     -0.73057117606098      0.40757061866499
