11
Coordinates from ORCA-job run
  C   1.12468325703770      0.22498300269554      0.14365688622415
  C   -0.24099383429839      0.24235639809202      0.10228594055012
  H   1.66902244167184      0.96016989622703      0.72261129811564
  C   1.84180117431025     -0.73797478198684     -0.60518407407882
  N   2.39585112546313     -1.55697471792761     -1.24602750103964
  N   -0.98298594200850      1.08133624657307      0.90012592342438
  H   -0.64231706316438      1.26206987988703      1.82720089297486
  H   -1.98155992656222      1.06524708858616      0.79107484207558
  N   -0.98526763728708     -0.48793266109300     -0.80654059993896
  H   -1.76777127184261     -0.98705038777779     -0.40998898414817
  H   -0.43046232331974     -1.06822996327561     -1.41921462415912
