11
Coordinates from ORCA-job run
  C   0.99783445842169     -0.51232365613006      0.12389747414507
  C   -0.31077530497356     -0.13705647707879      0.04683241988214
  H   1.26747907743305     -1.53161668002194      0.37000917113597
  C   2.02200785322016      0.42892713528158     -0.14200192162123
  N   2.83742799676142      1.24437649802813     -0.38222540619959
  N   -0.74026638663988      1.07361056170050     -0.45597123454287
  H   -1.49291700269151      1.48850878184256      0.07269273780063
  H   -0.00238063509567      1.72724983330187     -0.66871568686002
  N   -1.35931852139278     -0.94768620329406      0.46606130299636
  H   -2.14003792252827     -0.95979223903858     -0.17659799740183
  H   -1.07805361251463     -1.87519755459123      0.74701914066538
