11
Coordinates from ORCA-job run
  C   0.99386835587814     -0.51712880049652     -0.12449221392660
  C   -0.30338807973177     -0.14801395513357      0.07952847224004
  H   1.30064849498531     -1.55065997727047     -0.02359204748554
  C   1.96613160561789      0.45789173416583     -0.45690813001373
  N   2.73928386075035      1.30486077891139     -0.72628058895892
  N   -1.33908282928543     -1.05744623570429      0.21029655409465
  H   -1.04601680729387     -2.02134502072563      0.23507304617859
  H   -1.98564332887044     -0.82802166026423      0.95100378362016
  N   -0.72710743554739      1.16219776723148      0.17882542363098
  H   -1.58826914674359      1.34843295281632     -0.31361930771679
  H   -0.01042468975919      1.84823241646968     -0.00883499166285
