11
Coordinates from ORCA-job run
  C   1.10817537593590      0.19121788230662      0.07299223410672
  C   -0.25140716945955      0.15924714524749      0.17806842368951
  H   1.69759393010045      0.86010191909638      0.68744126934270
  C   1.77160267110128     -0.66866468168789     -0.83621652773263
  N   2.27893192015592     -1.40559903485564     -1.60248581119127
  N   -1.04913595075156     -0.80265442662122     -0.40877726688346
  H   -0.55559223349077     -1.44183786449253     -1.01494792866655
  H   -1.88919560137234     -0.43257135678945     -0.82848515265042
  N   -0.97909031632006      1.09656447939786      0.89188202043361
  H   -0.41564371874345      1.75237409803448      1.40992891129698
  H   -1.71623890715582      0.69182184036390      1.45059982825481
