11
Coordinates from ORCA-job run
  C   1.00248777033626     -0.51235524735406     -0.05771151383049
  C   -0.30696648464540     -0.14912741943964      0.06173332663832
  H   1.30760384096777     -1.54347639666711      0.06968580386699
  C   1.98805591967180      0.46599889553069     -0.33698649175678
  N   2.77082362971818      1.31636049622333     -0.56478323904917
  N   -0.74299435493039      1.15936106359711      0.12387770430214
  H   -0.01873171235395      1.84752453654060     -0.02246009910509
  H   -1.57199145842872      1.33746961722782     -0.42367795160422
  N   -1.34394086966692     -1.06360080502851      0.13398590135793
  H   -1.04772356368308     -2.02555800030376      0.18512760461741
  H   -2.03662271698556     -0.83259674032647      0.83120895456296
