11
Coordinates from ORCA-job run
  C   0.99242258592004     -0.55043487622345     -0.13560717623249
  C   -0.30616178462842     -0.14490011078301     -0.00216487718165
  H   1.26500061155419     -1.58858399422142      0.00231405433557
  C   1.99733210730779      0.39242003291703     -0.45299541250597
  N   2.79656762852305      1.22260192498595     -0.69920902433462
  N   -1.34554530324177     -1.04337647006098      0.18188292682344
  H   -2.06070317990964     -0.74142247462995      0.82721805548361
  H   -1.03897105479077     -1.98304873416679      0.37762119332851
  N   -0.69805835087544      1.15804369089959     -0.18038025592826
  H   -1.61573706196166      1.41853579985923      0.13619534588554
  H   0.01385380210264      1.85916521142381     -0.05287482967367
