11
Coordinates from ORCA-job run
  C   0.98363131634495     -0.54110009055291     -0.10433746078637
  C   -0.30925273394997     -0.14134134558496      0.06920998955528
  H   1.25917358461826     -1.58461796041641     -0.01501640615515
  C   1.98932124149484      0.41555119924492     -0.38771503813933
  N   2.79121718308315      1.24682934376238     -0.61927478988279
  N   -0.69850615042010      1.17691335856122      0.19122243203314
  H   -1.53993543244220      1.39965532915214     -0.31962130236044
  H   0.04183103573106      1.84673784916271      0.04409209489169
  N   -1.37467980190632     -1.02260267457116      0.13774559453426
  H   -2.03205066331808     -0.80034152860708      0.87117309851888
  H   -1.11174957923558     -1.99568348015084      0.13252178779083
