11
Coordinates from ORCA-job run
  C   1.02891619203051     -0.51646820475351     -0.10193924367874
  C   -0.25311160626725     -0.15244311665586      0.19987640745261
  H   1.38917428010634     -1.51090403465978      0.12886756182192
  C   1.91349497171413      0.42606723605900     -0.67768902161948
  N   2.61385102229159      1.24523290963191     -1.15400311888093
  N   -0.69936384307715      1.15643394027769      0.17777786417942
  H   -0.00013645510142      1.82413468463011     -0.11461933082416
  H   -1.58302763219391      1.29568044103137     -0.28993266691392
  N   -1.17855781229346     -1.06043767580741      0.65840832406101
  H   -1.13824582188915     -1.99191095285804      0.28561762666244
  H   -2.09399329532023     -0.71638522689548      0.88863559773983
