11
Coordinates from ORCA-job run
  C   1.03237662266253     -0.50270700685653     -0.13087314199034
  C   -0.29581181580548     -0.19590132727317     -0.03598089705973
  H   1.35974560197238     -1.53412678873071     -0.16184953949384
  C   1.99035043747432      0.53317099150005     -0.23857231066208
  N   2.75068864995148      1.42885164551990     -0.32823454761123
  N   -1.25193375631581     -1.16065780792935      0.17913798190685
  H   -1.00800369441082     -1.92997865266190      0.77655529414095
  H   -2.21207535080868     -0.86625646695847      0.20851820942173
  N   -0.80277354912859      1.07248816509710     -0.25278924331956
  H   -1.46504369109304      1.38899115536637      0.44019613298304
  H   -0.09851945449828      1.76712609292672     -0.45710793831577
