11
Coordinates from ORCA-job run
  C   1.02981350024600     -0.50807248754942      0.13348547502673
  C   -0.29149512524558     -0.20248904724558     -0.03366694123973
  H   1.33719011651459     -1.51776630601273      0.37415607038962
  C   2.01471128352693      0.48905108056013     -0.06261229393601
  N   2.79786089091126      1.35213804096687     -0.23656024564254
  N   -0.73495971752155      0.97991236220690     -0.59680488260056
  H   0.00516669903189      1.61959078531371     -0.84725067115550
  H   -1.48451418141234      1.43449350595799     -0.09653173602537
  N   -1.28863079407313     -1.10562395683218      0.25202249151696
  H   -2.23708083403761     -0.82312083462663      0.07760980828928
  H   -1.14806183794047     -1.71711314273906      1.03615292537712
