14
Coordinates from ORCA-job run
  C   0.49936826602142      0.09340882023236      0.85709207773033
  C   -0.17332396434596      0.35319048314919     -0.48366835603046
  H   -0.29370800400252     -0.03845603035952      1.60006823691215
  H   0.61851440310465      0.50944595709292     -1.23628963897276
  H   1.07500631994092      0.98628139920416      1.12821803757524
  N   1.28153388069721     -1.14494024036655      0.79836227455982
  H   1.49077183034563     -1.47161114783317      1.73276323513041
  H   2.16735219719146     -0.96447793277719      0.34095393892426
  N   -0.91271520850079      1.60186948587222     -0.40134716432967
  H   -1.19178123683927      1.89734590410211     -1.32961824090871
  H   -1.76733424153118      1.40778753910976      0.11142778431941
  N   -1.02558064523162     -0.79225916120822     -0.78004415904381
  H   -0.49509253033721     -1.63299998664274     -0.57325652679335
  H   -1.27301106651273     -0.80458508957533     -1.76266149907285
