14
Coordinates from ORCA-job run
  C   0.59277504496706      0.15662505623380      0.78490206638900
  C   -0.20212372613629      0.30585189077303     -0.50469082698989
  H   -0.12223389458054      0.17361962542687      1.61364296759513
  H   0.51236758452945      0.31531915286691     -1.34567265028293
  H   1.24860069313381      1.02978871636163      0.88341755572021
  N   1.28587439383402     -1.13470868866983      0.80558372271466
  H   2.12335776189014     -1.07864395729561      0.23818734356025
  H   1.57939993541111     -1.35936669289107      1.74734966913526
  N   -0.85133417544986      1.60641692560006     -0.50472862565178
  H   -1.21279096429241      1.80877772340432     -1.42957798352355
  H   -1.65482641400866      1.53694783665488      0.11219042455530
  N   -1.14893411875930     -0.80098088540880     -0.57174485252793
  H   -1.49714622836392     -0.91256771987422     -1.51681928908224
  H   -0.65298589217461     -1.64807898318196     -0.31203952161151
