14
Coordinates from ORCA-job run
  C   0.30871705044066      0.15585879108061      0.99325518220432
  C   -0.73334813370157      0.14681638731702     -0.12763739822015
  H   0.00970268869019     -0.57239242497718      1.76653049047357
  H   -1.70702535332964      0.44219987457677      0.29389963134732
  H   0.31577221344475      1.14565793773093      1.46148582278832
  N   1.61894902994656     -0.10006002990705      0.40449590514436
  H   1.58934499078597     -1.01366833462930     -0.03163346884017
  H   2.33723727366715     -0.10324234962126      1.11656434488040
  N   -0.74569422263795     -1.19699954982579     -0.70599771416846
  H   -1.21737256057364     -1.84372428272693     -0.08410667887954
  H   -1.26308428472932     -1.15298660999125     -1.57533631036446
  N   -0.43353771923466      1.06454417103547     -1.21333470765925
  H   0.56779724245528      1.01512082619941     -1.37540835275673
  H   -0.64745821522380      2.01087559373854     -0.92277674594952
