15

C	-0.401027	-0.001036	-1.474467
C	0.0	0.0	0.0
Br	0.60556	-1.312959	-2.475891
H	1.095109	0.0	0.0
N	-1.912481	-0.345642	-1.621348
O	-2.617933	0.127637	-0.737456
O	-2.283752	-1.036996	-2.555735
C	-0.229625	1.300517	-2.105811
N	-0.089798	2.358031	-2.602679
N	-0.463133	-1.225014	0.610846
H	0.149574	-1.466924	1.381936
H	-1.408685	-1.119517	0.963462
C	-0.425857	1.2257	0.673347
N	-0.706768	2.177909	1.309154
Cl	2.683832	0.0	0.0
