15

C	-0.385796	0.000913	-1.4676
C	0.0	0.0	0.0
Br	-2.335647	-0.001821	-1.706326
H	1.096507	0.0	0.0
N	0.21971	1.287211	-2.084832
O	1.384229	1.14943	-2.479551
O	-0.503656	2.255798	-2.260802
C	0.149547	-1.165595	-2.159444
N	0.567474	-2.101024	-2.736538
N	-0.457805	-1.227263	0.606878
H	-1.435991	-1.164695	0.873212
H	0.10199	-1.413036	1.433095
C	-0.464811	1.223276	0.652689
N	-0.848252	2.166465	1.243847
Cl	2.841345	0.0	0.0
