14
Coordinates from ORCA-job run
  C   -0.99730745824319     -0.22766355888466     -0.12399143304638
  C   0.54113233836683     -0.44214783362955     -0.01231401322211
  Br  -1.59550501351477     -0.71807370299772     -1.93106073439956
  H   0.72255770319232     -1.49151313586767     -0.27142565357958
  C   -1.70399868242049     -1.09310836242499      0.81843680149878
  N   -2.24703933670747     -1.80501431560242      1.58086930998702
  C   -1.34093198603450      1.17295183790946      0.11136267478833
  N   -1.58045790839953      2.30915306802743      0.29753512843412
  C   0.92395994060780     -0.23970752578818      1.38804026100254
  N   1.24946335388321     -0.05511828486719      2.50178802172832
  C   1.35037502486799      0.48039452135860     -0.92508268900563
  H   2.41264902931172      0.26647069294126     -0.79694959735392
  H   1.08700922733508      0.31614346185057     -1.96954833060621
  H   1.17809376775498      1.52723313797508     -0.66865974622571
