14
Coordinates from ORCA-job run
  C   -0.99971247078144     -0.20478472779351     -0.15184969430164
  C   0.53183591639992     -0.45080078677675     -0.01020744235924
  Br  -1.56409412735372     -0.63639599487024     -1.98423291452864
  H   0.69967610578990     -1.49743249486163     -0.28888220972965
  C   -1.74205599255409     -1.08278235013718      0.75064407890281
  N   -2.31184988739141     -1.80822794083383      1.48004854007291
  C   -1.32224877043336      1.19529590028313      0.11373398677970
  N   -1.54116212711818      2.33129298737757      0.32485479873341
  C   0.88598282607794     -0.28689204993826      1.40261751494959
  N   1.18954539805657     -0.13296503935686      2.52712143362434
  C   1.37957402675668      0.47578260132570     -0.88319118183982
  H   2.43437225409839      0.24104003686976     -0.73211402552513
  H   1.14101460973169      0.33667404590357     -1.93723460725384
  H   1.21812223872110      1.52019581280854     -0.61030827752478
