14
Coordinates from ORCA-job run
  C   -1.02726006619821     -0.19437922031233      0.21413669320440
  C   0.50216169642866     -0.41575795111137      0.38055061877142
  Br  -1.97950182191631     -0.94339918543726      1.75621918632474
  H   0.64539112730201     -1.49649959020686      0.49283711089699
  C   -1.33402971934008      1.23145835203652      0.12228946400663
  N   -1.54221016069869      2.38563380537588      0.03531365883997
  C   -1.49443399903556     -0.89014721773496     -0.98395313884789
  N   -1.82675349936616     -1.46306314454336     -1.95556477567299
  C   0.96181862386148      0.24029884738817      1.60507696298366
  N   1.37078309170109      0.78420492931833      2.56242752952760
  C   1.28049538585853      0.09820773978394     -0.83527415379493
  H   2.34499384781609     -0.08967091145000     -0.68632467347779
  H   0.96189898210326     -0.41962151160756     -1.74163542756649
  H   1.13664651148389      1.17273505850088     -0.96309905519529
