14
Coordinates from ORCA-job run
  C   -0.98323780767414      0.14571325252946     -0.03104776293799
  C   0.52143193520106      0.00767310092600      0.34292663804199
  Br  -1.22095091747438      1.37889767215032     -1.53837784502769
  H   0.53975956286703     -0.65466757968140      1.21880522482710
  C   -1.51269453934414     -1.16055254067732     -0.42001091343036
  N   -1.92771342983273     -2.22268858072305     -0.70648985462247
  C   -1.73994503918063      0.66853244880806      1.10513286132228
  N   -2.33631217963483      1.06524638810492      2.03797146774301
  C   1.04014851387908      1.31028029541567      0.76139365396693
  N   1.47912810559751      2.34284088813611      1.10851634312724
  C   1.37161664231630     -0.60540797743588     -0.77028132237517
  H   2.39317431595172     -0.73365130437269     -0.40901879422446
  H   1.39380234536512      0.04207944522548     -1.64654046021787
  H   0.98079249196300     -1.58429550840568     -1.05397923619255
