14
Coordinates from ORCA-job run
  C   -0.98093685304175     -0.25417137881599      0.33609986984913
  C   0.54947738520242     -0.48253789428314      0.18679024883013
  Br  -1.67576013891422     -1.34579498397800      1.80914443118477
  H   0.68501501682258     -1.55843229728487      0.02728703915445
  C   -1.26622343804287      1.15096233121700      0.61852495722176
  N   -1.46120342409482      2.29207326626301      0.82513090580441
  C   -1.65834007882704     -0.67042245832913     -0.89091134745793
  N   -2.16172301432417     -1.01652154414316     -1.89560408717221
  C   1.22381495831917     -0.11237117915841      1.43175244030199
  N   1.80263695389246      0.20705494353591      2.40259349062129
  C   1.12297852542949      0.30507582111446     -0.99587725533293
  H   2.19291806440469      0.10655104307382     -1.07493475773452
  H   0.98319617686399      1.37819966762511     -0.85285579824007
  H   0.64514986631007     -0.00066533683661     -1.92814013703027
