14
Coordinates from ORCA-job run
  C   -1.00333758517325     -0.21980289991694      0.28474381715788
  C   0.53714843331941     -0.42211869368849      0.32319009679818
  Br  -1.82208395761774     -1.04581926879005      1.86414831699634
  H   0.70304772460601     -1.50388678401063      0.38148564358482
  C   -1.33728294018713      1.20283847738700      0.27609946688468
  N   -1.57289072280603      2.35481383287751      0.25438522424689
  C   -1.55383582639011     -0.87449099452774     -0.90098770310127
  N   -1.95579578949109     -1.40965591697269     -1.86776142289882
  C   1.08140741149529      0.19414696872161      1.53360774521598
  N   1.55362145603686      0.70844852630626      2.47808483049719
  C   1.21106466741659      0.15056319789626     -0.92816063242531
  H   1.04324455462730      1.22660828940525     -1.00236079245073
  H   2.28629420789668     -0.02518575188285     -0.86993674812654
  H   0.82939836626721     -0.33745898280451     -1.82653784237930
