14
Coordinates from ORCA-job run
  C   -0.99246962335305      0.11411617354274      0.01839909027095
  C   0.52977529290565      0.00523880260875      0.32566702240673
  Br  -1.32839308790987      1.41906396050224     -1.40831129282217
  H   0.60342292821836     -0.70097451863558      1.16353075296209
  C   -1.49601943475333     -1.18541484933448     -0.42349730161047
  N   -1.85954648242658     -2.24831448586727     -0.77092189358553
  C   -1.71670698577980      0.55182005501691      1.21042250640370
  N   -2.26926929964012      0.89060237265102      2.19167350003660
  C   1.02658451079398      1.30075684375434      0.79026961414423
  N   1.45646729643306      2.33211737312314      1.15238610809266
  C   1.35297871798997     -0.52067150983001     -0.85084955632167
  H   2.39271007721069     -0.62838413559903     -0.53797752074228
  H   1.31555134786789      0.17007337697522     -1.69291997810062
  H   0.98491474244314     -1.49802945890799     -1.16787105113421
