14
Coordinates from ORCA-job run
  C   -0.99832325106085     -0.20660195777849     -0.15393924059294
  C   0.53145832995670     -0.45287259117399      0.00510884002799
  Br  -1.55067973612003     -0.68422986056974     -1.97862319736050
  H   0.69858469833324     -1.50656693155317     -0.24598477262541
  C   -1.75027069107724     -1.05826375559253      0.76562510542169
  N   -2.32727189892991     -1.76306829108444      1.50956815606249
  C   -1.31861133305377      1.20107326146524      0.07163202634933
  N   -1.53678466754802      2.34280421479946      0.24988345127762
  C   0.87446266364275     -0.25365744634062      1.41621586055808
  N   1.16556927407260     -0.07036492701944      2.53962560907936
  C   1.38777182287478      0.44982925006968     -0.88435783672016
  H   1.22667936153276      1.50104074137279     -0.63866762187383
  H   2.44089371924290      0.21666586223219     -0.71968668184182
  H   1.15652170813408      0.28521243117305     -1.93639969776191
