14
Coordinates from ORCA-job run
  C   -0.98391312077310      0.09209407824301      0.15093150899678
  C   0.50538553712649     -0.35547919384498      0.06884041536729
  Br  -1.14720378423122      1.82390282080619      1.05813653256763
  H   0.48063005846516     -1.34758649344558     -0.40170178357358
  C   -1.52683029810346      0.23002025866670     -1.19937251942301
  N   -1.92227488151527      0.32759976328077     -2.30252041075302
  C   -1.76178321204301     -0.88915397822169      0.90522197983831
  N   -2.35830123440626     -1.70658871124062      1.50437795587273
  C   1.03890857065257     -0.51715176895339      1.42173277264315
  N   1.49614555384539     -0.63914218968045      2.49663833555534
  C   1.37750390105310      0.57898594986323     -0.77031475962617
  H   2.38574796642916      0.16630209858624     -0.83075097451656
  H   0.97900243373146      0.66617608537287     -1.78274507977160
  H   1.43598250976899      1.56902128056769     -0.31847397317729
