14
Coordinates from ORCA-job run
  C   -1.00806213599022     -0.17423571545282     -0.12841510649728
  C   0.51720335082210     -0.46957018051357     -0.01667088751371
  Br  -1.62621721413414     -0.60407600465313     -1.94386730959645
  H   0.64496273119419     -1.52409178398215     -0.28659007474881
  C   -1.76094833967859     -1.01715632761359      0.79857072871402
  N   -2.34375983944657     -1.71434708467926      1.54511834097269
  C   -1.27722317476604      1.23869891177175      0.12912710152074
  N   -1.45051151883624      2.38347284041105      0.33466228673961
  C   0.90560621048331     -0.30044542712848      1.38660138926323
  N   1.23525595621693     -0.14038298250969      2.50287759643875
  C   1.37538367871998      0.41963807077155     -0.91782946107598
  H   2.42515545409268      0.15278745211722     -0.78627564667813
  H   1.25321070089441      1.47150131388266     -0.65334853395780
  H   1.10994414042822      0.27720691757845     -1.96496042358088
