14
Coordinates from ORCA-job run
  C   -0.96350557479986     -0.27026552800424      0.36901752583163
  C   0.56179792789380     -0.47868490014782      0.15490309135967
  Br  -1.58766085129884     -1.39421464337779      1.85025038794372
  H   0.70195283689271     -1.54980608250948     -0.03014467797752
  C   -1.25227994508922      1.12619256837831      0.68809058286135
  N   -1.44487678613830      2.26102330021387      0.92834171175535
  C   -1.68612197504779     -0.67439265981763     -0.83599998186101
  N   -2.22651849864303     -1.01084897538080     -1.82472578726303
  C   1.28098015186504     -0.12482561403740      1.37902285660694
  N   1.88913036836544      0.17963198017362      2.33670837022720
  C   1.07908639635124      0.33648065004937     -1.03502545720097
  H   0.56406870455974      0.04521643497835     -1.95204071443824
  H   2.14609280337319      0.14802598033180     -1.16344494938125
  H   0.93785444171589      1.40546748914981     -0.86495295846384
