14
Coordinates from ORCA-job run
  C   -1.00310604021228     -0.20134363945565     -0.12295621805415
  C   0.52789280579504     -0.45770761435969      0.00356407194481
  Br  -1.60648658865955     -0.71903530683569     -1.92036579751973
  H   0.67935242008492     -1.51925928941147     -0.22324202137469
  C   -1.73905193196727     -1.02293180797315      0.83619155939293
  N   -2.30567811866031     -1.70520443851162      1.60846756700685
  C   -1.30631869599659      1.21414730402710      0.07587546993367
  N   -1.51103777756467      2.36146379187305      0.23297762902939
  C   0.90851560570407     -0.22345880261401      1.39957108871228
  N   1.23077314210309     -0.00996066754734      2.50912475965740
  C   1.36885338073984      0.41308313823169     -0.93122288067132
  H   1.10786802196332      0.22424053584189     -1.97222639930698
  H   1.22473705802664      1.47187373107430     -0.70823726323978
  H   2.42368671864374      0.17309306566059     -0.78852156551070
