14
Coordinates from ORCA-job run
  C   -1.00030407362523     -0.18814106133606     -0.16769517533209
  C   0.52138069959993     -0.46233497242115      0.01988708030786
  Br  -1.53101640843830     -0.66466427794265     -1.99900338030706
  H   0.67175666548643     -1.52266434083839     -0.21307464220660
  C   -1.78285889877760     -1.02199438387242      0.74270516245237
  N   -2.38244576907680     -1.71947061663194      1.47566586916102
  C   -1.29809958682170      1.22635112629461      0.04599904754550
  N   -1.49674862528289      2.37288063213596      0.21566234670379
  C   0.84476572787832     -0.24665581401466      1.43330218022151
  N   1.12503943590892     -0.04337430994854      2.55595633034512
  C   1.41066505787168      0.41021834929162     -0.86748326401421
  H   1.26045556993834      1.46831641649348     -0.64534737432134
  H   1.20034977122756      0.22887208271993     -1.92110443176937
  H   2.45606043411132      0.16466117007020     -0.67446974878651
