14
Coordinates from ORCA-job run
  C   -1.00834234460293     -0.15205509665668     -0.14750300660878
  C   0.50793556036552     -0.48001881691738     -0.00980571836377
  Br  -1.60316164474347     -0.56461712324096     -1.97487293683946
  H   0.61834426908296     -1.53554979144751     -0.28356867069474
  C   -1.79553578592469     -0.98076303788627      0.76359691241949
  N   -2.40516921227124     -1.66682265387137      1.49896602152820
  C   -1.25325569852842      1.26543994303541      0.10906904876950
  N   -1.41096294375289      2.41218985404459      0.31627750872316
  C   0.87456869813392     -0.32812863504344      1.40125459088335
  N   1.18713635962482     -0.18457897821368      2.52465622411083
  C   1.40060931318955      0.39598129552019     -0.89009224853923
  H   1.14677347090487      0.27027153081807     -1.94229860208517
  H   1.30051070250174      1.44785803005563     -0.61679672280156
  H   2.44154925602027      0.10179347980340     -0.74688240050183
