14
Coordinates from ORCA-job run
  C   -0.96156681722870     -0.30857402582243      0.34285028629405
  C   0.55219312228446     -0.51166884362940      0.05451412342022
  Br  -1.58122279208705     -1.65639083089908      1.62578059147081
  H   0.65960652426868     -1.53799304364003     -0.31444294780896
  C   -1.20476023499225      1.01815472803696      0.90526625025430
  N   -1.36418034714543      2.09721019823538      1.34470828816326
  C   -1.72288200277475     -0.48225093274415     -0.89327619352178
  N   -2.29754392537665     -0.63031230817162     -1.90847906961515
  C   1.30873455007581     -0.38755929309132      1.30085289382568
  N   1.94812305334044     -0.25968593798654      2.27770813380521
  C   1.06410877032011      0.48431439754132     -0.99150918159575
  H   0.96112270789612      1.51055703642718     -0.63393051252117
  H   2.12109023150361      0.29250888792402     -1.18285176119512
  H   0.51717715991560      0.37168996781970     -1.92919090097559
