14
Coordinates from ORCA-job run
  C   -0.98061653159809      0.16341644513918      0.10482920312145
  C   0.54713446613456     -0.07785598995993      0.28470384990489
  Br  -1.31516989215321      1.70300487619719     -1.06426002576933
  H   0.62364733519650     -0.91700132118743      0.98911816995101
  C   -1.59196035461396     -1.01639124720451     -0.50496743127581
  N   -2.04418204670962     -1.98706330444069     -0.99085680606603
  C   -1.60262418052474      0.43481368901765      1.39962239035971
  N   -2.07267865203019      0.63569020804408      2.45869055235253
  C   1.15364941472430      1.09312334167976      0.91858330313736
  N   1.67176033993255      2.02600414302588      1.40914723899607
  C   1.26346790517973     -0.44402185499859     -1.01569187214459
  H   0.81370808581207     -1.33246792442058     -1.46231824349446
  H   1.22263265345189      0.37893980469036     -1.72886242245054
  H   2.31023145719820     -0.66019086558235     -0.79673790662225
