14
Coordinates from ORCA-job run
  C   -1.00512076844700     -0.18451312764826     -0.13758412517441
  C   0.52284044322571     -0.46227948481271     -0.02084711022612
  Br  -1.60644776970751     -0.59621939803294     -1.96271188456347
  H   0.66530693918828     -1.51048090599330     -0.30767034935379
  C   -1.75240878435899     -1.04956593500703      0.77331771395520
  N   -2.32713107435064     -1.76361834721806      1.51018926745260
  C   -1.29504163597804      1.22092245826108      0.13793442083239
  N   -1.48788949010502      2.36057452727513      0.35444982207715
  C   0.90134744001586     -0.31366556882042      1.38740585068808
  N   1.22416799132309     -0.17235766454660      2.50823518431723
  C   1.37555207359094      0.45220713719500     -0.90167605455080
  H   1.23429157357480      1.49858182943500     -0.62453120765361
  H   2.42819115619157      0.19998583420412     -0.76320161958685
  H   1.12234190583695      0.31942864570898     -1.95330990821359
