14
Coordinates from ORCA-job run
  C   -0.94297349118589      0.20874040075827      0.26000197140658
  C   0.47588144994405     -0.39561632951212      0.04505872237023
  Br  -0.82840732065074      2.03105492287878      0.97719280169351
  H   0.29971499256851     -1.42112770207501     -0.30637244905944
  C   -1.64754940537643      0.26253511953129     -1.02000180354559
  N   -2.17792339401706      0.28085687264287     -2.06928715152795
  C   -1.69717537895281     -0.60573395209924      1.21126528836770
  N   -2.28111110126704     -1.29082948644865      1.96812596582163
  C   1.16959016726522     -0.47915905355358      1.33061722168226
  N   1.75720601328705     -0.54474592897836      2.34540557801538
  C   1.30856683013945      0.35685876380397     -0.99338639512289
  H   2.25675301102334     -0.16418634110157     -1.13460800094513
  H   1.51907831424200      1.37366219825829     -0.66274533158748
  H   0.78634931298034      0.38869051589507     -1.95126641756879
