14
Coordinates from ORCA-job run
  C   -0.95012076837976      0.18935807775082      0.24744806238470
  C   0.48281107651341     -0.38692244288666      0.05010757939467
  Br  -0.88051568839015      2.01058662684567      0.97319813736233
  H   0.33121134495330     -1.41395438351029     -0.30850703652399
  C   -1.63800961194330      0.23528297900841     -1.04180600215849
  N   -2.15408015971408      0.24815832213480     -2.09830790492235
  C   -1.70201986069844     -0.64288595156270      1.18486894712420
  N   -2.28268088716891     -1.34243322942103      1.93082935877283
  C   1.15975257563523     -0.46266515932803      1.34509157392357
  N   1.73415902543387     -0.52072529988741      2.36790814027730
  C   1.31562548481336      0.38627054788503     -0.97317914528097
  H   0.80569335086111      0.41395301591445     -1.93786933825559
  H   1.50338510195166      1.40496918184243     -0.63450537066999
  H   2.27478901613273     -0.11699228478549     -1.10427700142821
