14
Coordinates from ORCA-job run
  C   -0.98220320833252      0.11506668498415      0.14558996002210
  C   0.50155620088833     -0.35341734237557      0.09206029831909
  Br  -1.12390834523349      1.90853109991999      0.92863228991399
  H   0.46484801939627     -1.37414351273747     -0.31175225027691
  C   -1.52751060012932      0.16245506161886     -1.21016620648949
  N   -1.92590787085345      0.18139776115473     -2.31634681999089
  C   -1.76936408277175     -0.80176110803553      0.96831801944026
  N   -2.37514251570410     -1.56987071445662      1.62113350786148
  C   1.03640796826302     -0.43363379165058      1.45158757052678
  N   1.49681268360328     -0.49986786345419      2.53002347382897
  C   1.38289716833385      0.51294891969278     -0.80826281700929
  H   2.38433320834433      0.08144760257448     -0.84772884859941
  H   0.97991933888520      0.54254910508873     -1.82212219043750
  H   1.45926203531033      1.52829809767624     -0.41996598710920
