14
Coordinates from ORCA-job run
  C   -1.01960775370737     -0.22712688062283      0.21610925131269
  C   0.51556438980233     -0.44279154763521      0.32685859194070
  Br  -1.92798938054727     -1.12932659116400      1.70161973371102
  H   0.67369499622364     -1.52731755685802      0.33015750359012
  C   -1.34415261301660      1.19694702704263      0.26506734644652
  N   -1.56648501654254      2.35132802146847      0.29468613263115
  C   -1.50681013884964     -0.81445194367581     -1.03105057849448
  N   -1.85514634141588     -1.30035367205616     -2.04358397862716
  C   0.99572691951127      0.09656437189598      1.59963966960403
  N   1.41800909187011      0.54873409826075      2.59794442301719
  C   1.25995433355233      0.19710972957410     -0.84978252798658
  H   0.92017628525217     -0.22871446656776     -1.79547716512921
  H   1.10833595207212      1.27810025032402     -0.86472027461060
  H   2.32872927579534      0.00229916001384     -0.74746812740539
