14
Coordinates from ORCA-job run
  C   -0.97433089852408      0.13684121665957      0.17427447242196
  C   0.48859400579461     -0.38087057767190      0.04809486235112
  Br  -1.03259729580064      1.85106077249897      1.12664940559269
  H   0.40495256872431     -1.35634453468016     -0.44961263943474
  C   -1.53831888729679      0.33409084466737     -1.16018370861810
  N   -1.95396949946841      0.47265009361982     -2.25134938700361
  C   -1.78505892866396     -0.82337473515473      0.92104401637523
  N   -2.41253318327597     -1.62338249648447      1.51209813234700
  C   1.04145509259250     -0.60833369812627      1.38351860150746
  N   1.51696536251101     -0.78602980449015      2.44265379767196
  C   1.38944043056198      0.53337410872108     -0.78318156081886
  H   2.37259918700244      0.07049155992150     -0.88139691686016
  H   1.51074419796228      1.50376008465072     -0.30237137520914
  H   0.97305784788071      0.67406716586864     -1.78223770032280
