14
Coordinates from ORCA-job run
  C   -1.00484214241076     -0.17877291129801     -0.14515111419010
  C   0.51882863567132     -0.46781678364719     -0.00038040402503
  Br  -1.58688140947845     -0.63078198240649     -1.96707139044022
  H   0.65459111591105     -1.52559331503720     -0.25308259569115
  C   -1.77201666309432     -1.01444396593686      0.77674794797462
  N   -2.36377925348184     -1.70781264828941      1.51983617358235
  C   -1.28435832998279      1.23579539795906      0.09149966092124
  N   -1.46924327145336      2.38202274275833      0.27846267368686
  C   0.87945333559576     -0.27743701059837      1.40751316249352
  N   1.18710155530644     -0.09757426958948      2.52705862007712
  C   1.39180575143314      0.41162015357058     -0.89693494607502
  H   1.25842050043858      1.46687249532798     -0.65192762979626
  H   1.15007371068040      0.25110959477463     -1.94720228341538
  H   2.43984646486482      0.15281250241243     -0.73836787510255
