13

C	-0.456842	-0.050958	-1.443454
C	0.0	0.0	0.0
F	-0.066823	1.042725	-2.126516
H	1.093505	0.0	0.0
H	-0.338476	-0.902825	0.513431
C	-0.019944	-1.270278	-2.134966
N	0.287024	-2.249092	-2.706149
N	-2.002267	-0.077517	-1.476718
O	-2.509797	-1.067417	-0.96482
O	-2.573958	0.88043	-1.971952
C	-0.533916	1.185112	0.658059
N	-0.97608	2.131939	1.192921
Br	3.379308	0.0	0.0
