13

C	-0.481526	-0.015726	-1.440899
C	0.0	0.0	0.0
F	-0.089521	-1.169441	-2.027078
H	1.092186	0.0	0.0
H	-0.318497	-0.951627	0.437467
C	-1.940071	0.11952	-1.586969
N	-3.107067	0.134969	-1.720748
N	0.141221	1.1473	-2.228137
O	-0.210194	2.25525	-1.843181
O	0.892356	0.867799	-3.144401
C	-0.547837	1.094151	0.786924
N	-1.001016	1.938219	1.465628
Br	3.389228	0.0	0.0
