13

C	-0.470418	-0.014389	-1.441569
C	0.0	0.0	0.0
F	-0.072933	-1.131818	-2.082319
H	1.094814	0.0	0.0
H	-0.332792	0.926739	0.472338
C	-1.928116	0.135662	-1.589699
N	-3.093023	0.240444	-1.697707
N	0.154032	1.196783	-2.158569
O	0.834296	0.976698	-3.143425
O	-0.131592	2.278081	-1.66087
C	-0.536882	-1.15021	0.71206
N	-0.992131	-2.069919	1.282281
Br	3.38534	0.0	0.0
