13

C	-0.458342	-0.029534	-1.443545
C	0.0	0.0	0.0
F	-0.072391	1.076057	-2.108584
H	1.093542	0.0	0.0
H	-0.338337	-0.910294	0.499888
C	-0.018231	-1.23565	-2.15552
N	0.289145	-2.203768	-2.745013
N	-2.003218	-0.061192	-1.477688
O	-2.507653	-1.063331	-0.986647
O	-2.577757	0.905066	-1.952433
C	-0.533789	1.173555	0.677474
N	-0.978606	2.111176	1.226328
Br	3.387695	0.0	0.0
