16

C	-0.344091	0.080316	-1.483255
C	0.0	0.0	0.0
Br	-2.160126	0.785374	-1.755157
H	1.09572	0.0	0.0
H	-0.297565	0.96145	0.431733
N	0.558923	0.8608	-2.275096
H	0.469886	1.828747	-1.985094
H	1.508213	0.563693	-2.03258
N	-0.315441	-1.346906	-2.048785
O	0.777727	-1.714771	-2.461736
O	-1.321116	-2.042893	-1.964365
C	-0.589633	-1.154249	0.790322
H	-0.315999	-1.040278	1.841715
H	-1.679008	-1.19188	0.711852
H	-0.185006	-2.10974	0.451922
Br	3.580311	0.0	0.0
