14

C	0.0	0.0	0.0
C	-0.626334	0.005037	-1.380581
F	1.387794	0.0	0.0
H	-1.74716	0.012447	-1.112477
H	-0.375168	0.9175	-1.928869
C	-0.369078	1.268561	0.677815
N	-0.498951	2.286326	1.248623
C	-0.480172	-1.185714	0.808044
H	-1.577485	-1.120521	0.836595
H	-0.055995	-1.145625	1.813518
H	-0.161521	-2.106283	0.31356
C	-0.25835	-1.160994	-2.161629
N	0.017493	-2.107377	-2.803421
H	-3.050097	0.0	0.0
