14

C	0.0	0.0	0.0
C	-0.622162	-0.008683	-1.380793
F	1.387547	0.0	0.0
H	-0.446125	-0.977365	-1.857462
H	-1.736683	0.071148	-1.131909
C	-0.363299	1.258223	0.697471
N	-0.535373	2.288373	1.233883
C	-0.492151	-1.197136	0.784031
H	-0.084926	-1.174522	1.797315
H	-1.591056	-1.132449	0.795862
H	-0.161703	-2.110246	0.280278
C	-0.156073	1.059244	-2.247676
N	0.200611	1.912651	-2.972809
H	-3.087158	0.0	0.0
