14

C	0.0	0.0	0.0
C	-0.619294	-0.008746	-1.383719
F	1.387735	0.0	0.0
H	-0.36873	0.900681	-1.93574
H	-1.738204	-0.00446	-1.127908
C	-0.368354	1.276298	0.662776
N	-0.486888	2.302983	1.220966
C	-0.482976	-1.176112	0.819554
H	-1.580149	-1.109316	0.844482
H	-0.062075	-1.125312	1.826135
H	-0.164138	-2.102468	0.336398
C	-0.235189	-1.178162	-2.152277
N	0.065382	-2.125375	-2.781256
H	-3.057502	0.0	0.0
