14

C	0.0	0.0	0.0
C	-0.623015	0.026015	-1.379749
F	1.387419	0.0	0.0
H	-0.452735	-0.931618	-1.879722
H	-1.736422	0.103881	-1.126726
C	-0.361695	1.241979	0.727587
N	-0.525864	2.263381	1.28337
C	-0.49476	-1.213858	0.754174
H	-1.593608	-1.145336	0.766283
H	-0.168396	-2.115993	0.228948
H	-0.088314	-1.216939	1.767941
C	-0.154813	1.112366	-2.222325
N	0.199294	1.978916	-2.933001
H	-3.080716	0.0	0.0
