17

C	-0.510193	-0.021472	-1.438433
C	0.0	0.0	0.0
Br	-0.112281	1.696888	-2.309434
H	1.091512	0.0	0.0
H	-1.601612	-0.078462	-1.456643
C	0.143594	-1.139527	-2.230388
H	-0.177259	-2.106583	-1.830964
H	-0.137785	-1.093578	-3.284464
H	1.228432	-1.064238	-2.12152
N	-0.490912	-1.293376	0.583467
O	0.320704	-2.169164	0.868975
O	-1.715553	-1.407132	0.732898
C	-0.523259	1.126333	0.869012
H	-0.043322	2.055125	0.560934
H	-1.609417	1.228823	0.806933
H	-0.238015	0.937871	1.907704
H	2.903445	0.0	0.0
