17

C	-0.502552	-0.005356	-1.436396
C	0.0	0.0	0.0
Br	0.004108	-1.639165	-2.40472
H	1.090714	0.0	0.0
H	0.07187	0.77609	-1.942443
C	-1.997245	0.204713	-1.613002
H	-2.288699	1.17596	-1.205607
H	-2.266211	0.180088	-2.671006
H	-2.561087	-0.569437	-1.090048
N	-0.517088	-1.169157	0.753032
O	-1.575873	-1.040417	1.390061
O	0.130623	-2.213428	0.707902
C	-0.388682	1.283351	0.717478
H	-1.460645	1.405556	0.86397
H	0.105785	1.28988	1.692178
H	0.015185	2.126208	0.15031
H	2.767126	0.0	0.0
