15

C	-0.650766	-0.102109	-1.358079
C	0.0	0.0	0.0
F	-0.30033	-1.30225	-1.919121
H	1.096084	0.0	0.0
H	-1.736051	-0.043125	-1.2964
N	-0.233448	0.952707	-2.346214
O	0.81874	1.549349	-2.162985
O	-0.997203	1.084839	-3.304253
N	-0.514374	-1.117835	0.79776
H	-0.130753	-0.985638	1.729392
H	-0.052849	-1.944425	0.430885
N	-0.476181	1.243973	0.669462
O	-1.070682	2.082825	-0.010991
O	-0.24603	1.345808	1.868959
Cl	3.280303	0.0	0.0
