15

C	-0.586281	0.052671	-1.396197
C	0.0	0.0	0.0
F	-1.912428	0.386751	-1.342592
H	1.093567	0.0	0.0
H	-0.059714	0.741567	-2.052069
N	-0.485781	-1.31867	-2.010898
O	-1.512703	-1.978047	-2.109837
O	0.641487	-1.649361	-2.35387
N	-0.485979	-1.103206	0.737686
H	-1.440637	-0.968798	1.043977
H	0.111432	-1.27795	1.533406
N	-0.364104	1.361627	0.610653
O	-0.10641	2.354512	-0.062544
O	-0.867263	1.372694	1.731073
Cl	3.249886	0.0	0.0
