15

C	-0.535007	0.030128	-1.419046
C	0.0	0.0	0.0
F	-1.903473	0.121955	-1.403024
H	1.089556	0.0	0.0
H	-0.116042	0.83172	-2.019212
N	-0.194394	-1.261664	-2.112411
O	0.82025	-1.260186	-2.799363
O	-0.950381	-2.211726	-1.926981
N	-0.481274	-1.055575	0.802494
H	-1.323655	-1.492478	0.462413
H	0.246884	-1.728354	0.985686
N	-0.404575	1.368915	0.571872
O	-0.133283	2.337599	-0.137132
O	-0.938718	1.423384	1.669754
Cl	3.238092	0.0	0.0
