15

C	-0.555455	-0.033755	-1.422638
C	0.0	0.0	0.0
F	-0.187653	-1.193848	-2.020113
H	1.09054	0.0	0.0
H	-1.644792	0.05218	-1.432861
N	-0.05391	1.116111	-2.257716
O	-0.606306	2.188761	-2.014698
O	0.816254	0.90195	-3.088234
N	-0.423239	-1.130358	0.767174
H	0.298706	-1.836526	0.733871
H	-1.318018	-1.506911	0.486939
N	-0.552886	1.242135	0.646019
O	0.203764	2.177014	0.877573
O	-1.761821	1.216769	0.887095
Cl	3.270856	0.0	0.0
