15

C	-0.606645	-0.056208	-1.386179
C	0.0	0.0	0.0
F	-0.169288	-1.172774	-2.028995
H	1.089558	0.0	0.0
H	-1.697493	-0.056582	-1.377724
N	-0.213603	1.10233	-2.268571
O	-0.869344	1.199605	-3.306615
O	0.725163	1.812014	-1.930158
N	-0.409254	-1.153294	0.74574
H	0.303543	-1.368567	1.4296
H	-1.302359	-1.031781	1.206369
N	-0.465763	1.267638	0.680039
O	-0.07008	1.454583	1.825983
O	-1.267314	1.992604	0.078889
Cl	3.264963	0.0	0.0
