15

C	-0.50003	0.017038	-1.430027
C	0.0	0.0	0.0
F	-0.253789	1.154777	-2.121331
H	1.094213	0.0	0.0
H	-0.088773	-0.843201	-1.953382
N	-1.999675	-0.166732	-1.445759
O	-2.45202	-1.144059	-2.036581
O	-2.65776	0.69605	-0.866721
N	-0.462707	-1.204631	0.608679
H	0.223757	-1.507721	1.288833
H	-1.34151	-1.044393	1.088734
N	-0.416363	1.254514	0.754733
O	-1.117193	1.112978	1.756557
O	-0.00052	2.32123	0.326895
Cl	3.24221	0.0	0.0
