14
Coordinates from ORCA-job run
  C   -0.37748400903977     -0.24682494243502      0.00590751483019
  C   1.04743854104276      0.03453341263635     -0.51573275768636
  F   -0.63493348356315     -1.56736497342669     -0.35567447513874
  H   1.09299036680773     -0.17924240018673     -1.58687669110792
  H   1.29118091182395      1.09058501219066     -0.36826655527396
  N   -0.53964290454991     -0.17432810285639      1.42586502463832
  H   -0.54407298024429      0.78208021428548      1.75253963612676
  H   0.18131254083351     -0.69665616056847      1.90979804451003
  C   -1.39320632663897      0.63728269813639     -0.68506690524890
  H   -1.22279294976159      1.69185678340683     -0.45484962376266
  H   -2.38811302323400      0.35405998649594     -0.34166468135184
  H   -1.33681904411222      0.49988263648724     -1.76579076880959
  C   2.03196262880895     -0.78462962569738      0.18509524497575
  N   2.79117973182701     -1.44023453846819      0.79371699329892
