14
Coordinates from ORCA-job run
  C   -0.33968026538218     -0.11615130903959      0.03358680358903
  C   1.07952470811445     -0.10339572402825     -0.54045898760742
  F   -0.83911467460031     -1.41731436423447     -0.22227302238358
  H   1.48716624317402      0.90786734346737     -0.47488389913066
  H   1.04025656006523     -0.39968836800206     -1.59116763964381
  N   -0.30929093687832      0.16679732065386      1.42150085465724
  H   -1.24655114972391      0.18361675147852      1.80336380826784
  H   0.23463061247118     -0.52520967881910      1.92432056401874
  C   -1.24788323882371      0.84696192826430     -0.69956834424648
  H   -1.27450836091035      0.60372173613396     -1.76247742125435
  H   -2.26370235785207      0.75766138801304     -0.30809680316286
  H   -0.90642830388886      1.87363421736930     -0.56494569739157
  C   1.95387322817650     -1.02344908439668      0.18338171769063
  N   2.63270793605831     -1.75605215686019      0.79871806659726
