14
Coordinates from ORCA-job run
  C   -0.40452650120563     -0.19997004248998      0.00389752122587
  C   1.04729939425409     -0.09448050653483     -0.50822696817622
  F   -0.81708596648888     -1.48159729314256     -0.35500605926993
  H   1.41416611365872      0.92583966619387     -0.36350678988770
  H   1.07443786871881     -0.31707490080872     -1.57825287199807
  N   -0.56627697955123     -0.10232646573787      1.42226359209718
  H   0.08176613530885     -0.70741008508281      1.91307275185011
  H   -0.45688641724991      0.84846106918406      1.74648311559325
  C   -1.30171763443732      0.79694650987359     -0.69754553916837
  H   -1.24965878451114      0.65508322528626     -1.77791159953026
  H   -1.01159942595018      1.82404354146410     -0.46321063930618
  H   -2.32665836363019      0.63194149297195     -0.36578260048760
  C   1.92234494016419     -1.02140026826330      0.20327189562056
  N   2.59439562091981     -1.75905594291374      0.82045419143737
