14
Coordinates from ORCA-job run
  C   -0.42096882725485     -0.29413661718898      0.12834303339400
  C   1.11329633461446     -0.36409858981125      0.23815645526691
  F   -0.78815681103220     -1.48100824261832     -0.50653359879494
  H   1.37239509356253     -1.26344938058121      0.80574460312979
  H   1.47943858319909      0.50291489547353      0.79502029915693
  N   -1.07195599818862     -0.27662816881657      1.40231370498816
  H   -0.62099331067820     -0.88285047433364      2.07520212666268
  H   -1.14924880866378      0.65753112514835      1.77765560011063
  C   -0.90272841073139      0.85743616197541     -0.72556769560116
  H   -0.56669905107945      1.81596975510778     -0.32213517297438
  H   -1.99261741108136      0.83932866996459     -0.75129143637784
  H   -0.52271293845098      0.75291561721608     -1.74158323384295
  C   1.77678097892869     -0.41998675930777     -1.06197686674735
  N   2.29517057685606     -0.44393799222801     -2.11434781837047
