14
Coordinates from ORCA-job run
  C   -0.40494337127083     -0.25976646188675      0.21984591607367
  C   1.13026701143487     -0.35919686560947      0.14925686837272
  F   -0.86377870342622     -1.51266817044636     -0.18715830324009
  H   1.57217862409893      0.56663883445467      0.52773048817648
  H   1.44856515363052     -1.17670319508036      0.80376732642092
  N   -0.89013415104005     -0.04274905040139      1.54817524128541
  H   -0.36794515235852     -0.56386118846151      2.24048749110846
  H   -0.90694011473494      0.93658732719813      1.79306497032838
  C   -0.97552836764521      0.77405961733512     -0.72516421311145
  H   -2.06004876923809      0.78792569518408     -0.61245796849409
  H   -0.57710284025337      1.76869276914073     -0.50948612143309
  H   -0.72985208326017      0.51386522385640     -1.75459518132592
  C   1.62368178679726     -0.61767608991684     -1.20108846335989
  N   2.00258097726580     -0.81714844536646     -2.29337805080151
