14
Coordinates from ORCA-job run
  C   -0.44433190834853     -0.28552144292239      0.09212189680120
  C   0.90402815691279     -0.79542933256547     -0.42287183182944
  F   -1.35139691820603     -1.32465607351502     -0.24700709854055
  H   0.80568805324107     -1.04657309767997     -1.48168455436071
  H   1.15935482782503     -1.71888519338475      0.10627888347205
  N   -0.38239807562969     -0.08601206663860      1.49170991930436
  H   -1.25712213820776      0.27463009850174      1.85044563748068
  H   -0.15334918627584     -0.94405574959173      1.97782325013670
  C   -0.92161092867729      0.96143504588483     -0.61683688082259
  H   -0.24546181900178      1.79417740588742     -0.42358935972859
  H   -1.92086760012152      1.22183519737486     -0.26044275380952
  H   -0.98245624335981      0.78096711823815     -1.69082432089850
  C   1.96942763639349      0.18509007062835     -0.24516905210679
  N   2.82249614345584      0.98199801978258     -0.12995373509831
