14
Coordinates from ORCA-job run
  C   -0.35097495297056     -0.20425674587384      0.18582247916746
  C   1.15868960365436     -0.43207236283196      0.07322452264460
  F   -0.95191364820522     -1.26821911219911     -0.52687173070838
  H   1.40498140817520     -1.39417229440823      0.53308214529174
  H   1.68136120761758      0.35000867738749      0.62817424926209
  N   -0.70774421097003     -0.23762544615169      1.56089947284121
  H   -0.50491300976243     -1.14585888053533      1.96147134313122
  H   -1.69615866753929     -0.05053617788943      1.67551326957388
  C   -0.81519960681356      1.07800390287049     -0.46634445631085
  H   -1.90104385492367      1.15758132827760     -0.37768784465222
  H   -0.56075116079032      1.07498205980161     -1.52621727429538
  H   -0.35553672896483      1.93992671437747      0.01872896960499
  C   1.61617877898981     -0.44374142046691     -1.31308679706440
  N   1.98402484250297     -0.42302024235814     -2.42670834848598
