14
Coordinates from ORCA-job run
  C   -0.43128744263644     -0.28619949342611      0.11086793679455
  C   1.09824548712638     -0.46432154808477      0.09076067492989
  F   -0.92246898340622     -1.32749954878882     -0.67720607244529
  H   1.32940478947398     -1.45863847604331      0.48554829551783
  H   1.56002173125589      0.27567764986467      0.75027007237114
  N   -0.99466841706588     -0.44181831478245      1.41673362304658
  H   -0.54605286148199     -1.17774019762007      1.94653033359380
  H   -0.98149497809840      0.41978469007792      1.94288375759901
  C   -0.88478310875690      1.01772196569092     -0.50663269464323
  H   -1.97266408773907      1.06865238819952     -0.45203452600509
  H   -0.45607314648278      1.87409005578473      0.02007637840288
  H   -0.58014560364293      1.06136507523887     -1.55212563373894
  C   1.66888948065564     -0.34244380046592     -1.24827735526599
  N   2.11207714079870     -0.21763044564516     -2.32739479015713
