14
Coordinates from ORCA-job run
  C   0.69036194414574     -0.06977269534669     -0.03504115198139
  C   -0.67527960712535      0.08086776140292     -0.13004552962767
  N   1.47054642544389     -1.19532350518845     -0.15900552002026
  H   0.96452125153165     -2.06504296643392     -0.12583950161216
  H   2.30030748315064     -1.14828844358571      0.41438577511857
  N   1.49609621107664      1.12461961813157      0.21561864626395
  O   1.01390830135385      2.23725279530107     -0.01765173619890
  O   2.66900070283380      0.93216097801786      0.54492765141380
  N   -1.49957038995414     -1.12718917808454     -0.15938017118376
  O   -0.97097810312171     -2.21152244140661     -0.42361552104124
  O   -2.71375599447064     -0.96424753493238     -0.01647148693137
  N   -1.43547760984096      1.22057518380082     -0.24525883726402
  H   -0.95585173732828      2.07685443824379     -0.02218869945442
  H   -2.35382887769514      1.10905599008027      0.15856608251888
