14
Coordinates from ORCA-job run
  C   0.66704749853928     -0.09231101191625     -0.06680714279335
  C   -0.69138718789665      0.10192927181034      0.04179566504581
  N   1.30825755873184     -1.31168442468577     -0.19446219203471
  H   1.03862605361814     -1.85272876391191     -1.00046799903944
  H   2.30609314055344     -1.21052780651933     -0.08618167604289
  N   1.54695111682112      1.06265084215786      0.08151777634057
  O   1.05157574319585      2.19218215058443      0.17866177183857
  O   2.75874459771877      0.83512237787389      0.14379709601752
  N   -1.55214487487434     -1.08974779193289     -0.01549589889556
  O   -2.60640569269473     -1.02705992650874      0.62100246784266
  O   -1.16538018455057     -2.06889235564447     -0.65147761837300
  N   -1.43216867535249      1.25014759204275      0.08225455462106
  H   -0.90907071194661      2.07932296752711      0.31615612956391
  H   -2.31973838186307      1.13159687912298      0.54870706590885
