14
Coordinates from ORCA-job run
  C   -0.64510352110948     -0.13014752806934     -0.11762660615650
  C   0.68727320593806      0.11734016939071     -0.02855867615087
  N   -1.21954073150970     -0.18940052923235     -1.39993825055369
  H   -1.94534315012420      0.51210924051378     -1.49789050670990
  H   -1.65571885412954     -1.09153334203695     -1.55562270148569
  N   -1.47452432620336     -0.29705128727782      1.06054392675047
  O   -0.94604595403511     -0.23857351389570      2.17013478707465
  O   -2.67549721600345     -0.48739716224972      0.85134403943469
  N   1.41870346634257      0.21968033318638      1.24214328659043
  O   1.52843238625291      1.34749255476660      1.71000621313890
  O   1.91371600997313     -0.81800606175255      1.66628263783311
  N   1.49026362653094      0.28288091467104     -1.09615425731396
  H   1.06064544413457      0.25624054133834     -2.00632154353521
  H   2.46173961394268      0.51436567064757     -0.99934234891644
