14
Coordinates from ORCA-job run
  C   0.69066453364733     -0.08452229290519      0.00119896045342
  C   -0.67306407156466      0.10172536405127     -0.14727218935325
  N   1.43059939701678     -1.22304245307286     -0.17849313562313
  H   0.89683527124369     -2.07637680557159     -0.20088873056834
  H   2.28817435843368     -1.23080225833313      0.35246607330295
  N   1.52578820777824      1.06442003099182      0.33204674562887
  O   2.69047272664784      0.82013935557513      0.65870855317231
  O   1.04355181011197      2.20272344318392      0.29206205121474
  N   -1.53009003497958     -1.06798428275528     -0.29926055482337
  O   -2.74571454796552     -0.87177215253440     -0.21692895697524
  O   -1.02035888560122     -2.18060052389757     -0.47905135987487
  N   -1.37898990698320      1.27246572198857     -0.23904534840884
  H   -2.33898584509945      1.18297501688868      0.05765974322202
  H   -0.87988301268590      2.09165183639063      0.06679814863272
