14
Coordinates from ORCA-job run
  C   -0.65858776582482     -0.11955698368429     -0.08990602986368
  C   0.66480092353238      0.13230950069742     -0.02143418209167
  N   -1.43167008525905     -0.25439007830948     -1.23580258377503
  H   -2.22914117852695      0.36563114687653     -1.26444130363549
  H   -0.91054728330953     -0.26809636435878     -2.09755772432199
  N   -1.46675395643139     -0.33168571833994      1.11678627356003
  O   -1.07779780058048     -1.14150148004168      1.95042994932568
  O   -2.51766582323415      0.30725182492873      1.15346086450847
  N   1.39820843788047      0.05769812405426      1.24796269235149
  O   2.45079236183802     -0.57734069827165      1.19927245625196
  O   0.95298926756540      0.65563195891958      2.22090527774868
  N   1.50403879342071      0.51647694651615     -1.06016782279565
  H   1.03250172550542      0.76148953503755     -1.91575977162077
  H   2.28883238342396     -0.10391771402439     -1.20274809564203
