14
Coordinates from ORCA-job run
  C   -0.68133418359511     -0.14506635009409     -0.09167846512302
  C   0.63919365335023      0.15391621570194     -0.06797184613119
  N   -1.41566730053910     -0.28084249827639     -1.23238916775327
  H   -0.94638387024522      0.10527664022853     -2.04091395769288
  H   -2.39163953669320     -0.03888918797375     -1.13982866756891
  N   -1.46466067233737     -0.49219789453851      1.10292685506643
  O   -2.39155927403487      0.27322436596469      1.35954501838335
  O   -1.18320257886535     -1.53423711807211      1.67874918835211
  N   1.38355575737980      0.25701697861871      1.18257320916947
  O   0.75423520887335      0.38396248258797      2.23091761722544
  O   2.61205519850490      0.24448021920838      1.07967803330735
  N   1.30113842890821      0.35253896429754     -1.28907201710027
  H   1.90263415206552      1.16628517610103     -1.24545961340896
  H   1.88063501722823     -0.44546799375393     -1.52607618672565
