14
Coordinates from ORCA-job run
  C   0.68195021965818     -0.00245429549579      0.00870809924375
  C   -0.67535696935409     -0.00142008137697     -0.09601710818729
  N   1.55236108325059     -0.25710512087593     -1.01782156027305
  H   2.32653245678481      0.36899725641170     -1.16801181144208
  H   1.17841409575448     -0.70027763682976     -1.83891019548370
  N   1.34083121015462      0.32808902351700      1.28144469510569
  O   0.75824520991516      1.11302200238309      2.02618359228479
  O   2.45548956845716     -0.15634222248096      1.46959875202826
  N   -1.52355744130495     -0.21558998778563      1.08630389799700
  O   -1.06781800737158     -0.92357171262575      1.98142515718912
  O   -2.64998221490319      0.27711277901484      1.05576119091392
  N   -1.37665629667842      0.14940592378952     -1.26297930387064
  H   -0.87772969830729      0.51536745269884     -2.05519600102551
  H   -2.12272321605546     -0.49423338034419     -1.47048940448026
