14
Coordinates from ORCA-job run
  C   0.69061329161376      0.12269298283052      0.02617482942939
  C   -0.62122544672398     -0.14643158928421     -0.17403472227131
  N   1.66108923112857     -0.05179757518642     -0.91563402257583
  H   2.44492734921365      0.58005479414368     -0.83785480654510
  H   1.27978242818461     -0.16000955479764     -1.84619073739269
  N   1.25975020580696      0.50997415551108      1.32537126204177
  O   1.78198078081966      1.62217321789946      1.35585786612924
  O   1.23757395504104     -0.32319052339973      2.22090434505990
  N   -1.61340400242218      0.02981972476153      0.88094944463605
  O   -1.31678070304425      0.71670079147307      1.85631164747565
  O   -2.70571638361444     -0.50798505170635      0.68697508487565
  N   -1.02081788187693     -0.62305092248805     -1.43180405305522
  H   -1.21812056575906     -1.61752560426982     -1.40058138696736
  H   -1.86165225836739     -0.15342484548715     -1.74544475084014
