14
Coordinates from ORCA-job run
  C   0.69156596362290     -0.03121278323546      0.02680877132568
  C   -0.69081972623026      0.03116903547173     -0.02513137338588
  N   1.50798594645523     -1.12074654433998     -0.12956632141142
  H   1.13520221935249     -1.85435881090282     -0.70802492858539
  H   2.47295866094825     -0.86628739693580     -0.27701244791142
  N   1.43014303287288      1.16155616145993      0.42319876429253
  O   0.81001654949731      2.16430656026914      0.79570029118761
  O   2.66118551256163      1.09838062097401      0.35399789501086
  N   -1.42980431286321     -1.16064800360081     -0.42473344073309
  O   -2.66116987154346     -1.09476798820190     -0.36425637034268
  O   -0.80990645220801     -2.16524002670207     -0.79253759446891
  N   -1.50712674277509      1.12020214246915      0.13355753480782
  H   -1.13694105854351      1.85236771093241      0.71537517345076
  H   -2.47328972114714      0.86627932234247      0.27362404676355
