14
Coordinates from ORCA-job run
  C   0.64315935810627      0.13773427340616     -0.06503709933126
  C   -0.68358016911912     -0.13104884652734     -0.09603822861592
  N   1.32083541789910      0.29992505929375     -1.28308662389156
  H   1.93534380107549      1.10446005301001     -1.24955337937082
  H   1.89027448808058     -0.51205987605415     -1.49584130458485
  N   1.37873390786615      0.24388588205595      1.19080446825549
  O   2.60725520675998      0.19651626249571      1.09940097250266
  O   0.74372454592015      0.40561406169654      2.23080354750911
  N   -1.48553928491406     -0.43786709883571      1.09738119213745
  O   -1.23278135229312     -1.47490103553174      1.69510952963005
  O   -2.39688954000653      0.35296297766576      1.33129484670425
  N   -1.41111080087075     -0.26996450764644     -1.24052386697486
  H   -2.38195620747652     -0.00401609776531     -1.16123769637369
  H   -0.92646937102761      0.08875889273681     -2.05247635759605
