14
Coordinates from ORCA-job run
  C   -0.65670630708139     -0.11423850507599     -0.09724549596548
  C   0.67077027620507      0.11005601449860     -0.01479830458176
  N   -1.42674918939223     -0.20327735067655     -1.24978684667014
  H   -0.94104749424031      0.02637114886701     -2.10171689552086
  H   -1.95837061560725     -1.06031064675278     -1.31610138345879
  N   -1.49361982088089     -0.25185555605843      1.10144669259682
  O   -1.42873067209827      0.61411780877245      1.96604225491778
  O   -2.24357319607400     -1.22721660377656      1.09780973299686
  N   1.32660267360930      0.37468205374885      1.27103248089550
  O   2.10492893142044      1.32755104365647      1.26673888464751
  O   1.09876104141190     -0.37467719895676      2.21401634330175
  N   1.59364582881957      0.09049059175001     -1.05348937744163
  H   2.11359213182247      0.95083934709393     -1.15566429553942
  H   1.24049641208558     -0.26453214709023     -1.92728379017812
