14
Coordinates from ORCA-job run
  C   0.68019687939384      0.13234642058189     -0.02644212620958
  C   -0.64933815124349     -0.13104760299071     -0.10312247804904
  N   1.44619283176793      0.36821983497276     -1.14414810422548
  H   2.43093200503191      0.21110720588440     -0.97916747513728
  H   1.08238425461504     -0.11280190862529     -1.95809068659863
  N   1.40144096581921      0.38426113811069      1.22698384483947
  O   0.86215094403537      1.08844198489221      2.07218142467382
  O   2.53226950755456     -0.09976374545287      1.29152683467506
  N   -1.44375518932786     -0.53314587343610      1.05330026794293
  O   -2.66832571642570     -0.45627394529089      0.91830720357961
  O   -0.86082767321664     -1.01924137229101      2.01852818259037
  N   -1.27608163626678     -0.11598077261911     -1.34657908386566
  H   -1.34484860032730      0.82187067593283     -1.72497131257843
  H   -2.19339042141006     -0.53799203966881     -1.29830649163717
