14
Coordinates from ORCA-job run
  C   -0.68894137313728     -0.10359523725900     -0.08884581039389
  C   0.65119730690105      0.08982666775812     -0.07150026006623
  N   -1.44037553437355     -0.15980836711014     -1.22487657985141
  H   -2.26297242777348     -0.74192481693390     -1.16121821628578
  H   -0.87749369958583     -0.29109171168702     -2.05478206090670
  N   -1.52685907052962     -0.14747349333059      1.11816850688037
  O   -1.62830960825053      0.88200465546839      1.77130569358609
  O   -2.11532658920724     -1.20990338388375      1.30701722899755
  N   1.40126132318217      0.17429514771212      1.17704668880122
  O   2.54040329749081      0.63759239426742      1.08949542882940
  O   0.87637712490307     -0.24565305768753      2.20625857274771
  N   1.32144498726728      0.23136710123965     -1.29602349833130
  H   1.57468427772439      1.19883558316071     -1.46522167954449
  H   2.17390998538876     -0.31547148171448     -1.30682401446255
