14
Coordinates from ORCA-job run
  C   -0.62531724141442     -0.17120934198673     -0.12984517513086
  C   0.68146821862052      0.16914772090575     -0.02456373159671
  N   -1.12914495118182     -0.50199376255248     -1.39681107061669
  H   -2.02975994115339     -0.06565278337687     -1.55268623400190
  H   -1.25222671802715     -1.50426033094624     -1.49263869131646
  N   -1.50852301559921     -0.20612890378758      1.03056633614118
  O   -1.15241071031409      0.36978832899766      2.05658421860797
  O   -2.58113107009443     -0.79310271281239      0.87204860109767
  N   1.36286618837666      0.41951758059254      1.25370121017423
  O   1.82676712211020      1.55034951714333      1.38473804136158
  O   1.47783742404819     -0.52205308457557      2.02629570787131
  N   1.55159027142640      0.19859680724659     -1.07366842182771
  H   1.07815065700791      0.18935538339792     -1.96742440131205
  H   2.30083376619463      0.86964558175407     -0.98529638945154
