14
Coordinates from ORCA-job run
  C   0.65441196700403      0.04129896739715     -0.08588065414088
  C   -0.69826019066249     -0.01955504351863     -0.07236779221937
  N   1.29749631209922      0.33849594085958     -1.29711690637649
  H   1.64448989777394      1.29157986170997     -1.30332310444972
  H   2.08829466955646     -0.27653721234541     -1.44655739966343
  N   1.44750127029252     -0.17625663561222      1.11936488366830
  O   2.62468713857018      0.18524605635861      1.06053738882273
  O   0.91427013933730     -0.72530895682961      2.08132499123125
  N   -1.49852150716639     -0.20378428122536      1.14714594715332
  O   -1.47415184511039      0.69349276375167      1.97839310420567
  O   -2.18567030624613     -1.22263552403427      1.17144634467245
  N   -1.48670656923936      0.20317702903047     -1.16202284617845
  H   -2.36134306678087     -0.30138926735449     -1.16271769826753
  H   -0.96549790942801      0.17317630181254     -2.02822625845785
