14
Coordinates from ORCA-job run
  C   -0.64822556958161     -0.14553017226729     -0.09492098441218
  C   0.66918650662129      0.13257708689903     -0.01613499009593
  N   -1.39681503615617     -0.36566173683241     -1.24317847760514
  H   -1.90674409722504     -1.23819281547670     -1.23356750109037
  H   -0.90471604921870     -0.20475598580890     -2.10704808570942
  N   -1.49976677013802     -0.20471971594931      1.10051336546577
  O   -2.20064115188171     -1.21227775023792      1.18531052547788
  O   -1.49571916406359      0.74780467652818      1.87119162733190
  N   1.29217477705626      0.53751042275351      1.24894816972346
  O   2.04830935404315      1.50447635957787      1.16531012056806
  O   1.06084941341673     -0.12008433851055      2.25745086025624
  N   1.60838772619765      0.05239215057753     -1.03777587044195
  H   2.08900362353216      0.92182730229551     -1.22218594548220
  H   1.28471643739762     -0.40636548354856     -1.87391281398611
