14
Coordinates from ORCA-job run
  C   -0.69090184197593      0.03639263222851     -0.03100760202258
  C   0.69042292797697     -0.03642287058715      0.03181561793312
  N   -1.49967360896299      1.13412725906036      0.10941946536415
  H   -2.44217662800989      0.96536024271074     -0.20842923308765
  H   -1.07928276145979      2.00938417420763     -0.15336944982280
  N   -1.45234356550965     -1.20297903883820     -0.13132552464123
  O   -0.86127797184816     -2.28670246644538     -0.06168563309437
  O   -2.67164558559635     -1.09177551583566     -0.28990156881096
  N   1.45192008459650      1.20297485323216      0.13194764901077
  O   0.86092526929124      2.28669177426753      0.06188003555617
  O   2.67114549630660      1.09175070095205      0.29098161532465
  N   1.49903310741720     -1.13397767405926     -0.10803531729798
  H   2.44262537301675     -0.96589107938863      0.20654588480654
  H   1.07922970475752     -2.00993299150469      0.15316406078216
