14
Coordinates from ORCA-job run
  C   -0.65460468699016     -0.12519576321685     -0.09632558015135
  C   0.66908236973823      0.11971019053606     -0.01498501935603
  N   -1.42360337606569     -0.22960532784646     -1.24820500053183
  H   -0.94544690335128      0.01811416179928     -2.09938718887494
  H   -1.93388170038769     -1.09911338834584     -1.31919362307615
  N   -1.48855716556948     -0.27242761906268      1.10318270693666
  O   -2.21421756271967     -1.26585756412636      1.10753976942194
  O   -1.44593333234801      0.60295507085440      1.95956904925194
  N   1.32016857630242      0.40027750581697      1.26971363787839
  O   2.08908642426024      1.36067808920642      1.25959777599401
  O   1.09747321474541     -0.34366424164995      2.21818078009469
  N   1.59254186121245      0.10879604890259     -1.05374870624617
  H   2.09744546409208      0.97765911818844     -1.16028693162272
  H   1.24044681708115     -0.25232628105601     -1.92565166971843
