14
Coordinates from ORCA-job run
  C   0.68401787529520      0.15525999776307     -0.02924701391348
  C   -0.63687337173802     -0.13150519562681     -0.11868140032138
  N   1.47732408668232      0.43903148013737     -1.10314400888236
  H   1.05721259978017      0.16654628954752     -1.98223835307129
  H   2.45026014787140      0.19846096599793     -0.98098014829372
  N   1.39937996604752      0.32232813133097      1.24657930800940
  O   2.37658933746618     -0.40810791141869      1.39947173461829
  O   1.02213932715564      1.21724152864220      1.99121995105099
  N   -1.44429718927185     -0.46809449087259      1.04643355395986
  O   -0.86963888656792     -0.79719087549326      2.08171877239664
  O   -2.66594256208950     -0.44456522659230      0.87953551359340
  N   -1.23082193155070     -0.12366083409031     -1.39003707571304
  H   -1.71455571466574      0.75055928926200     -1.56490947996613
  H   -1.90279368441469     -0.87630314858711     -1.47572135346717
