14
Coordinates from ORCA-job run
  C   -0.63246366672423     -0.12372870010864     -0.14457929470165
  C   0.69606700495809      0.09122279560217     -0.00347335273009
  N   -1.16554821783659     -0.18548409390854     -1.44309041648240
  H   -1.50986406882622     -1.11710896738814     -1.64867085990573
  H   -1.94511178167837      0.45568801024933     -1.54132111301715
  N   -1.52480977156138     -0.25142853229871      1.00189205235818
  O   -2.66699856207707     -0.64471389591651      0.75007129814375
  O   -1.12187660990546      0.10181600897016      2.10832084371576
  N   1.38869459022752      0.12960941470737      1.29331311271271
  O   1.87613999465308      1.21956078466285      1.58807873732651
  O   1.53414594586712     -0.92990405110302      1.88655784515726
  N   1.57569248725999      0.17768759755245     -1.04078816755709
  H   2.38231338801081      0.76206089665576     -0.87370717249763
  H   1.11461926763272      0.31472273232347     -1.93060351252242
