14
Coordinates from ORCA-job run
  C   -0.62188848439277     -0.19421728358447     -0.11819370239592
  C   0.67251240725171      0.19541168557668     -0.03707372494105
  N   -1.19712828532288     -0.33505077090765     -1.39050255953707
  H   -1.74247836499142     -1.18689600621327     -1.44565379642880
  H   -1.82033453879305      0.43852677573635     -1.59626509628720
  N   -1.42573124776852     -0.45340495716535      1.07071779783459
  O   -0.84978443988622     -0.60985123310735      2.14545636740156
  O   -2.64558957299845     -0.50176236722926      0.89697053927886
  N   1.36411494052598      0.50118538076553      1.22376459607744
  O   0.96509804584742      1.46043908409748      1.86933987234767
  O   2.34047771381126     -0.20553729942575      1.46524108879010
  N   1.45696943486109      0.47228767404956     -1.11737802842892
  H   1.06316136281476      0.12487139420987     -1.98174934893429
  H   2.44160102904110      0.29199792319763     -0.98367400477697
