14
Coordinates from ORCA-job run
  C   0.69673069364969      0.08893284152981     -0.01944144320854
  C   -0.64254201894411     -0.07258607290290     -0.13707240700715
  N   1.55729994623057      0.15323275566811     -1.07409242590158
  H   2.38423421989805      0.71068591251043     -0.91703033836295
  H   1.08373690476023      0.31184736655498     -1.95330442733231
  N   1.41234007966212      0.08526016092800      1.26481777773575
  O   1.43461889954700     -0.96325171117445      1.89468000746774
  O   1.99434509688386      1.13214209070415      1.54070942119496
  N   -1.51192258465923     -0.17402829436816      1.03051309242155
  O   -2.64606249534721     -0.60869266168832      0.81938107590109
  O   -1.08016336898440      0.20273447765295      2.11809096058609
  N   -1.19419650301396     -0.16497748971661     -1.42427790064442
  H   -2.01946574172756      0.41676506452978     -1.50581092989602
  H   -1.46895312795503     -1.11806444022777     -1.63616246295422
