14
Coordinates from ORCA-job run
  C   -0.68576910334119     -0.11979144565091     -0.09339675562201
  C   0.64479368407066      0.13045660966700     -0.06631805042236
  N   -1.42076736957265     -0.23425494494206     -1.23569019592033
  H   -0.93547555118511      0.12768901166670     -2.04579966946363
  H   -2.38812566375619      0.04152167578917     -1.14845340924838
  N   -1.48571874628861     -0.43240266144569      1.09975350566519
  O   -1.24246849711436     -1.47999180366053      1.68296959307362
  O   -2.38714449941196      0.36556931023783      1.34775376891770
  N   1.38809062018760      0.21144949430963      1.18640005741027
  O   0.76062425472614      0.36834524548253      2.23180053236731
  O   2.61550727901766      0.14964954327343      1.08793947686608
  N   1.31767117822219      0.29835454896201     -1.28618352000751
  H   1.87304175435099     -0.51942437109324     -1.51347561016732
  H   1.94474066009483      1.09282978740414     -1.24629972344864
