14
Coordinates from ORCA-job run
  C   -0.62639279689185     -0.16324679286814     -0.13558973664804
  C   0.68234607810336      0.16443380583873     -0.01934511334221
  N   -1.12112238005884     -0.49660209198619     -1.40544793134154
  H   -1.25733332959356     -1.49770493734078     -1.49488035561403
  H   -2.01345753750719     -0.04847952283933     -1.57488205188607
  N   -1.51830597938006     -0.19302992024590      1.01835714862219
  O   -1.16810942548077      0.38489063658126      2.04520952372734
  O   -2.59088187486251     -0.77820062106862      0.85386151267208
  N   1.35507506739352      0.41368035894663      1.26384896327098
  O   1.82638092797807      1.54121337971451      1.39543878576097
  O   1.45733435737942     -0.52703508360381      2.03917292494342
  N   1.56262880105988      0.18117060243924     -1.06047457910647
  H   2.31688721479561      0.84604175721324     -0.96797863114983
  H   1.09695087706493      0.17186842921916     -1.95829045990878
