14
Coordinates from ORCA-job run
  C   0.69329180381613      0.11162819768246     -0.00597670171361
  C   -0.63375614363470     -0.11716153764349     -0.14863636570650
  N   1.59673935872489      0.04278664871992     -1.02474881333742
  H   2.39586957116038      0.65205940844266     -0.92562939706085
  H   1.15399902215821      0.05101356393697     -1.93408629949708
  N   1.35240538119620      0.33301839284457      1.28933203244915
  O   1.89216291157217      1.42947753160019      1.42016419742026
  O   1.37684653543901     -0.60362329883451      2.07606595622398
  N   -1.55074574283950     -0.06306076387780      0.98493902719206
  O   -2.66300880691161     -0.56200950607184      0.80080775134641
  O   -1.17801402591146      0.49544769926028      2.01463248918144
  N   -1.12377166823806     -0.43271197636741     -1.42499373662954
  H   -1.97247642952420      0.08304994914513     -1.62384454553792
  H   -1.33954176700747     -1.42091430883714     -1.50002559433039
