14
Coordinates from ORCA-job run
  C   -0.68204230656723     -0.13301645696192     -0.10435738395947
  C   0.64341037604771      0.14060457664031     -0.05678820800129
  N   -1.39497519276971     -0.27083696637023     -1.25787909744732
  H   -0.90300513387462      0.09257604108125     -2.06321200529735
  H   -2.36872227196739     -0.01293942581449     -1.18924523887933
  N   -1.49653384677476     -0.44814738751781      1.07829309529199
  O   -2.41447348968803      0.33736058854140      1.30449429657340
  O   -1.24625814442309     -1.48682090221676      1.67438893459643
  N   1.36369869309745      0.24565858261881      1.20789408881542
  O   0.71622903086702      0.40198708332733      2.24107766035750
  O   2.59344264224588      0.20311184991215      1.13068591592176
  N   1.33431983780926      0.31042786238503     -1.26621458035589
  H   1.94330740924733      1.11868569941600     -1.22400865167378
  H   1.91060239675018     -0.49765114504105     -1.47512882594209
