14
Coordinates from ORCA-job run
  C   -0.68314883114195     -0.12882742807253     -0.10074036460138
  C   0.64372348345300      0.13812587092494     -0.06044118837570
  N   -1.40478010326477     -0.25636069487022     -1.25033103054123
  H   -2.37579360338505      0.00981921045142     -1.17373716720077
  H   -0.91552597532221      0.10972577354121     -2.05623352912544
  N   -1.49144092915871     -0.44717091440636      1.08519798255506
  O   -2.40392144106573      0.34152208228628      1.32210998915521
  O   -1.24272579325851     -1.49075864070117      1.67324005642850
  N   1.37249819288364      0.23139740963425      1.20014062078518
  O   0.73186639980116      0.38395541409310      2.23816638043313
  O   2.60151787370783      0.18382228508095      1.11521703851789
  N   1.32786680241835      0.31088200580903     -1.27324775653168
  H   1.89565457544775     -0.50058015836909     -1.49220453430137
  H   1.94420934888518      1.11344778459819     -1.22913649719739
