14
Coordinates from ORCA-job run
  C   0.66989493783858      0.11129915655205     -0.01496873473839
  C   -0.65703710462130     -0.11504014978285     -0.09764501047721
  N   1.59247050281947      0.10077444310026     -1.05424268073753
  H   1.23555112539984     -0.23938178498083     -1.93250109479097
  H   2.11404016484890      0.96150312417240     -1.14530677373313
  N   1.32751284073515      0.36322811325860      1.27284090555840
  O   2.10390876795703      1.31765523663506      1.27766852325674
  O   1.10263085577945     -0.39674560540958      2.20791693655214
  N   -1.49146117196981     -0.26366049378096      1.10130973530997
  O   -1.42597422638331      0.59484023593942      1.97335330733919
  O   -2.24077052393107     -1.23943353909502      1.09042860371961
  N   -1.42875860639022     -0.19365737252495     -1.25000496718973
  H   -1.95428622671890     -1.05335801982802     -1.32856988867856
  H   -0.94672133536384      0.05297665574442     -2.09927886139052
