14
Coordinates from ORCA-job run
  C   0.64310878031029      0.14323716953148     -0.05555398302226
  C   -0.68081050222263     -0.13710679406951     -0.10458871535703
  N   1.33595613803973      0.30763795022732     -1.26464431762337
  H   1.94686046952257      1.11451011351794     -1.22379413666256
  H   1.91066007306873     -0.50245077793092     -1.47033951512451
  N   1.35943211797169      0.26238264176991      1.20972317834635
  O   0.70787720690717      0.41773354838188      2.24049072380398
  O   2.58973923724981      0.23215723592180      1.13573802598228
  N   -1.49758127102646     -0.44876632019789      1.07732564839838
  O   -1.24400187547047     -1.48212386950560      1.68109281698106
  O   -2.42034338199716      0.33340304624583      1.29517991207961
  N   -1.38986282677504     -0.28589883212615     -1.25943150218435
  H   -0.89662561464216      0.07584407913297     -2.06489126064958
  H   -2.36440855093608     -0.02955919089906     -1.19530687496799
