14
Coordinates from ORCA-job run
  C   0.69344794554647      0.11207600009592     -0.01097146883705
  C   -0.63363923133986     -0.12205756577567     -0.14355580852351
  N   1.59332366746329      0.02275184317712     -1.03166892498938
  H   1.14735362702839      0.01206597866125     -1.93940598029369
  H   2.39043001530650      0.63703995592209     -0.94779989307516
  N   1.35721712316351      0.36067616364356      1.27712052909025
  O   1.37162727930305     -0.55360153975983      2.08995511420060
  O   1.90936020048375      1.45433184722500      1.37730748531818
  N   -1.54724168178732     -0.03949274826661      0.99115588025147
  O   -1.17515900208113      0.55324553159954      2.00182257624723
  O   -2.65687492813291     -0.55094753874612      0.82628283691360
  N   -1.12854200597408     -0.46663411401148     -1.41033965728667
  H   -1.33961115790924     -1.45724865147752     -1.46423091884786
  H   -1.98069185107043      0.04079483771274     -1.61567177016802
