15

C	-0.48919	0.0063	-1.430469
C	0.0	0.0	0.0
F	-0.078158	1.129658	-2.071407
H	1.094182	0.0	0.0
H	-0.323095	0.965997	0.403928
N	0.062017	-1.187934	-2.219843
O	-0.440362	-2.270302	-1.933011
O	0.928533	-0.967563	-3.045271
C	-1.957907	-0.079042	-1.545687
N	-3.131035	-0.087198	-1.600978
C	-0.522072	-1.144163	0.86101
H	-0.166288	-0.991242	1.882159
H	-0.134857	-2.102346	0.517449
H	-1.614822	-1.195963	0.877758
Br	3.55007	0.0	0.0
