15

C	-0.446259	-0.030411	-1.438677
C	0.0	0.0	0.0
F	-0.051575	-1.176964	-2.048667
H	1.093915	0.0	0.0
H	-0.342228	-0.942478	0.439125
N	-1.985343	-0.04849	-1.46519
O	-2.51005	-1.14111	-1.30181
O	-2.559587	1.031435	-1.56347
C	-0.018834	1.122876	-2.240313
N	0.324315	2.042734	-2.885026
C	-0.508752	1.209855	0.773759
H	-1.595404	1.220037	0.889466
H	-0.054498	1.199039	1.765936
H	-0.203749	2.139284	0.288092
Br	3.52458	0.0	0.0
