15

C	-0.470734	-0.016774	-1.432958
C	0.0	0.0	0.0
F	-0.122664	1.113311	-2.0984
H	1.097125	0.0	0.0
H	-0.331202	-0.932637	0.46312
N	0.164984	-1.202708	-2.174195
O	-0.1153	-2.299236	-1.708254
O	0.863684	-0.958638	-3.141513
C	-1.929942	-0.202937	-1.563472
N	-3.096489	-0.327652	-1.629701
C	-0.530193	1.216498	0.747158
H	-1.623343	1.23248	0.803171
H	-0.18611	2.136103	0.272454
H	-0.133047	1.204479	1.763525
Br	3.5491	0.0	0.0
