15

C	-0.448977	-0.251603	-1.416092
C	0.0	0.0	0.0
F	-0.005278	-1.440842	-1.887446
H	1.095381	0.0	0.0
H	-0.336419	1.000342	0.28374
N	-1.990157	-0.328828	-1.423817
O	-2.505561	-1.421909	-1.606984
O	-2.567483	0.723635	-1.177177
C	-0.094185	0.81674	-2.361191
N	0.160601	1.666245	-3.130966
C	-0.520057	-1.061641	0.961514
H	-0.026081	-0.92847	1.925616
H	-0.273525	-2.061893	0.601352
H	-1.601685	-0.999125	1.115636
Br	3.539063	0.0	0.0
