15

C	-0.553386	-0.011317	-1.401576
C	0.0	0.0	0.0
F	-1.907908	-0.232729	-1.389029
H	1.100072	0.0	0.0
H	-0.316721	-0.954324	0.435338
N	-0.35285	1.364825	-2.045545
O	-1.314229	2.122425	-2.038618
O	0.7745	1.595803	-2.457838
C	0.053135	-1.007466	-2.292643
N	0.435789	-1.855649	-3.008359
C	-0.521921	1.172404	0.8234
H	-1.610677	1.254416	0.792871
H	-0.206463	1.036718	1.859277
H	-0.087814	2.112714	0.477681
Br	3.555547	0.0	0.0
