15

C	-0.450616	-0.217618	-1.420359
C	0.0	0.0	0.0
F	-0.019001	-1.415399	-1.890965
H	1.102262	0.0	0.0
H	-0.334573	-0.881003	0.557766
N	-1.990548	-0.288255	-1.435783
O	-2.483969	-1.379383	-1.185824
O	-2.595413	0.764527	-1.615152
C	-0.067537	0.844341	-2.360068
N	0.235076	1.681343	-3.125722
C	-0.507156	1.295758	0.620334
H	-1.592574	1.317549	0.746299
H	-0.212022	2.157536	0.017544
H	-0.040962	1.411678	1.600348
Br	3.530954	0.0	0.0
