13

C	-0.436002	-0.243897	-1.450755
C	0.0	0.0	0.0
F	-0.593302	1.020929	-2.01213
H	1.088823	0.0	0.0
H	-1.409855	-0.740788	-1.492462
H	-0.41254	0.910933	0.425119
N	0.49334	-0.978145	-2.250767
H	0.489366	-1.936886	-1.92567
H	1.426988	-0.615044	-2.07383
N	-0.445333	-1.122132	0.853607
O	-0.374227	-2.260655	0.382584
O	-0.85848	-0.865048	1.983704
Br	3.503303	0.0	0.0
