13

C	-0.551497	-0.00074	-1.420631
C	0.0	0.0	0.0
F	-0.343287	-1.291107	-1.88818
H	1.08737	0.0	0.0
H	0.021933	0.678259	-2.050543
H	-0.397884	-0.843116	0.563136
N	-1.946018	0.310769	-1.551298
H	-2.071702	1.310571	-1.613841
H	-2.471971	-0.036897	-0.759705
N	-0.451073	1.231736	0.682352
O	-1.015719	1.127781	1.774061
O	-0.248907	2.298473	0.099632
Br	3.514146	0.0	0.0
