13

C	-0.41267	0.08703	-1.446355
C	0.0	0.0	0.0
F	-1.787604	0.341256	-1.543986
H	1.091348	0.0	0.0
H	-0.274101	-0.880965	-1.936282
H	-0.385346	0.845077	0.565799
N	0.301474	1.17835	-2.037521
H	0.2928	1.095381	-3.045969
H	1.269105	1.166153	-1.723668
N	-0.496092	-1.230433	0.653472
O	-0.429687	-2.285283	0.024598
O	-0.924448	-1.127325	1.8036
Br	3.480328	0.0	0.0
