10
Coordinates from ORCA-job run
  C   1.06625174931450      0.11373342601469      0.28929253108354
  C   -0.23474032238603     -0.27811934949728     -0.38648032059772
  Cl  2.41821489095629     -0.89000499954958     -0.30721144759158
  H   -0.13801784669292     -0.10020662861047     -1.45978556289153
  H   1.00700131483428     -0.03075880075971      1.36852438909897
  H   1.29811362280763      1.15581997998985      0.07875715425828
  H   -0.40602441318188     -1.35411264811002     -0.24909842490021
  N   -1.29768893991287      0.57768002355608      0.13634200972558
  H   -1.62457695414782      0.22451624220043      1.02665579014173
  H   -2.08753310159116      0.58145275476603     -0.49499611832706
