10
Coordinates from ORCA-job run
  C   1.02381825582295     -0.08420076773017      0.28509860709101
  C   -0.29657086982527     -0.51865379927676     -0.33816742583574
  Cl  1.55953641226172      1.49068224616363     -0.37465183782123
  H   -0.16542555511129     -0.60246608351549     -1.41998982741275
  H   0.92537959573725      0.04012337874552      1.36466442916172
  H   1.81520905514938     -0.80518717543722      0.07485926887490
  H   -0.52036192707508     -1.52343890539726      0.03718200635249
  N   -1.44820702893402      0.32942624855111     -0.08676852721321
  H   -1.27902547326433      1.25923705671675     -0.44861794686569
  H   -1.61535246476131      0.41347780117988      0.90839125366850
