16

C	-0.330049	0.232302	-1.457544
C	0.0	0.0	0.0
F	-1.696264	0.345039	-1.685365
H	1.109822	0.0	0.0
N	0.303755	1.460792	-1.816446
H	1.243161	1.470582	-1.413418
H	0.37555	1.524358	-2.823657
C	0.132834	-0.89121	-2.309679
N	0.539636	-1.645702	-3.111869
N	-0.494962	-1.233616	0.569382
O	-0.843119	-2.139328	-0.197202
O	-0.402052	-1.341765	1.796471
N	-0.480272	1.142217	0.813719
O	0.305761	2.067803	0.986374
O	-1.635757	1.097767	1.232548
H	2.455455	0.0	0.0
