16

C	-0.432004	0.073517	-1.461246
C	0.0	0.0	0.0
F	0.048253	-1.114286	-2.047075
H	1.087265	0.0	0.0
N	-1.830495	0.228525	-1.619705
H	-2.072012	0.276217	-2.602162
H	-2.285171	-0.561922	-1.179523
C	0.25055	1.154791	-2.206186
N	0.679291	1.942901	-2.963996
N	-0.437964	-1.22411	0.664777
O	0.176581	-1.512579	1.693527
O	-1.335119	-1.920673	0.161552
N	-0.420905	1.16294	0.753992
O	-0.936286	1.033132	1.869886
O	-0.141333	2.24412	0.219894
H	2.377366	0.0	0.0
