16

C	-0.425576	-0.120909	-1.457128
C	0.0	0.0	0.0
F	-0.166758	-1.426374	-1.849071
H	1.089944	0.0	0.0
N	-1.821644	0.115733	-1.657479
H	-2.010936	0.196196	-2.648925
H	-2.054565	0.994586	-1.212241
C	0.455134	0.721738	-2.314792
N	1.060367	1.354159	-3.097717
N	-0.452688	-1.184564	0.768807
O	-1.592542	-1.157586	1.23153
O	0.333358	-2.124457	0.854949
N	-0.391614	1.196437	0.63308
O	-0.624156	2.190314	-0.104188
O	-0.228641	1.262015	1.867748
H	2.334761	0.0	0.0
