13

C	-0.288743	0.007016	-1.478836
C	0.0	0.0	0.0
Br	-2.193926	0.251464	-1.918074
H	1.09607	0.0	0.0
H	0.224829	0.868479	-1.907897
C	0.167359	-1.223107	-2.111856
N	0.501455	-2.221459	-2.63391
C	-0.529421	-1.129069	0.7176
N	-0.900922	-2.101535	1.266318
N	-0.327003	1.260997	0.624234
O	-0.543853	1.268984	1.844309
O	-0.190454	2.2754	-0.078514
H	2.344578	0.0	0.0
