13

C	-0.27501	0.006627	-1.481105
C	0.0	0.0	0.0
Br	-2.17073	0.261507	-1.941248
H	1.096082	0.0	0.0
H	0.250107	0.864043	-1.902996
C	0.179944	-1.226494	-2.110062
N	0.502238	-2.229025	-2.631402
C	-0.535742	-1.127779	0.713318
N	-0.90729	-2.104595	1.25435
N	-0.33377	1.260586	0.620259
O	-0.187673	2.27646	-0.080827
O	-0.56716	1.267182	1.837476
H	2.342156	0.0	0.0
