13

C	-0.384536	-0.019714	-1.473348
C	0.0	0.0	0.0
Br	0.136186	1.640071	-2.359154
H	1.091599	0.0	0.0
H	0.243967	-0.801115	-1.935623
C	-1.800679	-0.264405	-1.743509
N	-2.923384	-0.484267	-1.99779
C	-0.499418	-1.197088	0.651654
N	-0.860752	-2.201177	1.142809
N	-0.569125	1.196985	0.686951
O	-1.771761	1.184246	0.939821
O	0.178789	2.116187	0.934659
H	2.560038	0.0	0.0
