13

C	-0.458184	0.017945	-1.455581
C	0.0	0.0	0.0
Br	-0.143567	-1.735728	-2.272913
H	1.091576	0.0	0.0
H	-1.534213	0.184517	-1.525286
C	0.234871	1.025241	-2.258788
N	0.748003	1.798503	-2.979855
C	-0.447392	-1.147031	0.750687
N	-0.749	-2.097568	1.377861
N	-0.412408	1.210127	0.672089
O	-0.188991	1.27349	1.887296
O	-0.847913	2.151986	-0.027343
H	2.347476	0.0	0.0
