13

C	-0.450141	-0.016044	-1.454167
C	0.0	0.0	0.0
Br	0.137752	1.608871	-2.371923
H	1.091535	0.0	0.0
H	0.095102	-0.836192	-1.934304
C	-1.884621	-0.174878	-1.667529
N	-3.030121	-0.335783	-1.879055
C	-0.504271	-1.17459	0.68594
N	-0.893254	-2.151678	1.21365
N	-0.532635	1.22142	0.702304
O	-1.757081	1.308662	0.81538
O	0.281788	2.043297	1.104496
H	2.572108	0.0	0.0
