13

C	-0.465489	0.037965	-1.449793
C	0.0	0.0	0.0
Br	-0.166765	-1.705887	-2.292395
H	1.09155	0.0	0.0
H	-1.539297	0.220206	-1.513516
C	0.231002	1.047874	-2.24659
N	0.735246	1.827187	-2.967221
C	-0.43987	-1.154238	0.745915
N	-0.7417	-2.101774	1.375549
N	-0.404689	1.204025	0.692312
O	-0.804358	2.16371	0.003844
O	-0.190882	1.248947	1.911844
H	2.348295	0.0	0.0
