13

C	-0.340196	-0.009787	-1.489057
C	0.0	0.0	0.0
Br	0.138988	1.674498	-2.347669
H	1.091618	0.0	0.0
H	0.330263	-0.755675	-1.929139
C	-1.729507	-0.30789	-1.802099
N	-2.84553	-0.557041	-2.072055
C	-0.496694	-1.215176	0.614541
N	-0.857723	-2.238171	1.06899
N	-0.590373	1.181981	0.693017
O	-1.787278	1.130549	0.990813
O	0.158212	2.12997	0.910519
H	2.545076	0.0	0.0
