12

C	-0.510409	-0.057999	-1.430287
C	0.0	0.0	0.0
F	-0.083862	1.071281	-2.099568
H	1.091057	0.0	0.0
H	-1.601617	-0.076601	-1.454241
H	-0.087787	-0.939423	-1.918629
C	-0.530964	-1.121115	0.762207
N	-0.964885	-2.052191	1.331361
N	-0.509148	1.273929	0.636511
O	0.300279	1.987502	1.211508
O	-1.716031	1.492867	0.523649
Br	3.413996	0.0	0.0
