12

C	-0.39514	0.00848	-1.455168
C	0.0	0.0	0.0
F	-1.777383	-0.016068	-1.601718
H	1.094338	0.0	0.0
H	-0.008676	0.910582	-1.925447
H	0.023779	-0.878522	-1.9331
C	-0.529562	-1.151104	0.715722
N	-0.928793	-2.118382	1.247659
N	-0.427374	1.271357	0.681248
O	-0.799742	1.19996	1.848484
O	-0.321205	2.30264	0.025554
Br	3.329855	0.0	0.0
