12

C	-0.481795	0.089964	-1.448858
C	0.0	0.0	0.0
F	-0.380839	-1.161776	-2.023516
H	1.090499	0.0	0.0
H	-1.526934	0.407324	-1.498011
H	0.156145	0.78205	-1.996202
C	-0.551918	-1.151911	0.692319
N	-1.030194	-2.091283	1.207984
N	-0.381032	1.255255	0.724166
O	-0.53926	1.203431	1.938941
O	-0.452555	2.273876	0.035893
Br	3.331803	0.0	0.0
