12

C	-0.520899	-0.098467	-1.42306
C	0.0	0.0	0.0
F	0.124021	0.78493	-2.253779
H	1.090502	0.0	0.0
H	-1.593155	0.110072	-1.460661
H	-0.321754	-1.112308	-1.77812
C	-0.501972	-1.124911	0.77916
N	-0.956802	-2.059105	1.326988
N	-0.432023	1.269219	0.682565
O	-0.880412	2.170973	-0.021808
O	-0.269496	1.32099	1.896513
Br	3.3431	0.0	0.0
