12

C	-0.510836	-0.122196	-1.425048
C	0.0	0.0	0.0
F	-0.146258	1.007453	-2.130237
H	1.091056	0.0	0.0
H	-1.598814	-0.202345	-1.448085
H	-0.039622	-0.993256	-1.885087
C	-0.507307	-1.11255	0.794605
N	-0.927168	-2.032506	1.391748
N	-0.538606	1.275628	0.598782
O	-1.748796	1.463515	0.472976
O	0.249366	2.018425	1.165886
Br	3.415325	0.0	0.0
