17

C	-0.246693	-0.072784	-1.510794
C	0.0	0.0	0.0
Cl	-2.016243	-0.25672	-1.874109
H	1.105676	0.0	0.0
C	0.241691	1.19026	-2.201169
H	-0.32084	2.068994	-1.882484
H	0.134077	1.079263	-3.283449
H	1.299352	1.323251	-1.953521
N	0.414078	-1.28734	-1.950227
H	0.358667	-1.351886	-2.959896
H	1.398318	-1.20821	-1.684918
N	-0.546208	-1.161976	0.705715
H	-0.46394	-1.938015	0.055013
H	0.087722	-1.361775	1.472398
C	-0.515267	1.239601	0.578919
N	-0.924442	2.235575	1.047131
Br	3.482029	0.0	0.0
