17

C	-0.386665	0.015572	-1.49317
C	0.0	0.0	0.0
Cl	0.112277	-1.646367	-2.154476
H	1.095446	0.0	0.0
C	-1.87639	0.129877	-1.736129
H	-2.095846	0.049024	-2.803894
H	-2.22582	1.099846	-1.37264
H	-2.390746	-0.675359	-1.20938
N	0.349691	1.067316	-2.094928
H	0.235012	1.066878	-3.100803
H	1.340659	0.978711	-1.869198
N	-0.541005	-1.15512	0.716983
H	-1.014541	-0.859548	1.559202
H	0.238437	-1.742047	0.985931
C	-0.464417	1.247082	0.611841
N	-0.938822	2.191946	1.125191
Br	3.487575	0.0	0.0
