17

C	-0.401515	0.001608	-1.478361
C	0.0	0.0	0.0
Cl	-2.252253	0.021896	-1.532333
H	1.09681	0.0	0.0
C	0.080737	1.241263	-2.205961
H	-0.214416	1.175807	-3.255743
H	1.170481	1.289195	-2.125686
H	-0.345545	2.145367	-1.770914
N	0.031408	-1.180921	-2.163668
H	0.996299	-1.049876	-2.450668
H	0.002698	-1.952049	-1.503702
N	-0.443495	-1.234568	0.631088
H	0.038185	-1.345167	1.517329
H	-1.442757	-1.200565	0.808337
C	-0.444515	1.213044	0.685533
N	-0.795659	2.168771	1.276358
Br	2.918745	0.0	0.0
