19

C	0.0	0.0	0.0
C	-0.249767	-0.069985	-1.562635
Br	2.007432	0.0	0.0
H	0.60795	-0.606051	-1.97712
N	-0.550137	1.185547	0.562932
H	-1.567208	1.100781	0.364966
H	-0.459073	1.095609	1.572185
N	-0.4154	-1.154918	0.752232
H	-0.132666	-2.007013	0.27818
H	-1.443965	-1.099515	0.743832
C	-0.252579	1.327701	-2.178845
H	0.605098	1.91367	-1.842252
H	-0.21371	1.24545	-3.270925
H	-1.162259	1.866323	-1.906373
C	-1.485084	-0.8593	-1.994466
H	-1.576638	-0.789185	-3.08567
H	-2.391099	-0.488959	-1.503704
H	-1.385687	-1.919881	-1.740051
H	-3.281615	0.0	0.0
