19

C	0.0	0.0	0.0
C	-0.242511	0.043692	-1.563862
Br	1.988218	0.0	0.0
H	0.536294	0.716375	-1.936208
N	-0.447796	1.157405	0.726934
H	-0.206496	2.008032	0.225014
H	-1.47747	1.050661	0.720697
N	-0.543793	-1.188067	0.566749
H	-0.438232	-1.107286	1.574553
H	-1.565932	-1.08025	0.380796
C	-1.557644	0.63255	-2.082239
H	-1.817901	1.570055	-1.589048
H	-2.40995	-0.024577	-1.92927
H	-1.409869	0.83312	-3.151437
C	-0.016121	-1.327559	-2.197264
H	-0.119479	-1.25609	-3.28589
H	0.976951	-1.718382	-1.969472
H	-0.753584	-2.03945	-1.823948
H	-3.152069	0.0	0.0
