14

C	0.0	0.0	0.0
C	-0.579777	-0.138463	-1.415436
Br	1.953118	0.0	0.0
H	-1.702013	-0.114454	-1.223666
C	-0.427993	1.209819	0.709309
N	-0.617109	2.175838	1.352731
C	-0.395108	-1.18895	0.767669
N	-0.555222	-2.180412	1.378991
C	-0.176751	-1.372444	-2.060061
N	0.131437	-2.372756	-2.593408
N	-0.265856	1.023432	-2.310938
O	0.159893	2.047578	-1.790327
O	-0.536497	0.870641	-3.49772
Cl	-3.251509	0.0	0.0
