15

C	-0.560384	-0.000213	-1.421642
C	0.0	0.0	0.0
Br	-0.009708	-1.682948	-2.299425
H	1.097172	0.0	0.0
H	-0.393375	-0.891047	0.505672
C	-2.081622	0.079752	-1.475644
H	-2.380766	1.000822	-0.972035
H	-2.450821	0.083084	-2.503169
H	-2.504835	-0.778504	-0.94819
C	0.008256	1.094948	-2.208579
N	0.367793	2.00384	-2.861327
N	-0.4365	1.253834	0.645036
H	-0.976426	1.062158	1.479027
H	0.416905	1.718479	0.936004
F	2.651601	0.0	0.0
