15

C	-0.564697	0.016601	-1.421014
C	0.0	0.0	0.0
Br	0.270639	-1.435825	-2.471664
H	1.098022	0.0	0.0
H	-0.368295	0.917837	0.482405
C	-2.072838	-0.195968	-1.474237
H	-2.438969	-0.235366	-2.501835
H	-2.292733	-1.130087	-0.958318
H	-2.565292	0.630835	-0.950251
C	-0.221092	1.26755	-2.094377
N	-0.043816	2.302449	-2.623486
N	-0.459518	-1.208581	0.703288
H	-0.947996	-0.956969	1.551798
H	0.385955	-1.696865	0.977681
F	2.65051	0.0	0.0
