19

C	-0.204141	-0.028818	-1.527154
C	0.0	0.0	0.0
Cl	-1.971525	-0.25513	-1.95123
H	1.102018	0.0	0.0
C	0.246229	1.26215	-2.193827
H	1.279653	1.450501	-1.883039
H	-0.382044	2.111571	-1.918028
H	0.214551	1.147809	-3.282336
N	0.503603	-1.200514	-2.013571
H	1.472088	-1.107651	-1.699054
H	0.50118	-1.201333	-3.028355
N	-0.470129	-1.192213	0.6894
H	-1.465672	-1.292183	0.500994
H	-0.014657	-1.993845	0.26328
C	-0.540648	1.238282	0.684473
H	-0.357169	1.138093	1.755078
H	-1.620464	1.339298	0.525135
H	-0.046692	2.14716	0.338574
Cl	3.489314	0.0	0.0
