19

C	-0.52833	-0.001801	-1.436423
C	0.0	0.0	0.0
Cl	0.257722	-1.376825	-2.313692
H	1.09984	0.0	0.0
C	-2.032341	-0.23862	-1.523727
H	-2.33571	-0.276955	-2.573033
H	-2.557433	0.591018	-1.039717
H	-2.314339	-1.160547	-1.019002
N	-0.100449	1.218112	-2.113715
H	-0.797359	1.936507	-1.948151
H	-0.055926	1.052484	-3.111807
N	-0.514583	-1.190565	0.707984
H	-0.021849	-1.992105	0.323092
H	-0.18074	-1.11826	1.664615
C	-0.44917	1.24712	0.750565
H	-1.536514	1.288087	0.870907
H	-0.084303	2.145283	0.251322
H	0.001614	1.23587	1.746899
Cl	3.644542	0.0	0.0
