19

C	-0.395381	0.018838	-1.487305
C	0.0	0.0	0.0
Cl	-0.087233	-1.650247	-2.158906
H	1.104254	0.0	0.0
C	-1.86029	0.318867	-1.729524
H	-2.473608	-0.35097	-1.12716
H	-2.082429	1.351955	-1.447355
H	-2.091428	0.190235	-2.787724
N	0.44412	0.904436	-2.266112
H	0.21405	1.862051	-2.022806
H	1.41508	0.745523	-1.994337
N	-0.604762	-1.126532	0.719313
H	-0.142184	-1.97351	0.407689
H	-0.351677	-1.020268	1.697015
C	-0.435514	1.28345	0.700604
H	0.060581	1.33687	1.673997
H	-1.517419	1.300208	0.860507
H	-0.131969	2.174694	0.148104
Cl	3.524211	0.0	0.0
