19

C	-0.529622	0.008684	-1.436236
C	0.0	0.0	0.0
Cl	0.258404	-1.356373	-2.327003
H	1.099667	0.0	0.0
C	-2.034053	-0.232056	-1.522598
H	-2.561718	0.592792	-1.032931
H	-2.313516	-1.159004	-1.025048
H	-2.338178	-0.263205	-2.572186
N	-0.103575	1.23185	-2.106895
H	-0.147783	1.09597	-3.110225
H	-0.755996	1.970775	-1.865506
N	-0.517095	-1.194417	0.698219
H	-0.034645	-1.995375	0.299132
H	-0.173736	-1.136869	1.652741
C	-0.444748	1.24172	0.763329
H	-0.01574	1.205931	1.768925
H	-1.533516	1.301221	0.86249
H	-0.053063	2.142427	0.289451
Cl	3.650658	0.0	0.0
