13
Coordinates from ORCA-job run
  C   0.75903928736647      0.23459588680504     -0.30217338979356
  C   -0.45895252509839     -0.35185311908773     -0.20598556553526
  N   1.28274454559513      1.08700928514810      0.78188622020057
  O   1.85856860946715      2.10969418838934      0.42548075921322
  O   1.09905082315391      0.70483538774039      1.93316350475443
  C   1.60622082668056      0.14687149069067     -1.44270162279894
  N   2.30013684436131      0.04407151353316     -2.38873477698994
  C   -1.40084611409882     -0.25888143328511      0.96088597982895
  H   -1.19405493364620     -1.07046315088031      1.66405131615564
  H   -1.29202288980232      0.68027134835322      1.50025407917618
  H   -2.42703469522870     -0.36234196142503      0.60761291394873
  C   -0.87827032596535     -1.14750143389204     -1.31928153507576
  N   -1.25457945278474     -1.81730800208973     -2.21245788308426
