13
Coordinates from ORCA-job run
  C   0.69324757207456      0.38837319095791      0.27603271775526
  C   -0.53345791101506     -0.19010164269531      0.24727734470816
  N   1.53538818222896      0.51521991227780     -0.93709865014976
  O   2.35714891559488      1.42594339069942     -0.91972808918224
  O   1.34294200017518     -0.28145440895161     -1.84747743948934
  C   1.26622028880959      0.97895934207330      1.44070908029421
  N   1.76092229059085      1.42473975393802      2.41048730628706
  C   -1.20510095949543     -0.82875840036374     -0.93586888379987
  H   -1.27152585345168     -0.14436973795936     -1.77978741581105
  H   -0.62359663308916     -1.68412563085367     -1.27399157837277
  H   -2.20699764286277     -1.15018702570957     -0.65874556007751
  C   -1.25052380531656     -0.20346758584095      1.48718848114859
  N   -1.86566644424335     -0.25077115757226      2.49200268668925
