13
Coordinates from ORCA-job run
  C   0.73962602062311      0.33529033276646      0.09621253302094
  C   -0.39867890958133     -0.39017268374892     -0.00398159693760
  N   2.07865314409973     -0.26467690561051      0.32192048614201
  O   3.02849409422413      0.49811248066265      0.17175343448354
  O   2.12705982489261     -1.44770595028892      0.62622011658190
  C   0.75667226082036      1.75290758735503     -0.05744234858497
  N   0.70395657048899      2.91994667694049     -0.19909164320428
  C   -1.73623391901828      0.24199282452196     -0.26809933660923
  H   -2.17830325493053     -0.20984806439122     -1.15987640401819
  H   -1.65718110030818      1.31869008759955     -0.41125721258329
  H   -2.41017207498414      0.03495228498198      0.56788717712182
  C   -0.42448260856300     -1.81647087944427      0.12372062883078
  N   -0.62941004776347     -2.97401779134427      0.19103416575657
