13
Coordinates from ORCA-job run
  C   0.74794536778338      0.31346472547431     -0.05895613734533
  C   -0.41485314014004     -0.35815786708706      0.10813689324977
  N   2.08186440604762     -0.31696686832310      0.11388516763800
  O   2.15742195436387     -1.30115603678857      0.83531453620753
  O   2.99103222644406      0.21019601845722     -0.51997759499044
  C   0.79454858819279      1.68437378337213     -0.44382887068883
  N   0.78858016191983      2.82100356245535     -0.75047040080231
  C   -1.75806980777726      0.28537384154815     -0.09784936615949
  H   -2.36842504913870      0.12888869418366      0.79716563231828
  H   -2.26912862908279     -0.21246754610267     -0.92700907034412
  H   -1.67497651552126      1.35155481672191     -0.30940633149826
  C   -0.44835673817446     -1.73955270416630      0.48213992502283
  N   -0.62658282491704     -2.86755441974503      0.77085561739236
