13
Coordinates from ORCA-job run
  C   0.79474119740346      0.23609882886493     -0.20186900539276
  C   -0.39264639677613     -0.41525325204244     -0.20244206444221
  N   1.07385925807219      1.31796911055770      0.76266074467873
  O   1.56732049962622      2.33577868804506      0.28860332127720
  O   0.79423146086079      1.10824570047439      1.93847823761870
  C   1.84023952142291      0.00526558238313     -1.13952502322957
  N   2.70914517919050     -0.19945961706336     -1.90724631366319
  C   -1.54318541352252     -0.19129504705044      0.73411890005125
  H   -2.47281800082743     -0.17722977208607      0.16175395327705
  H   -1.44712025959287      0.72910220988541      1.30390785657021
  H   -1.59733608474801     -1.02622521208703      1.43779777442091
  C   -0.56879509801247     -1.43620341974261     -1.19188841390218
  N   -0.75563586309664     -2.28679380013867     -1.98534996726412
