13
Coordinates from ORCA-job run
  C   0.73789068359728      0.30035801521296      0.05745654769701
  C   -0.42667590108346     -0.37276168543789     -0.06915376806083
  N   2.00552792667778     -0.36718477497626      0.42122541804307
  O   2.73005506101146      0.25044723525724      1.19639096897249
  O   2.21568876600231     -1.46374445679926     -0.09177626859576
  C   0.85715558756265      1.70745394098851     -0.11326586668170
  N   0.93617661156484      2.86839134099195     -0.30192248695109
  C   -1.72077085534048      0.32109250324222     -0.36420097634647
  H   -1.55764024757365      1.34953799187177     -0.69034987123287
  H   -2.27326304163439     -0.21159407837919     -1.13043793629624
  H   -2.32295055050315      0.32729379809827      0.54772068109852
  C   -0.49142912022817     -1.78189080163854      0.17069056419156
  N   -0.69076492005302     -2.92539902843180      0.36862299416231
