13
Coordinates from ORCA-job run
  C   0.67572884918940      0.41518642731443      0.28959988278447
  C   -0.52149108530354     -0.22437002163948      0.21601099500416
  N   1.55203128277823      0.62570657679154     -0.88346555830614
  O   1.13596464813823      0.25939365326913     -1.97716493787006
  O   2.63632064869020      1.15180483650412     -0.65490205012068
  C   1.20245132762755      0.93712249348574      1.50739930935967
  N   1.60801972742953      1.35034291859938      2.53263177267465
  C   -1.17810646690224     -0.81787174228047     -1.00090520326946
  H   -0.52878702685667     -1.55803739935484     -1.47035786085347
  H   -1.37249444437541     -0.04735924351060     -1.74816480267691
  H   -2.11669077733409     -1.28849615641480     -0.71201473691328
  C   -1.23479704760481     -0.34119298553946      1.45334112788898
  N   -1.85814963547639     -0.46222935722467      2.44599206229807
