13
Coordinates from ORCA-job run
  C   0.73637832344329      0.33147016552834      0.00190406446247
  C   -0.42346600758961     -0.35964256914044      0.09248209638628
  N   2.05081552676849     -0.26099240737381      0.34296969949620
  O   2.07688775595276     -1.11206338143035      1.22165077368275
  O   3.00182528114801      0.16846267774412     -0.30335283447250
  C   0.80642306720178      1.67388826902897     -0.46845024468830
  N   0.82673035178714      2.79237068187021     -0.83574489768828
  C   -1.75084697918727      0.23290355653173     -0.28804408265665
  H   -2.15168037044661     -0.29459498134040     -1.15753528013122
  H   -1.66757515100361      1.29455915383901     -0.52128066579560
  H   -2.45548105238879      0.10407545415351      0.53723945667816
  C   -0.45448627060874     -1.72176159248295      0.53006907660392
  N   -0.59652447507682     -2.84667502692794      0.84709283812277
