13
Coordinates from ORCA-job run
  C   0.74111449591706      0.32495316995831     -0.06289287283898
  C   -0.41166068231566     -0.37074614994694      0.06861699111405
  N   2.05201119834028     -0.22448938543232      0.35001320722364
  O   2.23376686969633     -1.42515029433032      0.19599579914105
  O   2.83916505257616      0.59301268984650      0.81657374388501
  C   0.79393604869013      1.66221456215019     -0.54908732666146
  N   0.80388224018496      2.76063748637721     -0.97256334207821
  C   -1.75149216945042      0.19442217909172     -0.30619072938187
  H   -2.21742444022036     -0.44471245518917     -1.06089728887285
  H   -2.40546591638224      0.19758216548942      0.56970740760366
  H   -1.66864908004468      1.20855004253574     -0.69594860092866
  C   -0.42685363332051     -1.69880533051960      0.60174632142180
  N   -0.58132998367105     -2.77846868003073      1.04592669037282
