13
Coordinates from ORCA-job run
  C   0.71630952849055      0.31910615712656      0.33629172593750
  C   -0.53463235597667     -0.18498460455752      0.21622031023803
  N   1.55851546505285      0.56143166531756     -0.85069615199652
  O   2.69620437085196      0.10629352120749     -0.79331667405364
  O   1.05597535093273      1.18619795729506     -1.77876001744732
  C   1.35671256994859      0.59730316495278      1.57606361702643
  N   1.88113670865088      0.83587145564991      2.60309985059878
  C   -1.24592716080987     -0.53782621451603     -1.05551506478017
  H   -0.60387201719743     -0.46368115623623     -1.93010609678275
  H   -1.64255478036767     -1.55137909902373     -0.97050959021367
  H   -2.09251694446808      0.14041158171826     -1.19543707786363
  C   -1.25817513497728     -0.40968546364939      1.43207733999651
  N   -1.88717560013056     -0.59905896528474      2.40958782934046
