13
Coordinates from ORCA-job run
  C   0.71507800794934      0.36005321377952      0.13440077731887
  C   -0.40012284675815     -0.38779818347318     -0.03073390045658
  N   2.05213744524881     -0.24159014506680      0.33640976508298
  O   2.98481190123957      0.37123291698692     -0.17352564482572
  O   2.11113617253342     -1.28090613665023      0.98030248581037
  C   0.71670942287972      1.78226033551505      0.06756425167912
  N   0.67871575464822      2.95813525141277      0.02497626113404
  C   -1.75368440221610      0.21218136345651     -0.28115518141384
  H   -2.14514359972523     -0.15223542217273     -1.23453321654610
  H   -1.71706837955036      1.30104503338434     -0.30086190161030
  H   -2.44467867751016     -0.11082286188541      0.50201832328821
  C   -0.35246612730646     -1.81795404282680     -0.00066769234994
  N   -0.44742467143261     -2.99160132245993     -0.02319432711111
