13
Coordinates from ORCA-job run
  C   0.74703443897909      0.22277208088851     -0.33698479301103
  C   -0.47377825332285     -0.34629768846130     -0.18607517666123
  N   1.32340919176155      1.07971827601244      0.71704691712954
  O   1.91494023890706      2.08111298870967      0.32702677604343
  O   1.16288073772946      0.72195249988659      1.87955087597063
  C   1.55009155196754      0.10912319414167     -1.50632783072519
  N   2.21391653474355     -0.00670526642814     -2.47192567142755
  C   -1.36491727515661     -0.23312482049224      1.01836885927462
  H   -1.09976977036436     -1.00679389723218      1.74388876961332
  H   -2.40275006823780     -0.37884864342399      0.71802048837368
  H   -1.25988719192205      0.73126320707004      1.51333554662772
  C   -0.94457426011637     -1.15151574126785     -1.27212638910905
  N   -1.36859587496822     -1.82265618940322     -2.14279837209890
