13
Coordinates from ORCA-job run
  C   0.73999119541677      0.33074958398520      0.00473814817052
  C   -0.41276646026869     -0.37730232437500     -0.00777680155635
  N   2.04581925341790     -0.28728978637097      0.32448607508180
  O   2.23521648837633     -1.43422260009206     -0.05781171072498
  O   2.82096468037715      0.42412326473615      0.95577559338030
  C   0.79586756226377      1.73574584361120     -0.22122107542593
  N   0.81554950772828      2.89317882852580     -0.43703528980755
  C   -1.74919164301952      0.24904037938533     -0.28374805229632
  H   -2.41937193482737      0.07227935097247      0.56152613483155
  H   -1.66365639255470      1.32156592856539     -0.45589905418202
  H   -2.19977555561301     -0.22195455226269     -1.16139315045414
  C   -0.43057130142685     -1.78128794334979      0.26936553868578
  N   -0.57907539987008     -2.92462597333104      0.50899364429734
