13
Coordinates from ORCA-job run
  C   0.72288025130722      0.36073959855375     -0.01016725291005
  C   -0.41647175548208     -0.35957951644583      0.10917373057938
  N   2.04162229664101     -0.17202930550684      0.39630193196868
  O   2.97232296334916      0.11210274476163     -0.35077642762862
  O   2.08745754853512     -0.83716392572831      1.42334420916570
  C   0.76881645433534      1.66285455444011     -0.58342628922722
  N   0.78398736170012      2.75620696514634     -1.01932974311138
  C   -1.75203520363498      0.14433839513456     -0.35623261856340
  H   -1.70792039961056      1.19022302084177     -0.65905474105407
  H   -2.48047544114841      0.03114795891564      0.45099540243136
  H   -2.10226195082771     -0.45833827234678     -1.19978233682371
  C   -0.40199011950377     -1.67326278126552      0.67531510746635
  N   -0.51393200566045     -2.75723943650052      1.12363902770698
