13
Coordinates from ORCA-job run
  C   0.74541021529893      0.30564561908487     -0.09624642245720
  C   -0.41781363103938     -0.35841119290877      0.09405368851447
  N   2.05646647576281     -0.26071806441050      0.29375027756354
  O   2.87642557540477      0.55305616580175      0.70733054331883
  O   2.20633615606259     -1.46963747333872      0.17422750434451
  C   0.81264658730865      1.62448730071664     -0.62849503365403
  N   0.83299516542872      2.70760786231264     -1.08940356470010
  C   -1.75574748671045      0.22425949576854     -0.25938894212694
  H   -2.25873298164614     -0.43021016112141     -0.97617229114360
  H   -2.38259124577726      0.27381864433273      0.63473500363126
  H   -1.66263675856368      1.22179825619739     -0.68791344516592
  C   -0.44568173859022     -1.66680891761363      0.67365331490431
  N   -0.60907633293932     -2.72688753482151      1.15986936697089
