13
Coordinates from ORCA-job run
  C   0.74028094511975      0.31895098778879     -0.09659761400535
  C   -0.41131025722507     -0.36740587414694      0.08508877813155
  N   2.06463041396684     -0.24754680734245      0.24466974087451
  O   2.88176181192540      0.55713343308495      0.68081884449468
  O   2.22664456755001     -1.44797627195276      0.06877091099293
  C   0.78167250873155      1.66083332840244     -0.57071143679266
  N   0.78022259773841      2.76346294275547     -0.98326119649809
  C   -1.76255079522581      0.21378110849306     -0.21683668186701
  H   -2.37240136424101      0.21471686304676      0.69037061674115
  H   -2.27128547286785     -0.41398922702285     -0.95314419530606
  H   -1.68965053452028      1.23078022508841     -0.60123008851200
  C   -0.41302157515177     -1.70048609232072      0.60610467768439
  N   -0.55499284580017     -2.78325461587414      1.04695764406195
