13
Coordinates from ORCA-job run
  C   0.77741029451630      0.27139528456627     -0.22536624410630
  C   -0.41654540550389     -0.36627978608943     -0.24997257559604
  N   1.14748210484113      1.15240185402255      0.90068899115160
  O   1.59931766831615      2.24973814255608      0.58967271455055
  O   0.97669271183213      0.71601147425225      2.03424369846035
  C   1.75255609335388      0.21095118549356     -1.26010826696145
  N   2.57366737351314      0.13943658618493     -2.10052147915284
  C   -1.48430800319022     -0.31569069075596      0.80263885396946
  H   -2.45465619264552     -0.16699785465504      0.32603875208929
  H   -1.51548679636398     -1.27280887147451      1.33113920129871
  H   -1.31243101406935      0.46847466667007      1.53445076180324
  C   -0.68838383350292     -1.19022094454198     -1.38953114991258
  N   -0.95631500109686     -1.89741104622879     -2.29337325759400
