13
Coordinates from ORCA-job run
  C   0.74309537272572      0.32256897682884     -0.05235873825727
  C   -0.41386285447489     -0.36892426675862      0.06398673591416
  N   2.04492712267411     -0.22777954254712      0.38770284055410
  O   2.82579633203514      0.59065560162478      0.86299733313418
  O   2.22598617428672     -1.42984592957013      0.24462895069032
  C   0.80814018759061      1.65613552716127     -0.54692288236735
  N   0.82794867707352      2.75113602164979     -0.97879348805276
  C   -1.74528307576248      0.19696116771936     -0.33866052055875
  H   -1.65247411762929      1.20731151286245     -0.73620777657933
  H   -2.19954384040587     -0.44743657789036     -1.09601612943693
  H   -2.41480752475048      0.20981211990090      0.52530598001679
  C   -0.44262150335874     -1.69242455700219      0.60813237718362
  N   -0.60730095000408     -2.76817005397897      1.05820531775923
