13
Coordinates from ORCA-job run
  C   0.73886989031720      0.33668557649086     -0.01547248250818
  C   -0.41847414648909     -0.35345892156550      0.10529536151967
  N   2.05773240278184     -0.26786519337712      0.27863961704783
  O   2.11480090869251     -1.07967003818451      1.19296457504780
  O   2.97849167884857      0.10967145288639     -0.43921110101688
  C   0.80202015304779      1.67651113009698     -0.49269628412439
  N   0.81548059440141      2.79079127884726     -0.87248004042396
  C   -1.75761744505763      0.23524269840231     -0.23370783229454
  H   -1.67233274472295      1.26779490000750     -0.57140223453274
  H   -2.40467859580716      0.19676096448737      0.64658321969747
  H   -2.23296875753145     -0.36155777451681     -1.01649938238740
  C   -0.43477009631565     -1.71482437329433      0.54695355220520
  N   -0.58455384216538     -2.83708170028041      0.87103303177011
