13
Coordinates from ORCA-job run
  C   0.81748413729917      0.14186097209721     -0.19689038986486
  C   -0.41352288420460     -0.42201539104228     -0.15030380727901
  N   1.13419117773883      1.35132219256936      0.58598505873591
  O   0.78108453401087      1.36770453897852      1.76082004901611
  O   1.73114920954689      2.23481063739096     -0.02011151360415
  C   1.87638393670052     -0.30659904461759     -1.03585358774245
  N   2.75255890911204     -0.68499953605058     -1.72531024492624
  C   -1.57713451243246      0.03827541599068      0.67819013319162
  H   -2.49246099774469     -0.04208577750842      0.08997319511841
  H   -1.45504561025413      1.05830193826063      1.03299842686758
  H   -1.67971213173535     -0.61298170558600      1.55111531335298
  C   -0.62508852595681     -1.58367042606415     -0.96055163457150
  N   -0.85088724208026     -2.53992381441833     -1.61106099829439
