13
Coordinates from ORCA-job run
  C   0.73069701798774      0.28097865991464      0.34318772129384
  C   -0.53944882112778     -0.17297521372427      0.22485203133658
  N   1.54666650056829      0.56528985730692     -0.85548887088393
  O   2.65689769802181      0.04497530051215     -0.87330719560010
  O   1.04861045402996      1.28307780318406     -1.71648227866364
  C   1.42302970248125      0.44332394841998      1.57476733944855
  N   2.00600348957361      0.58157791592581      2.58884107802287
  C   -1.29296327152420     -0.40184160155488     -1.05014962189679
  H   -0.66000934463017     -0.32574293877945     -1.93143973092666
  H   -1.76998761757054     -1.38378778331129     -1.01623476638803
  H   -2.08532766572689      0.34745007119039     -1.13925974025119
  C   -1.23278994874788     -0.48561049151130      1.43964592917345
  N   -1.83037819333521     -0.77571552757277      2.41206810533505
