13
Coordinates from ORCA-job run
  C   0.73849665474930      0.33709935818285     -0.00140235396826
  C   -0.41871119187763     -0.35759650071599      0.09124295944181
  N   2.05665438029743     -0.27470517409925      0.28002131815081
  O   2.98082885590932      0.12765612978371     -0.41965066335503
  O   2.10976730857658     -1.11600837553041      1.16745991954321
  C   0.80216118683337      1.69199849870555     -0.43423172338220
  N   0.81622647069023      2.81808037194783     -0.77729266580242
  C   -1.75681154925470      0.24125671212465     -0.23426935350281
  H   -1.67050371002642      1.28463799701915     -0.53649167207739
  H   -2.22745004176850     -0.32833358898569     -1.03983118816821
  H   -2.40819324762365      0.17216148838855      0.64092706388418
  C   -0.43574139773499     -1.73251343199701      0.48865294686945
  N   -0.58572371877035     -2.86473348482392      0.77586541236685
