13
Coordinates from ORCA-job run
  C   0.74086134374823      0.33036916782011     -0.03743696035052
  C   -0.41755874723994     -0.35153838486410      0.11585520112208
  N   2.06360394952604     -0.28659832790624      0.20740258179609
  O   2.14410531599678     -1.10800486243664      1.11125952443425
  O   2.96352889566960      0.09100930053858     -0.53641863182387
  C   0.79817267601767      1.67423391658356     -0.50442032632235
  N   0.80681050665203      2.79169189771830     -0.87492668771186
  C   -1.76215966416770      0.25183192110823     -0.17207571264139
  H   -2.26937149219232     -0.33308835548106     -0.94372418391803
  H   -2.37909948085396      0.20965395118728      0.72938763377956
  H   -1.67967333903904      1.28682016021864     -0.50239177585547
  C   -0.43064326130054     -1.71673277908798      0.54523739860329
  N   -0.57857670281683     -2.84064760539868      0.86425193888822
