13
Coordinates from ORCA-job run
  C   0.74361729213083      0.34292924680851     -0.00752821099408
  C   -0.40127408810120     -0.37165505069820      0.08359857912161
  N   2.03456502900438     -0.12639058995979      0.54904616812437
  O   3.03706173022186      0.41233857690862      0.08786357189591
  O   1.99373969092658     -0.97647398644585      1.42911058339520
  C   0.80535645840965      1.61792143754830     -0.63998114870020
  N   0.79254275067202      2.67786077019687     -1.15123108109642
  C   -1.71237228986967      0.11830150153722     -0.46615238039081
  H   -1.59189310999042      1.01645453946903     -1.07028428623896
  H   -2.39608297344221      0.32609166016114      0.36219916546306
  H   -2.16622946965047     -0.66892176571755     -1.07183204792293
  C   -0.45974699858372     -1.65299131428782      0.71916735627839
  N   -0.68028402172763     -2.71546502552048      1.17702373106484
