13
Coordinates from ORCA-job run
  C   0.66110616381334      0.49813783022576      0.19515050824463
  C   -0.57802735002819     -0.05033357677798      0.20093039889989
  N   1.70260142369271      0.01558504765039     -0.73219309655285
  O   2.38973917876810      0.88296355383297     -1.26142687754180
  O   1.79069958209650     -1.19771229385748     -0.89228022459743
  C   1.06071483670430      1.59665618654941      1.00668349145650
  N   1.38714621379775      2.49496240152322      1.69432628611896
  C   -1.05129642484184     -1.19012304684570     -0.65532163445611
  H   -0.86714892822945     -2.13553576702705     -0.13741622654753
  H   -2.12371625815071     -1.09452629383454     -0.82714577820193
  H   -0.52978022338549     -1.22964407344161     -1.60984613600191
  C   -1.51861625396166      0.49572258329244      1.13189086973522
  N   -2.32342196027535      0.91284744871016      1.88464841944435
