13
Coordinates from ORCA-job run
  C   0.73923278062021      0.33490611580497     -0.02000268328976
  C   -0.41754775657067     -0.35577034362816      0.10264763103666
  N   2.06248216859906     -0.28177612828543      0.22568621185563
  O   2.13514800876812     -1.12805336717431      1.10698686172088
  O   2.97015924888488      0.12174395452618     -0.49461439518687
  C   0.79625189486370      1.68961749382675     -0.45456965344800
  N   0.80693100408573      2.81491121023440     -0.80007074400980
  C   -1.76164040773522      0.24791492734276     -0.18673559142340
  H   -2.25726452584228     -0.32139214379171     -0.97738721466391
  H   -1.68062696056855      1.29094642448039     -0.49144142901843
  H   -2.38825151269863      0.18126979172199      0.70668787319639
  C   -0.42935052514333     -1.73132797501519      0.49811402135205
  N   -0.57752341726299     -2.86398996004263      0.78469911187857
