13
Coordinates from ORCA-job run
  C   0.72415346742517      0.36546350351842      0.02365455748033
  C   -0.40953575965627     -0.37049659023069      0.08312240523361
  N   2.04814896171219     -0.18356162945153      0.39398210518378
  O   2.99209082481667      0.23227136550786     -0.27058787478906
  O   2.08675010829911     -0.99153505942370      1.31257110377845
  C   0.75952418234322      1.70573465508436     -0.45545325734717
  N   0.74824796369933      2.81932377092003     -0.83719635010531
  C   -1.74978638053480      0.16302607695516     -0.33403505909648
  H   -2.15379842054378     -0.45212174283472     -1.14229576041103
  H   -1.68705372362519      1.19827132031217     -0.66834728752383
  H   -2.44508137711419      0.09858207762338      0.50704173803937
  C   -0.39611494606316     -1.72952117489480      0.53214420765930
  N   -0.51754490075831     -2.85543657308591      0.85539947189804
