13
Coordinates from ORCA-job run
  C   0.72389494112065      0.34806722086813      0.14290151418271
  C   -0.38167688562659     -0.40210123305453     -0.07612655255272
  N   2.08680401263632     -0.21915214093797      0.28053973223092
  O   3.00298107051358      0.59635170697326      0.23174992515775
  O   2.18730572058990     -1.42925549050338      0.42317428751277
  C   0.67669030878057      1.77097308155168      0.22153501122989
  N   0.58189862471245      2.94267740391088      0.28349796360722
  C   -1.74852628302725      0.20313526010192     -0.22935104624071
  H   -1.71765820781079      1.29172252351978     -0.20461088995995
  H   -2.19014790093093     -0.12495734701795     -1.17361138943073
  H   -2.39516853562987     -0.15516399093517      0.57606719242953
  C   -0.34189368340196     -1.82983193732175     -0.17785188106291
  N   -0.48450318192607     -2.99246505715490     -0.29791386710375
