13
Coordinates from ORCA-job run
  C   0.73460288427853      0.34587940090792     -0.00646099848657
  C   -0.41606681337970     -0.35751043705672      0.10113219323735
  N   2.05300312044887     -0.23040261863820      0.34098450498738
  O   2.09473281150565     -1.01758491376145      1.27752126398075
  O   2.98960592532578      0.14423601515971     -0.35761788052547
  C   0.79223970066156      1.67349550714588     -0.51758606791294
  N   0.80008228076039      2.77812667725541     -0.92452909410482
  C   -1.75392981350590      0.20431901661135     -0.28630094642211
  H   -1.67330189907467      1.22880815132617     -0.64894145071138
  H   -2.42170553963600      0.18089528170703      0.57891358516706
  H   -2.20220098349592     -0.41879910243185     -1.06445266076289
  C   -0.42653763276092     -1.70663157782099      0.57916030451892
  N   -0.57052404112766     -2.82183140040425      0.92917724703472
