13
Coordinates from ORCA-job run
  C   0.72860960277333      0.35795025299062      0.02922433679974
  C   -0.41225801439744     -0.36742696525209      0.08091616192355
  N   2.05181432774862     -0.21600160330401      0.36300184469345
  O   2.09212069031422     -1.06492037491463      1.24384723420088
  O   2.99289811981767      0.22169915490003     -0.29134636541319
  C   0.77095593755833      1.71156175808362     -0.41177405975880
  N   0.76538030989874      2.83309497912734     -0.76929636982441
  C   -1.75220081802279      0.19385349252013     -0.29940673082851
  H   -1.68502802855143      1.24040578538688     -0.59542093590096
  H   -2.17237859090080     -0.38688069910721     -1.12494654867018
  H   -2.43721726458222      0.10074659174541      0.54760561914390
  C   -0.40736396250757     -1.74286555638712      0.47604787126294
  N   -0.53633230914865     -2.88021681578898      0.75354794237161
