16

C	0.0	0.0	0.0
C	-0.484209	-0.383228	-1.385888
F	1.357927	0.0	0.0
H	0.062751	-1.279113	-1.686128
H	-1.547555	-0.622268	-1.301128
N	-0.49857	1.178601	0.597604
H	-1.506757	1.046372	0.726419
H	-0.372585	1.941865	-0.056428
N	-0.33096	-1.176798	0.951465
O	0.097197	-2.269563	0.580023
O	-0.929652	-0.961035	1.996319
C	-0.282438	0.747979	-2.388045
H	0.742911	1.130582	-2.364533
H	-0.978191	1.567634	-2.194364
H	-0.483615	0.389782	-3.400254
Br	-3.806635	0.0	0.0
