16

C	0.0	0.0	0.0
C	-0.524735	-0.398085	-1.355488
F	1.358262	0.0	0.0
H	0.01587	-1.29676	-1.65685
H	-1.581088	-0.647985	-1.240534
N	-0.517329	1.199961	0.479712
H	-1.536408	1.1618	0.373264
H	-0.303701	1.293391	1.466001
N	-0.251707	-1.185478	1.011207
O	-0.366184	-0.88174	2.196161
O	-0.22226	-2.332654	0.575036
C	-0.349292	0.724091	-2.372793
H	0.678388	1.094235	-2.387512
H	-0.599525	0.358635	-3.372105
H	-1.012057	1.557543	-2.140484
Br	-3.799795	0.0	0.0
