16

C	0.0	0.0	0.0
C	-0.494247	-0.18564	-1.40928
F	1.399502	0.0	0.0
H	0.054536	-1.02822	-1.832151
H	-1.552652	-0.449385	-1.357819
N	-0.512909	1.108465	0.655879
H	-0.312711	1.044038	1.647725
H	-1.530983	1.099439	0.525779
N	-0.223125	-1.324063	0.817866
O	-0.243131	-2.388294	0.210892
O	-0.265572	-1.203339	2.040198
C	-0.295698	1.078758	-2.238008
H	-0.945674	1.877277	-1.880879
H	-0.545269	0.87886	-3.283306
H	0.738988	1.425888	-2.189041
Br	-3.775385	0.0	0.0
