16

C	0.0	0.0	0.0
C	-0.413841	-0.158717	-1.445646
F	1.39259	0.0	0.0
H	-0.16589	0.802113	-1.908505
H	0.264172	-0.904574	-1.86382
N	-0.532397	1.100367	0.661456
H	-1.519496	1.193593	0.436008
H	-0.436256	0.994197	1.66435
N	-0.234924	-1.331935	0.790559
O	-0.120307	-2.385964	0.174574
O	-0.418965	-1.227868	2.001496
C	-1.859597	-0.540499	-1.720132
H	-2.017839	-0.576945	-2.801953
H	-2.098598	-1.523688	-1.314309
H	-2.599699	0.141747	-1.304565
Br	-4.88487	0.0	0.0
