16

C	0.0	0.0	0.0
C	-0.532319	0.30631	-1.382572
F	1.355411	0.0	0.0
H	-1.56949	-0.032578	-1.413984
H	-0.56098	1.398092	-1.437848
N	-0.517108	0.849757	0.980955
H	-0.316189	0.466798	1.898252
H	-1.533581	0.890097	0.855479
N	-0.265265	-1.50509	0.37696
O	-0.576698	-2.305834	-0.496251
O	-0.067848	-1.788737	1.557744
C	0.300602	-0.248387	-2.532912
H	0.332191	-1.336672	-2.509794
H	1.324433	0.13233	-2.506245
H	-0.148879	0.056595	-3.481034
Br	-3.812628	0.0	0.0
