19

C	0.0	0.0	0.0
C	-0.206512	-0.044446	-1.53473
Cl	1.801007	0.0	0.0
H	0.261858	0.837862	-1.963119
C	-0.537379	1.323625	0.51002
H	-0.240012	1.452523	1.55333
H	-0.159441	2.166358	-0.072871
H	-1.631453	1.287906	0.4518
C	-0.568563	-1.156517	0.791863
H	-0.172087	-2.113568	0.466421
H	-1.658374	-1.133645	0.672409
H	-0.331201	-1.00321	1.847732
N	-1.609038	-0.032923	-2.096003
O	-2.047005	1.083994	-2.33965
O	-2.131895	-1.11273	-2.328218
N	0.464566	-1.190198	-2.24898
O	0.470659	-2.304482	-1.743836
O	0.934142	-0.898712	-3.349423
Cl	-3.975297	0.0	0.0
