19

C	0.0	0.0	0.0
C	-0.600489	-0.260302	-1.377833
Cl	1.789576	0.0	0.0
H	-1.692854	-0.135639	-1.282706
C	-0.457531	1.379257	0.469639
H	-0.109841	1.521369	1.495154
H	-1.549391	1.414266	0.447341
H	-0.046627	2.176843	-0.148602
C	-0.496248	-1.057728	0.980787
H	-1.589769	-1.056827	0.96102
H	-0.15751	-0.783352	1.982235
H	-0.106143	-2.04368	0.73782
N	-0.378901	-1.618261	-1.979477
O	0.458544	-2.37493	-1.499314
O	-1.07882	-1.851522	-2.961514
N	-0.100706	0.698561	-2.416619
O	-0.672183	1.782404	-2.478974
O	0.853062	0.344838	-3.105949
Cl	-3.731783	0.0	0.0
