19

C	0.0	0.0	0.0
C	-0.59874	0.281997	-1.374467
Cl	1.789576	0.0	0.0
H	-1.691141	0.156866	-1.282061
C	-0.496478	1.044207	0.995122
H	-1.589852	1.045361	0.972831
H	-0.103991	2.03279	0.767143
H	-0.160604	0.754896	1.993399
C	-0.459093	-1.385004	0.44887
H	-0.048988	-2.174127	-0.180675
H	-1.550953	-1.418315	0.42537
H	-0.112287	-1.542929	1.47232
N	-0.098953	-0.660803	-2.426836
O	0.854384	-0.296722	-3.111614
O	-0.670151	-1.743799	-2.50421
N	-0.375471	1.648793	-1.954742
O	-1.075928	1.898074	-2.93237
O	0.46285	2.396984	-1.463376
Cl	-3.731763	0.0	0.0
