19

C	0.0	0.0	0.0
C	-0.591644	-0.093816	-1.405391
Cl	1.789758	0.0	0.0
H	-1.682803	0.025717	-1.307611
C	-0.460754	1.308895	0.635186
H	-0.104171	1.330599	1.666896
H	-1.55279	1.33256	0.623095
H	-0.062714	2.177265	0.111509
C	-0.49793	-1.173506	0.837854
H	-0.094283	-2.118585	0.481545
H	-0.173853	-1.02005	1.869554
H	-1.590664	-1.176553	0.804134
N	-0.372143	-1.375182	-2.156178
O	-1.091185	-1.503794	-3.144559
O	0.48135	-2.171721	-1.780069
N	-0.075444	0.974543	-2.32256
O	-0.627151	2.066948	-2.247446
O	0.86659	0.690568	-3.057201
Cl	-3.736758	0.0	0.0
