19

C	0.0	0.0	0.0
C	-0.202087	-0.052942	-1.536099
Cl	1.801187	0.0	0.0
H	0.337633	-0.919527	-1.906902
C	-0.558084	1.194419	0.740684
H	-0.311717	1.083723	1.800324
H	-0.160187	2.135077	0.372422
H	-1.648161	1.168098	0.628918
C	-0.532254	-1.294636	0.585223
H	-1.626169	-1.252518	0.535075
H	-0.167979	-2.16762	0.039735
H	-0.220994	-1.370733	1.629794
N	0.396306	1.095096	-2.305835
O	0.296294	2.234328	-1.87226
O	0.922996	0.777403	-3.372933
N	-1.589389	-0.223323	-2.117751
O	-1.957269	-1.387131	-2.200043
O	-2.159432	0.774937	-2.530533
Cl	-3.919809	0.0	0.0
