19

C	0.0	0.0	0.0
C	-0.20314	-0.111207	-1.533818
Cl	1.801332	0.0	0.0
H	0.280457	0.744077	-1.998156
C	-0.538775	1.344399	0.448339
H	-0.241678	1.521426	1.485127
H	-0.162083	2.160555	-0.172205
H	-1.632638	1.302126	0.390118
C	-0.566911	-1.118927	0.84267
H	-0.166358	-2.089494	0.565962
H	-0.3337	-0.914331	1.891469
H	-1.655595	-1.103272	0.718376
N	-1.601619	-0.102091	-2.110595
O	-2.023273	1.01316	-2.386965
O	-2.134837	-1.180309	-2.323262
N	0.463376	-1.298104	-2.1834
O	0.396031	-2.396325	-1.649794
O	1.012793	-1.054541	-3.257409
Cl	-3.9429	0.0	0.0
