15

C	0.0	0.0	0.0
C	-0.628478	0.084319	-1.385347
Cl	1.783291	0.0	0.0
H	-1.68765	0.284059	-1.113555
H	-0.331645	0.865753	0.578116
C	-0.409184	-1.210552	0.720749
N	-0.594364	-2.199412	1.327092
N	-0.488958	-1.202811	-2.073393
H	-1.225911	-1.799766	-1.699524
H	-0.728761	-1.055007	-3.04889
C	-0.043185	1.209638	-2.21284
H	-0.02647	2.144397	-1.645368
H	-0.666409	1.371373	-3.098574
H	0.974912	0.978032	-2.538606
H	-3.13339	0.0	0.0
