15

C	0.0	0.0	0.0
C	-0.405038	-0.0124	-1.509415
Cl	1.787093	0.0	0.0
H	0.459514	0.417611	-2.027786
H	-0.345627	0.930407	0.448561
C	-0.44068	-1.149387	0.783791
N	-0.617626	-2.123432	1.417438
N	-1.524497	0.886003	-1.724164
H	-1.853789	0.742317	-2.676916
H	-2.302465	0.57423	-1.078593
C	-0.569808	-1.447667	-2.016563
H	-0.691578	-1.428089	-3.104965
H	0.310122	-2.062055	-1.789794
H	-1.457371	-1.900468	-1.572489
H	-3.20425	0.0	0.0
