18

C	0.0	0.0	0.0
C	-0.38235	-0.026905	-1.493888
F	1.415515	0.0	0.0
H	-0.102481	0.92289	-1.95228
C	-0.50262	1.26688	0.649283
H	-0.193778	1.28754	1.698131
H	-1.593806	1.285031	0.596254
H	-0.081445	2.140653	0.148853
N	-0.510961	-1.136151	0.657571
H	-0.440098	-1.076176	1.66195
H	-0.122478	-1.9944	0.293222
N	-1.71162	-0.405644	-1.768433
H	-2.286285	0.352098	-2.102581
H	-2.188244	-0.797454	-0.960494
N	0.574332	-1.008147	-2.186836
O	0.539788	-2.183936	-1.831593
O	1.295943	-0.564253	-3.07784
Br	-4.546546	0.0	0.0
