18

C	0.0	0.0	0.0
C	-0.317929	-0.136003	-1.517984
F	1.383382	0.0	0.0
H	0.240218	0.670136	-1.997478
C	-0.475513	1.345743	0.510937
H	-1.568108	1.355683	0.531985
H	-0.10092	2.164598	-0.109622
H	-0.100544	1.486956	1.52927
N	-0.468956	-1.124741	0.750463
H	-0.434373	-0.894184	1.737743
H	-1.451179	-1.277071	0.531334
N	-1.658522	-0.157099	-2.003936
H	-2.212971	-0.870817	-1.544781
H	-2.13371	0.706654	-1.77197
N	0.353774	-1.390504	-2.017337
O	-0.265925	-2.441172	-1.885868
O	1.466685	-1.280104	-2.530195
Br	-4.227931	0.0	0.0
