16
Coordinates from ORCA-job run
  C   -0.54963383097971     -0.15090378316199     -0.47466380012825
  C   0.93906934974808     -0.40069378493238     -0.20648709337105
  Cl  -1.05344830101898     -1.40661856608785     -1.63068989253827
  H   1.48017404133922     -0.40354364683870     -1.15505190222553
  C   -1.44876228603024     -0.16954789927223      0.73423911219809
  H   -1.34469867087599     -1.12904516797057      1.24306661643908
  H   -2.48331930424900     -0.04822552987648      0.41950684837165
  H   -1.18861197157957      0.64242876461252      1.41146072683510
  N   -0.65960470804515      1.17491239719796     -1.23552493439675
  O   0.25724497538240      1.43156795930695     -2.00652398842698
  O   -1.66640270156115      1.83968459904553     -1.04691790948272
  C   1.14637726471172     -1.65400279768656      0.50553212851128
  N   1.28739253149264     -2.66531203372254      1.08595755063939
  N   1.59514527318200      0.71445220589391      0.60243678151314
  O   2.77222201463929      0.53027283780161      0.87192458425996
  O   0.91585632384445      1.69457444569083      0.88073517180185
