14

C	0.0	0.0	0.0
C	-0.560083	-0.024198	-1.416834
Br	1.961861	0.0	0.0
H	-1.678049	-0.051709	-1.212937
H	-0.293349	0.910663	-1.920097
C	-0.470241	1.262799	0.706824
H	-0.084011	2.133864	0.169324
H	-0.108048	1.288039	1.736242
H	-1.57034	1.222876	0.674488
C	-0.384037	-1.211188	0.732336
N	-0.559659	-2.201415	1.341797
C	-0.111201	-1.150683	-2.217642
N	0.24295	-2.048538	-2.888652
H	-3.011444	0.0	0.0
