14

C	0.0	0.0	0.0
C	-0.32104	-0.055965	-1.508235
Br	1.96529	0.0	0.0
H	0.189743	0.781551	-1.996229
H	0.104827	-0.978197	-1.921241
C	-0.267009	1.389022	0.628938
H	0.154569	1.407444	1.637219
H	0.24017	2.151505	0.031727
H	-1.33075	1.595852	0.669292
C	-0.647045	-1.073997	0.74049
N	-0.666587	-2.050311	1.426855
C	-1.763342	0.006606	-1.828287
N	-2.650437	0.062579	-2.621235
H	-2.125963	0.0	0.0
