14

C	0.0	0.0	0.0
C	-0.660403	0.017444	-1.367133
Br	1.962869	0.0	0.0
H	-0.436052	-0.886644	-1.941984
H	-1.786537	0.004655	-1.040123
C	-0.4753	1.187782	0.824954
H	-0.077657	1.14214	1.840283
H	-0.152289	2.116334	0.347929
H	-1.574878	1.114203	0.828208
C	-0.354366	-1.262185	0.665978
N	-0.545639	-2.287308	1.208121
C	-0.337512	1.201105	-2.136147
N	-0.081341	2.168638	-2.755105
H	-3.032709	0.0	0.0
