14

C	0.0	0.0	0.0
C	-0.38869	-0.173661	-1.464172
Br	1.965125	0.0	0.0
H	0.005998	-1.127991	-1.836553
H	0.086885	0.621042	-2.051178
C	-0.293021	1.429044	0.522388
H	-1.363506	1.609213	0.538329
H	0.193756	2.139757	-0.143761
H	0.124748	1.543792	1.525938
C	-0.581641	-1.034334	0.847964
N	-0.626884	-1.884658	1.676175
C	-1.860037	-0.097471	-1.660135
N	-2.668765	-0.10213	-2.543629
H	-2.205194	0.0	0.0
