14

C	0.0	0.0	0.0
C	-0.660718	-0.031673	-1.363736
Br	1.962009	0.0	0.0
H	-0.491638	0.915823	-1.883476
H	-1.783916	-0.082073	-1.04114
C	-0.492665	1.230201	0.748116
H	-1.592628	1.144602	0.746664
H	-0.172877	2.130652	0.216998
H	-0.103982	1.252332	1.767668
C	-0.344718	-1.21822	0.748048
N	-0.532989	-2.199295	1.367903
C	-0.273869	-1.144144	-2.206546
N	0.014426	-2.041221	-2.910715
H	-3.040401	0.0	0.0
