14

C	0.0	0.0	0.0
C	-0.640882	-0.013647	-1.375716
Br	1.96219	0.0	0.0
H	-1.757291	-0.062449	-1.085488
H	-0.445168	0.935211	-1.883639
C	-0.501082	1.219597	0.759711
H	-0.119234	1.231108	1.780822
H	-1.602016	1.128934	0.747362
H	-0.181668	2.128161	0.241338
C	-0.347209	-1.229964	0.727855
N	-0.530688	-2.223517	1.328867
C	-0.245528	-1.125011	-2.22056
N	0.059936	-2.016865	-2.923628
H	-3.064664	0.0	0.0
