16

C	0.0	0.0	0.0
C	-0.534549	-0.004421	-1.436408
F	1.357513	0.0	0.0
H	-1.636411	0.013589	-1.362175
C	-0.444887	1.149127	0.815836
N	-0.609674	2.045204	1.55713
C	-0.424751	-1.252028	0.667384
N	-0.543515	-2.299435	1.186547
C	-0.041854	-1.198026	-2.234883
H	1.049836	-1.21929	-2.282931
H	-0.399686	-2.118257	-1.770659
H	-0.447058	-1.142182	-3.242865
N	-0.142999	1.257113	-2.1472
O	-0.50854	1.345301	-3.316769
O	0.483688	2.120976	-1.539143
Br	-3.535732	0.0	0.0
