16

C	0.0	0.0	0.0
C	-0.463391	-0.163592	-1.457201
F	1.37753	0.0	0.0
H	-0.193734	0.75278	-1.98609
C	-0.458301	1.303788	0.506978
N	-0.710978	2.38849	0.8805
C	-0.448145	-1.076303	0.898903
N	-0.74161	-1.91187	1.670275
C	-1.921325	-0.526665	-1.608338
H	-2.114736	-1.518064	-1.197563
H	-2.597482	0.153373	-1.078778
H	-2.190839	-0.515006	-2.666255
N	0.396017	-1.223621	-2.084929
O	0.941903	-0.93842	-3.148745
O	0.461538	-2.306401	-1.510173
Br	-4.919935	0.0	0.0
