16

C	0.0	0.0	0.0
C	-0.518466	0.061002	-1.44347
F	1.372925	0.0	0.0
H	-1.597794	0.278309	-1.374535
C	-0.429285	1.127368	0.853628
N	-0.602695	2.007012	1.612573
C	-0.416503	-1.266141	0.637679
N	-0.515138	-2.318656	1.151261
C	-0.280582	-1.229244	-2.198534
H	-0.547023	-1.093647	-3.24369
H	0.761918	-1.544344	-2.133423
H	-0.922412	-2.000855	-1.776123
N	0.111906	1.226361	-2.152465
O	0.55157	2.153029	-1.476063
O	0.087897	1.208556	-3.381636
Br	-3.472258	0.0	0.0
