16

C	0.0	0.0	0.0
C	-0.531134	0.080375	-1.434128
F	1.370362	0.0	0.0
H	-1.627579	0.181812	-1.347703
C	-0.424831	1.118075	0.870783
N	-0.586981	1.991368	1.639418
C	-0.428883	-1.273598	0.613073
N	-0.54973	-2.333665	1.105634
C	-0.152202	-1.131969	-2.262298
H	-0.512113	-0.9948	-3.28038
H	-0.629438	-2.018136	-1.844124
H	0.930916	-1.275744	-2.277919
N	-0.039972	1.327325	-2.106332
O	-0.294987	1.426933	-3.304949
O	0.544461	2.179624	-1.437796
Br	-3.49959	0.0	0.0
