16

C	0.0	0.0	0.0
C	-0.393432	-0.050928	-1.505932
F	1.368241	0.0	0.0
H	-1.473575	0.061716	-1.585007
C	-0.422006	1.25651	0.642672
N	-0.459473	2.338169	1.101774
C	-0.436507	-1.220856	0.693021
N	-0.44685	-2.280088	1.204068
C	0.119043	-1.313057	-2.17733
H	1.195545	-1.426653	-2.038472
H	-0.099809	-1.262901	-3.246517
H	-0.398605	-2.179836	-1.764842
N	0.197338	1.121245	-2.257457
O	-0.579654	1.716664	-3.004053
O	1.400329	1.362941	-2.161471
Br	-3.299425	0.0	0.0
