16

C	-0.323238	-0.051327	-1.506473
C	0.0	0.0	0.0
Br	0.02633	1.780413	-2.197362
H	1.093618	0.0	0.0
H	-0.407769	0.894629	0.476667
C	0.68509	-0.983476	-2.165003
H	0.454715	-2.009468	-1.854209
H	1.676889	-0.725816	-1.776797
H	0.639725	-0.925014	-3.256012
C	-1.767037	-0.372476	-1.849392
H	-2.005061	-1.378173	-1.486172
H	-1.923983	-0.342373	-2.930394
H	-2.452303	0.336243	-1.377233
C	-0.504936	-1.18852	0.664695
N	-0.921283	-2.158952	1.183733
F	2.626133	0.0	0.0
