13
Coordinates from ORCA-job run
  C   0.65306381189811     -0.32012747232974      0.23888287402503
  C   -0.59108504260244      0.37612256247189      0.78720424352368
  F   1.28337536587782     -0.83344305466379      1.39278555720129
  H   -1.17537302776713     -0.34604408016302      1.35571837833370
  H   -0.30884776815717      1.22599275035726      1.40558322232296
  N   0.30368246165934     -1.29947995997990     -0.70241897664273
  H   -0.37953581666074     -1.95682467594958     -0.35024483752020
  H   1.10448976238289     -1.77481876750668     -1.09494652211743
  C   1.61407038846328      0.62288924613437     -0.36262813519462
  N   2.41080933275059      1.35361998207350     -0.81940799971544
  N   -1.43457112473073      0.86637880848573     -0.33357179660078
  O   -2.41297283459373      0.18670568954079     -0.63249521811350
  O   -1.06610550852009      1.90002897152918     -0.88446078950196
