13
Coordinates from ORCA-job run
  C   0.66593237741813     -0.38643953801346      0.33263688684439
  C   -0.69380330558568      0.13358217046081      0.79785177467792
  F   1.30176601261754     -0.81448100082450      1.49030674703492
  H   -1.31004481997647     -0.72205738213490      1.07619892915226
  H   -0.55666564378581      0.81828531840474      1.63094604348107
  N   0.52824536504305     -1.48899471811341     -0.54525705171793
  H   1.38929263682608     -1.69846486064032     -1.03299163555135
  H   -0.22598388484085     -1.34178461339728     -1.20393627812981
  C   1.49097196808090      0.72935996120003     -0.19805084301288
  N   2.12749752860386      1.59600979830026     -0.67148117478864
  N   -1.39668341179936      0.87693156664645     -0.28479452986334
  O   -1.61507537834872      2.07013895628854     -0.10511870325690
  O   -1.70644944425269      0.22991434182305     -1.28631016486971
