13
Coordinates from ORCA-job run
  C   0.42865790278365     -0.51073645827304      0.18262360968178
  C   -0.96664182234374      0.04150706087814     -0.08457181468152
  F   0.50484820896320     -1.00547415786794      1.46034385144194
  H   -1.14383333540374      0.16569025343841     -1.15125838891452
  H   -1.68366395224636     -0.65663840652631      0.34839172056581
  N   0.62945272503978     -1.62570754754894     -0.70164791503412
  H   0.70045163825658     -1.32054663235978     -1.66496141764424
  H   1.48789325606611     -2.10317427052335     -0.45001208394086
  C   1.46084360257187      0.55158800544325      0.05995238685419
  N   2.28963096725032      1.36376820131939     -0.12388944268520
  N   -1.18016838966300      1.37248040815644      0.55030183243294
  O   -1.63627640753385      2.26325752991868     -0.16198881059811
  O   -0.89219439374082      1.46498601394505      1.73971647252192
