13
Coordinates from ORCA-job run
  C   0.59793871917045     -0.31206910424077      0.10940801074238
  C   -0.43948381689966      0.79094837336769      0.32041165831461
  F   0.20681452681263     -1.37269001027168      0.95040140042039
  H   -0.28950285042766      1.59444606766931     -0.40126072283074
  H   -0.39611437900257      1.16358264836197      1.34075399449831
  N   0.74534148973122     -0.68317424074841     -1.23806456687404
  H   1.43681363718511     -1.41284281058170     -1.35053242250359
  H   -0.14319751902199     -0.95298812332673     -1.64013149051133
  C   1.89380691166653      0.17099554183918      0.62945531491008
  N   2.91352096887006      0.57558983920910      1.04670876042323
  N   -1.82676277913335      0.26801571100690      0.13046022923026
  O   -2.05935042447466     -0.35000281511954     -0.90699286307209
  O   -2.64082448447611      0.52018892283469      1.01038269725252
