13
Coordinates from ORCA-job run
  C   0.65175909225235     -0.32388196971083      0.23737393609617
  C   -0.59335944454582      0.36798921922085      0.78899463843895
  F   1.27510944312885     -0.85372493837093      1.38771598894027
  H   -1.18003301130320     -0.35933107857465      1.34840954829122
  H   -0.31208063808584      1.21112637294416      1.41695550460451
  N   0.30519304454367     -1.28993879019917     -0.71836434612167
  H   -0.38246341185817     -1.94947866161537     -0.37922957206972
  H   1.10697366202080     -1.76273811345399     -1.11200616262157
  C   1.61805166766871      0.62484901996466     -0.34645186022192
  N   2.41889239029264      1.35907783321585     -0.79022136391051
  N   -1.43307504746584      0.87084175957098     -0.32892028580719
  O   -2.41113218934145      0.19495058222676     -0.63764255640785
  O   -1.06283555730671      1.91025876478167     -0.86761346921070
