13
Coordinates from ORCA-job run
  C   0.55186611045571     -0.28616739041846      0.01192418111478
  C   -0.92918355539942      0.03171095672485     -0.15466370866387
  F   0.78966139838238     -0.37199986171436      1.39167472015980
  H   -1.52485063616707     -0.83624519516485      0.12437894928702
  H   -1.13949828834985      0.33980182451400     -1.17829012930009
  N   0.82894369345516     -1.48956764808637     -0.67551791099481
  H   1.81856842673193     -1.69967781391096     -0.68534158896174
  H   0.31514660221220     -2.26529623427086     -0.27639086629181
  C   1.43852713730460      0.77033074466543     -0.51137155379922
  N   2.18383872151715      1.55535467341176     -0.96449417199404
  N   -1.34192361381407      1.14001183303466      0.75232035877655
  O   -2.23472329234011      0.90068624096293      1.55941983698412
  O   -0.75737270398860      2.20905787025222      0.60635188368330
