13
Coordinates from ORCA-job run
  C   0.64655993452264     -0.39584596420227      0.34425695383189
  C   -0.60824339391296      0.34918252030664      0.79568458541846
  F   1.34533379112556     -0.66437824099405      1.51121093128539
  H   -0.33524568658562      1.13773459687325      1.49290146747474
  H   -1.28554013837414     -0.37016393383501      1.25935229525805
  N   0.33002492198594     -1.63330936989144     -0.27515749371469
  H   1.15172430037412     -2.05955755796607     -0.68575415526030
  H   -0.38080722752628     -1.50033405288543     -0.98391961941305
  C   1.51680917680231      0.50165604491431     -0.46032570209677
  N   2.18443677613326      1.19157189569610     -1.13747726309150
  N   -1.33293655556197      0.99187823692618     -0.33789519112259
  O   -1.67818112528089      2.15879313280118     -0.19411990389115
  O   -1.55393477370196      0.29277269225661     -1.32675690467850
