13
Coordinates from ORCA-job run
  C   0.47383268146245     -0.41145782452592      0.15886430736055
  C   -0.97310736170621      0.00586957437368     -0.07110782773042
  F   0.66310577961658     -0.60551421938260      1.50788815064398
  H   -1.17870102220464      0.13958293024195     -1.13269024678925
  H   -1.60971409977969     -0.75377518713281      0.37746753741916
  N   0.68179813048920     -1.67680550105576     -0.48492256526534
  H   0.59677444287858     -1.59070910563763     -1.49087045909273
  H   1.61278715259198     -2.01660723874294     -0.26950319010491
  C   1.43664961630843      0.63908255997606     -0.26076214282339
  N   2.24382897263524      1.39733334636809     -0.65279902253248
  N   -1.25417915491448      1.30249856831345      0.60426919232469
  O   -0.98451899035444      2.32092955186315     -0.03027991786044
  O   -1.70855614702299      1.24957254534126      1.74344618445057
