13
Coordinates from ORCA-job run
  C   0.70851546861106     -0.35135559747847      0.28117569883701
  C   -0.55109836480562      0.28737609343296      0.86539781829897
  F   1.52111128320219     -0.60933230563735      1.37700800485183
  H   -1.12033960636512     -0.48783907818494      1.37944590547429
  H   -0.27230919620040      1.09500744342306      1.53745373872277
  N   0.41723242907604     -1.57541249286777     -0.36824812516494
  H   1.18214162926461     -1.89110764031509     -0.95006802265124
  H   -0.43638246462625     -1.51047911327400     -0.90828354198062
  C   1.44642034679942      0.63239143738457     -0.55238930671837
  N   2.00511589506576      1.38656718919266     -1.25908944926560
  N   -1.41670929415023      0.86755597565152     -0.19903199578325
  O   -1.89851746633972      0.07575287264875     -1.01058455191133
  O   -1.58718065953176      2.08187521602412     -0.19278617270953
