13
Coordinates from ORCA-job run
  C   0.68571722780217     -0.29385055080527      0.17122145413236
  C   -0.53634699284330      0.32512220744840      0.84670467481305
  F   1.43802904036156     -0.80723376603298      1.24976579469072
  H   -0.24056208299345      1.17091386765580      1.46442226219403
  H   -1.03365285307157     -0.43993542106424      1.44134404961309
  N   0.30155837005555     -1.26267773868172     -0.76703905917281
  H   -0.31818956878858     -1.96152109952886     -0.37934563557557
  H   1.08613719024207     -1.68781136378241     -1.24142540669991
  C   1.54578539502800      0.71156510322712     -0.48012531065310
  N   2.26513628769685      1.49203904199184     -0.98087249273607
  N   -1.49764426983898      0.80260751040395     -0.18083243427881
  O   -1.22899925872499      1.86798516104994     -0.72896104790812
  O   -2.46496848492532      0.08279704811843     -0.41485684841885
