13
Coordinates from ORCA-job run
  C   0.50643216943245     -0.35819350110265     -0.02151270264053
  C   -0.90535149671468      0.19266797748637     -0.18062219353127
  F   0.64671327864522     -0.71489572549994      1.32849440704795
  H   -1.00928393421485      0.70253239173220     -1.13803515380419
  H   -1.62883379550700     -0.61601077640582     -0.08813610372719
  N   0.65942067591434     -1.45335675751040     -0.90202921032516
  H   1.61107611253495     -1.79653828398912     -0.91605904326704
  H   0.02357463217610     -2.20504681097333     -0.66569508399789
  C   1.55808045900299      0.63345571841452     -0.31487788462447
  N   2.43814651255159      1.36151661577005     -0.58420753012036
  N   -1.22162494345117      1.17219832613480      0.89718574102703
  O   -0.47503254072009      2.14170088712277      0.98907653415678
  O   -2.20331712964984      0.93896993882055      1.59541822380635
