13
Coordinates from ORCA-job run
  C   0.68154985750593     -0.28868188106090      0.19383125322505
  C   -0.55572594211640      0.34415167251188      0.82782260031687
  F   1.41167621295850     -0.77364106999275      1.29982465245983
  H   -1.06676721199122     -0.40773651322729      1.42743988810513
  H   -0.27387125425752      1.20358772078738      1.43312200579820
  N   0.31846289992514     -1.28176514942952     -0.72827380633472
  H   1.11476655113864     -1.71469715611401     -1.17558260025238
  H   -0.30309552594126     -1.97512942903176     -0.33277576834861
  C   1.55250099525835      0.70144369143573     -0.46656569106238
  N   2.27981237525735      1.46710282421585     -0.97841143539206
  N   -1.49348899745933      0.79884034332157     -0.23134262113773
  O   -1.21191664166799      1.85202894452342     -0.79656267385231
  O   -2.45490331861018      0.07349600206041     -0.47252580352487
