13
Coordinates from ORCA-job run
  C   0.58493621962173     -0.33857177256071      0.08892550410655
  C   -0.43688480647626      0.75234620529439      0.41178321686727
  F   0.12911863481615     -1.49737654941402      0.74845740779350
  H   -0.43123408483266      0.97515874114593      1.47578603526179
  H   -0.23898103124076      1.64414355982906     -0.18316608030183
  N   0.78688841336451     -0.51525560333927     -1.29023222859499
  H   1.46093833773164     -1.24517243011284     -1.47918179871419
  H   -0.08768992695606     -0.68626600726186     -1.76902809239136
  C   1.86557533614669      0.02393767302994      0.73062355006323
  N   2.87238860792022      0.33163887981839      1.24948558674808
  N   -1.82150443479438      0.29215726791509      0.09027280001387
  O   -2.65946460674499      0.37818706556732      0.97942498107366
  O   -2.02508665855584     -0.11592702991143     -1.05215088192558
