13
Coordinates from ORCA-job run
  C   0.51445523753098     -0.34686859554456     -0.02106618887899
  C   -0.93179363572439      0.13106385126038     -0.06274421560398
  F   0.89334100501935     -0.35509134324901      1.33030417676182
  H   -1.58440465830897     -0.63728674480392      0.34918162785599
  H   -1.22069196378516      0.38429480502776     -1.08233438353384
  N   0.57916041395181     -1.62472388831102     -0.62183972709872
  H   1.53272706996222     -1.95020586243439     -0.71420833247447
  H   0.03210938315970     -2.30074820304423     -0.10308818538061
  C   1.44981034158978      0.55259854324131     -0.72216880559498
  N   2.23322999271430      1.20190816076552     -1.30672415019544
  N   -1.11846849597945      1.34553790320882      0.78058606225482
  O   -0.41870127312754      2.31446630916970      0.50320776264770
  O   -1.96077341700263      1.28505506471363      1.67089435924069
