16

C	-0.361308	-0.004482	-1.467391
C	0.0	0.0	0.0
F	-0.038408	1.204719	-2.08088
H	1.097026	0.0	0.0
H	0.218199	-0.78389	-1.973261
C	-1.804444	-0.233264	-1.718454
N	-2.949712	-0.435793	-1.883541
C	-0.430877	-1.316648	0.633894
H	-0.031436	-1.363071	1.650462
H	-0.001291	-2.165107	0.089911
H	-1.520863	-1.446075	0.681662
C	-0.571635	1.205362	0.723219
H	-0.19664	1.217865	1.750768
H	-0.241291	2.129317	0.244456
H	-1.670731	1.200799	0.758629
F	2.661213	0.0	0.0
