16

C	-0.360029	-0.026942	-1.467452
C	0.0	0.0	0.0
F	-0.037363	1.173455	-2.098391
H	1.097016	0.0	0.0
H	0.221512	-0.812829	-1.960399
C	-1.802463	-0.260955	-1.718657
N	-2.947586	-0.466915	-1.881917
C	-0.430241	-1.307021	0.653581
H	-1.520027	-1.437784	0.700273
H	0.002445	-2.162844	0.124529
H	-0.033393	-1.336539	1.671872
C	-0.572286	1.216235	0.703833
H	-0.241795	2.132548	0.211116
H	-1.67136	1.212112	0.73856
H	-0.197871	1.244572	1.731127
F	2.661448	0.0	0.0
