16

C	0.0	0.0	0.0
C	-0.408892	-0.046063	-1.491689
Cl	1.803416	0.0	0.0
H	-0.328571	0.984904	-1.854193
H	0.353234	-0.624614	-2.02085
C	-0.600297	1.175366	0.742371
H	-1.694398	1.074171	0.693321
H	-0.279838	1.185868	1.786104
H	-0.291093	2.105039	0.259444
C	-0.35308	-1.267032	0.656349
N	-0.568104	-2.320769	1.129663
C	-1.787218	-0.632321	-1.766428
H	-2.070891	-0.41158	-2.801815
H	-1.764265	-1.719926	-1.649665
H	-2.597318	-0.263785	-1.108515
H	-4.085108	0.0	0.0
