16

C	0.0	0.0	0.0
C	-0.408433	0.131767	-1.482312
Cl	1.803481	0.0	0.0
H	0.309483	-0.450802	-2.069896
H	-0.248128	1.184838	-1.745674
C	-0.586605	1.086674	0.880119
H	-0.279807	2.063294	0.497878
H	-1.681128	0.999054	0.843322
H	-0.247681	0.97897	1.912728
C	-0.359824	-1.328523	0.514379
N	-0.590024	-2.392672	0.955443
C	-1.825181	-0.329938	-1.800688
H	-2.615528	-0.004013	-1.097035
H	-1.87403	-1.420828	-1.809634
H	-2.100733	0.019387	-2.801836
H	-4.182365	0.0	0.0
