12
Coordinates from ORCA-job run
  C   -0.63440899403681      0.48307370591403      0.34305601430911
  C   0.76977926450093     -0.10226742296186      0.10460306914300
  Br  -1.08454173022503      1.85269595812796     -0.90112675016004
  H   0.91725851923002     -0.88300435050645      0.86116045671062
  H   -0.70003717178627      0.88433191343081      1.35474816919327
  N   -1.60632909013004     -0.69392483666976      0.31166741573279
  O   -1.37523111957933     -1.51897998159173      1.19141194851642
  O   -2.48283929749077     -0.74026517667103     -0.53356768459189
  C   1.79411215317197      0.92721766620071      0.28986200792501
  N   2.61184842336533      1.74984151709643      0.47157171067943
  C   0.86421409857392     -0.71991638340141     -1.22146266840307
  N   0.92617494440607     -1.23880260896768     -2.27292368905465
