12
Coordinates from ORCA-job run
  C   -0.59558655593195      0.59263666716274      0.21735908336202
  C   0.75095409033546     -0.15350500911522      0.16861561961085
  Br  -0.84427096168269      1.76450081052935     -1.26299154697460
  H   0.78330544564027     -0.80002681281944      1.05440172984828
  H   -0.66593965140183      1.16573381705398      1.14231759082963
  N   -1.68051871841530     -0.47628451815612      0.32040979283087
  O   -2.51817775588014     -0.58322604036737     -0.55806036313432
  O   -1.57479087747375     -1.15817153845587      1.33628270565377
  C   1.86516786480670      0.79336331544183      0.24007961705096
  N   2.75046077006333      1.55908850609244      0.33060232265882
  C   0.83930207941991     -1.00064430112635     -1.02421968769165
  N   0.88909427051998     -1.70446489623998     -1.96279686404463
