12
Coordinates from ORCA-job run
  C   -0.54817478708054      0.45057242809625      0.42434001173768
  C   0.70226463764094      0.06389757336324     -0.37742168224555
  Br  -0.98285560366039      2.30502299872701      0.18395278148684
  H   0.50507204323274      0.27594176271004     -1.43388026450041
  H   -0.43889814832317      0.25086404327370      1.48929052429715
  N   -1.71031703363820     -0.38520798044326     -0.05439480336330
  O   -1.75554604925339     -0.63095782663662     -1.25432884969924
  O   -2.51151764127215     -0.72848227259107      0.80555434440229
  C   0.95587134613116     -1.37365462900728     -0.22193682433558
  N   1.13401135954294     -2.52480692027805     -0.07347339652128
  C   1.85992975014868      0.83953865475098      0.07419673818041
  N   2.78916012653136      1.45727216803506      0.43910142056097
