12
Coordinates from ORCA-job run
  C   -0.54953347350606      0.45701084276844      0.41665190443770
  C   0.70155925774839      0.05929506858550     -0.37906056356186
  Br  -0.98890967949043      2.30587382968910      0.14449839208783
  H   0.50274686653282      0.25170999924076     -1.43891044600106
  H   -0.43896154403863      0.27533367020506      1.48468352922364
  N   -1.70785333611657     -0.39109536852258     -0.04875870853849
  O   -1.76878337460125     -0.62748530367519     -1.24995913890734
  O   -2.49116051518082     -0.75134143515915      0.82078851644856
  C   0.95852559285271     -1.37451539095148     -0.19641489257775
  N   1.14002278863366     -2.52207156378090     -0.02564578804060
  C   1.85744169508860      0.84550577599034      0.05859718994773
  N   2.78490572207758      1.47177987561010      0.41353000548164
