12
Coordinates from ORCA-job run
  C   -0.67161663591399      0.64496242563967     -0.07573816178513
  C   0.81403696361706      0.30981096106094     -0.25266932597978
  Br  -1.49614068986101      1.06532201075454     -1.75847546017439
  H   1.28490930714003      1.22242217597603     -0.64089630660271
  H   -0.79416502135017      1.50425548491214      0.58372825752827
  N   -1.42510412939251     -0.48881887655220      0.58070626560653
  O   -2.47980228345505     -0.17580619484994      1.11614588170103
  O   -0.92296134321335     -1.60525453432471      0.51938045277318
  C   1.07200339725940     -0.76167615486147     -1.21907652191087
  N   1.33302673514939     -1.57107664290011     -2.02797456722087
  C   1.41210535844869      0.01720148404618      1.05530253346446
  N   1.87470834157151     -0.16134213890107      2.11956695260028
