12
Coordinates from ORCA-job run
  C   -0.54820054430916      0.35539659560365      0.50693634225106
  C   0.68744763423977      0.14758124522415     -0.37948117430824
  Br  -1.05087819236253      2.20678925701364      0.57827694470754
  H   0.44632894302037      0.51260628212549     -1.38374750474173
  H   -0.39880189478873     -0.00734867840472      1.52275823180644
  N   -1.69689983766332     -0.43605340656270     -0.06988597574845
  O   -1.77936910696760     -0.47608801684057     -1.29225455236344
  O   -2.45369502322002     -0.95042947860861      0.74383299388091
  C   0.99402716251008     -1.28588188894141     -0.45789593818862
  N   1.21358012125347     -2.43870464770158     -0.49952460953675
  C   1.83303672782471      0.88943191381780      0.15225238710997
  N   2.75242401046296      1.48270082327487      0.57773285513132
