12

C	0.0	0.0	0.0
C	-0.481402	-0.004711	-1.469786
Br	1.95172	0.0	0.0
H	0.373594	0.14049	-2.13758
H	-0.334563	-0.905467	0.495099
H	-1.1861	0.822087	-1.576631
C	-0.425624	1.178551	0.748022
N	-0.58733	2.171325	1.355563
N	-1.109918	-1.300681	-1.718508
H	-1.968073	-1.161904	-1.157469
H	-1.370003	-1.339767	-2.699659
F	-2.540866	0.0	0.0
