12

C	0.0	0.0	0.0
C	-0.484801	-0.489457	-1.35758
Br	1.956941	0.0	0.0
H	-1.582458	-0.433095	-1.188521
H	-0.335367	-0.689489	0.767596
H	-0.157743	0.224485	-2.127638
C	-0.438479	1.358779	0.315024
N	-0.616957	2.486943	0.592119
N	-0.02944	-1.860117	-1.584976
H	0.827548	-1.876436	-2.122919
H	-0.740475	-2.355884	-2.103282
F	-2.64394	0.0	0.0
