12

C	0.0	0.0	0.0
C	-0.447254	-0.173505	-1.446623
Br	1.956904	0.0	0.0
H	-1.544176	-0.157252	-1.3125
H	-0.345428	-0.846883	0.58425
H	-0.094399	0.691692	-2.028183
C	-0.442232	1.251864	0.605755
N	-0.619725	2.293116	1.121541
N	0.019826	-1.462407	-1.956859
H	-0.62337	-1.779822	-2.669334
H	0.935505	-1.371707	-2.378744
F	-2.591938	0.0	0.0
