12

C	0.0	0.0	0.0
C	-0.466953	-0.018008	-1.452392
Br	1.958949	0.0	0.0
H	-1.564865	-0.028009	-1.292232
H	-0.348024	-0.887175	0.521355
H	-0.123903	-0.96514	-1.895802
C	-0.431797	1.195453	0.719297
N	-0.599756	2.182984	1.333
N	-0.012443	1.166725	-2.168136
H	-0.726601	1.461157	-2.818268
H	0.840608	0.988753	-2.68033
F	-2.617562	0.0	0.0
