12

C	0.0	0.0	0.0
C	-0.4605	-0.048716	-1.501234
Br	1.952881	0.0	0.0
H	0.423629	0.035685	-2.141851
H	-0.341331	-0.880879	0.533295
H	-1.109116	0.80823	-1.661634
C	-0.425804	1.201941	0.707475
N	-0.586075	2.219038	1.273557
N	-1.229447	-1.225892	-1.849246
H	-2.020135	-1.113256	-1.1918
H	-0.696732	-2.055151	-1.603605
F	-2.514091	0.0	0.0
