12

C	0.0	0.0	0.0
C	-0.456974	0.437365	-1.439281
Br	1.95296	0.0	0.0
H	-1.100207	1.304654	-1.31601
H	-0.341193	-1.006546	0.220538
H	0.428169	0.718383	-2.017879
C	-0.431573	0.909987	1.054398
N	-0.593867	1.689233	1.919334
N	-1.228872	-0.560904	-2.147082
H	-2.019382	-0.664125	-1.488163
H	-0.699525	-1.427455	-2.180956
F	-2.509628	0.0	0.0
