16
Coordinates from ORCA-job run
  C   -0.45535080465514      0.38981461116494      0.04152938680997
  C   0.85070780268523     -0.40882565936853     -0.04531731234808
  Cl  -0.10611531619550      2.07423098892891      0.38658677635018
  H   0.62419574115220     -1.38040806545191     -0.49555353175505
  C   -1.40387550905553     -0.18571358776805      1.07835025759513
  H   -2.34979714773853      0.35684529475592      1.03027457193928
  H   -1.58436429962137     -1.24292092177861      0.87511257073934
  H   -0.98352391250601     -0.06813551431996      2.07676221257567
  N   -1.18076097560103      0.24955579402936     -1.31282057791888
  O   -1.27963018068446     -0.90946882499701     -1.69939129621389
  O   -1.65190913112050      1.24261240889395     -1.83434712934713
  C   1.45557428927554     -0.57791159832497      1.26619334758911
  N   1.88698335063346     -0.74301371402661      2.34615511267758
  N   1.83103789773470      0.25289940750934     -0.99982592565131
  O   1.35652809852076      0.57131211070396     -2.08194000730231
  O   2.98930009717619      0.37912727004926     -0.63076845573960
