16
Coordinates from ORCA-job run
  C   -0.47481540850568      0.36852065981436      0.03048449081554
  C   0.86895102257111     -0.36792033786412     -0.01728365532054
  Cl  -0.21880289236941      2.05837911474180      0.42622794279928
  H   0.70772440419051     -1.33773873350335     -0.49853735414880
  C   -1.43835877666530     -0.27351253027752      1.01310751214550
  H   -1.06636654064160     -0.16016611498417      2.03099592892740
  H   -1.56068491859426     -1.33275541601030      0.77967149420303
  H   -2.40549199989653      0.22667096825252      0.93575978998586
  N   -1.13535805215157      0.22678113499981     -1.35662654974469
  O   -1.62641556451769      1.20964007977757     -1.87872655102576
  O   -1.16471809613081     -0.92656215422866     -1.77069893856544
  C   1.42614631761911     -0.54246111476410      1.31447592580739
  N   1.82394763232959     -0.72033606408675      2.40530251307502
  N   1.85808894201133      0.35994957930277     -0.91377630889781
  O   1.41349754376922      0.68914874325469     -2.00525784429085
  O   2.99465638698197      0.52236218557544     -0.49511839576514
