16
Coordinates from ORCA-job run
  C   -0.43780154176832      0.41081528674193      0.02446181118186
  C   0.83153276505436     -0.44755071578222     -0.02810975884458
  Cl  -0.01338626871370      2.09238702596016      0.28970758994815
  H   0.56165105430127     -1.42819935779763     -0.43247396581714
  C   -1.40630704642032     -0.07324870126899      1.08922889914527
  H   -0.97621887546974      0.07032956857714      2.08000158280485
  H   -1.63565806127584     -1.12913784024303      0.93490619369637
  H   -2.32644452631790      0.50954722590946      1.01908450117784
  N   -1.17442172412582      0.23974815866450     -1.32048222254002
  O   -1.32539663196431     -0.93047820301885     -1.65236194653172
  O   -1.60279296732041      1.22725540374950     -1.88729133478182
  C   1.43421559226013     -0.58221230298641      1.28840472283869
  N   1.86345347873742     -0.71665094576792      2.37348812507599
  N   1.83631559659829      0.12589005277277     -1.01440519290524
  O   3.00034509050440      0.21877467676792     -0.65377315228152
  O   1.37191406592047      0.41373066772168     -2.10938585216699
