16
Coordinates from ORCA-job run
  C   -0.45235671202301      0.39517701970470      0.02044223455327
  C   0.84712740285349     -0.41810208525620     -0.00915959899627
  Cl  -0.09790129057554      2.07914864397251      0.36150794055383
  H   0.62772812399850     -1.39169322186880     -0.45857856570881
  C   -1.44543867155997     -0.15955131906208      1.02655790598509
  H   -1.63087648672041     -1.21629314162574      0.82594274757959
  H   -1.06111379956154     -0.03771167784151      2.03880348893025
  H   -2.38214454383685      0.39378402110810      0.93848985095183
  N   -1.12809140136107      0.24829451374599     -1.35876152310212
  O   -1.22469354561734     -0.91356144005224     -1.73723553474596
  O   -1.56831483138976      1.24071596683023     -1.90766769366630
  C   1.40057178767621     -0.58014043210371      1.32571116794312
  N   1.79042532876905     -0.73899501403259      2.42230047627046
  N   1.87036619472906      0.22371002280147     -0.93237073624984
  O   1.44011293928627      0.53743580609210     -2.03417923146844
  O   3.01559950533292      0.33978233758778     -0.52180292882968
