13
Coordinates from ORCA-job run
  C   -0.39220715028083      0.19296638664001      0.07958250351798
  C   1.07103609734111      0.12090412806840     -0.36940443606844
  H   -0.53320226707636      1.11971296619422      0.65430126153076
  H   1.28618529290309      0.89359578069662     -1.11432216342393
  H   1.23802029108745     -0.84832626745602     -0.84835442406237
  N   -0.65774500735074     -0.90406415522349      0.97965086734353
  H   -0.76020020610346     -1.75518248734295      0.43739311939646
  H   -1.51282723864141     -0.75251924634398      1.49915001120109
  N   -1.21770781315781      0.12518249362149     -1.12878103582697
  H   -2.19617299642431      0.15839440265066     -0.86501423433260
  H   -1.04159729629909      0.92406883399102     -1.72941570886960
  C   1.98782178765596      0.28319246878751      0.75559600003662
  N   2.72859650634641      0.44307469571648      1.65061823955745
