13
Coordinates from ORCA-job run
  C   -0.41011006583484      0.26301644163614      0.06430194506185
  C   1.06022932943607      0.31950632530916     -0.36554438653418
  H   -0.55867324542421      1.00567984510185      0.86223691327216
  H   1.20498292963755     -0.36985944752408     -1.20267184313904
  H   1.29013327871204      1.33001586250248     -0.70819793994703
  N   -0.72049974340480     -1.10443990584463      0.47416052501693
  H   -0.12220485516727     -1.39851355295360      1.23967061463883
  H   -1.67741642313865     -1.14675747197211      0.80632659546902
  N   -1.21512270499549      0.68683460563473     -1.06288667645387
  H   -1.29384343979156     -0.09514213201556     -1.70513468290104
  H   -2.14977308729115      0.92898960158059     -0.75783327397177
  C   1.95803552011824     -0.05486037539707      0.72449296646983
  N   2.63426250714406     -0.36546979605789      1.63207924301829
