13
Coordinates from ORCA-job run
  C   -0.32942952328127     -0.10880957965012     -0.34806234535580
  C   1.01941937715995      0.56255766552578     -0.06568834940514
  H   -0.17714793654079     -0.85432375652909     -1.14263060181542
  H   0.86726511174165      1.35047298500200      0.67795401986496
  H   1.38478510057808      1.02322654480095     -0.98530429069335
  N   -1.22096853218311      0.90084965619227     -0.88093926936759
  H   -1.57181237101257      1.45239365721299     -0.10448440642160
  H   -2.01604726676116      0.46645310563846     -1.33307234560582
  N   -0.83284941693350     -0.67919725210032      0.89913235992535
  H   -1.70244219740429     -1.16796869268897      0.71828323400304
  H   -0.17908279139476     -1.35695217965608      1.27814496831721
  C   2.00362527620767     -0.39098512580898      0.44073867250863
  N   2.75468516982409     -1.19671702793891      0.84592835404553
