13
Coordinates from ORCA-job run
  C   -0.35132386806536     -0.08630130418637     -0.32848564374066
  C   1.00814981273571      0.55266400414388     -0.01002480555139
  H   -0.20064672994138     -0.78662447666203     -1.15645313980729
  H   0.86029710885465      1.29793942898651      0.78030085855893
  H   1.36422949912308      1.09697309686552     -0.88554878991325
  N   -1.25823035059438      0.95635799217974     -0.77247254184208
  H   -1.82733465228132      0.66849186119380     -1.55137705685545
  H   -1.80069688565684      1.31384587618718     -0.00306378950045
  N   -0.83850530985599     -0.75059502234719      0.88910697355997
  H   -0.17314417764847     -1.42972122872604      1.22023154440625
  H   -1.67791834930599     -1.25921735786305      0.65913883325776
  C   2.04415176550315     -0.38953023867680      0.42648637409287
  N   2.85097213713314     -1.18428263109517      0.73316118333478
