13
Coordinates from ORCA-job run
  C   -0.23512820804166     -0.29527293133142     -0.32678794128348
  C   1.03760696433509     -0.06390573871458      0.49302247464904
  H   0.05317514400009     -0.70665760964264     -1.29875256644783
  H   1.51513477226232     -1.02611801042829      0.68799239074800
  H   0.77248130761534      0.36902958856809      1.46557493550465
  N   -0.86204514749448      0.99115344862098     -0.58286733623791
  H   -1.20730850703722      1.39450209171733      0.28145340112944
  H   -1.64591795295448      0.88861115452501     -1.21601049809076
  N   -1.00501696603972     -1.33134718755570      0.35635271975199
  H   -1.80650792480650     -1.59346478922029     -0.20572862926779
  H   -1.35811764841400     -0.97196210506801      1.23751816732701
  C   1.98036838029903      0.82743225578757     -0.17725715506710
  N   2.76127578627618      1.51899983274192     -0.71350996271525
