18

C	0.0	0.0	0.0
C	-0.371984	0.139385	-1.527641
Cl	1.861982	0.0	0.0
H	0.556533	0.082424	-2.102987
N	-0.497303	1.074385	0.755477
H	-0.71637	0.8394	1.709764
H	0.016063	1.936523	0.674238
C	-0.45966	-1.310925	0.604183
H	-1.555605	-1.303482	0.600407
H	-0.09186	-2.160348	0.029885
H	-0.083254	-1.390258	1.627783
C	-1.071102	1.457168	-1.865282
H	-0.423821	2.30015	-1.60731
H	-2.011398	1.516947	-1.318422
H	-1.262414	1.495778	-2.941727
C	-1.151995	-1.002642	-2.016848
N	-1.652515	-1.937532	-2.521797
Cl	-3.832673	0.0	0.0
