18

C	0.0	0.0	0.0
C	-0.263227	-0.239853	-1.528928
Cl	1.797957	0.0	0.0
H	0.339811	0.528834	-2.024336
N	-0.513284	1.304716	0.335527
H	-1.528438	1.246646	0.224632
H	-0.348042	1.471398	1.323087
C	-0.505023	-1.128425	0.880562
H	-1.598013	-1.140639	0.811795
H	-0.097758	-2.096155	0.582103
H	-0.222358	-0.934883	1.919204
C	-1.689928	-0.137093	-2.061405
H	-2.363096	-0.866112	-1.619725
H	-1.665916	-0.28694	-3.145143
H	-2.118227	0.841456	-1.854667
C	0.294271	-1.535768	-1.932786
N	0.693262	-2.583389	-2.283963
Cl	-4.138539	0.0	0.0
