18

C	0.0	0.0	0.0
C	-0.524523	-0.094979	-1.442432
Cl	1.849835	0.0	0.0
H	-1.617073	-0.005438	-1.304308
N	-0.463446	1.213524	0.557015
H	-0.123862	2.028577	0.064278
H	-0.256969	1.286172	1.542713
C	-0.479664	-1.162518	0.841528
H	-0.171096	-1.013364	1.879941
H	-0.058625	-2.107411	0.499464
H	-1.573187	-1.169603	0.783484
C	-0.19419	-1.395751	-2.170538
H	0.883063	-1.575163	-2.191416
H	-0.694248	-2.230731	-1.67969
H	-0.561995	-1.346034	-3.197342
C	-0.067756	1.057495	-2.218949
N	0.308371	1.97565	-2.848031
Cl	-3.837652	0.0	0.0
