16

C	-0.514776	0.039188	-1.433368
C	0.0	0.0	0.0
F	0.006355	1.126827	-2.132946
H	1.090561	0.0	0.0
H	-0.111747	-0.86293	-1.907389
C	-2.025484	0.11472	-1.582454
H	-2.533378	-0.685234	-1.037171
H	-2.298656	0.045883	-2.638575
H	-2.38391	1.070592	-1.194574
N	-0.350137	-1.207467	0.692754
H	0.464534	-1.805173	0.680961
H	-1.166797	-1.688838	0.345334
N	-0.58848	1.17948	0.709921
O	-0.081051	2.278325	0.487377
O	-1.593224	1.014499	1.409422
F	2.584615	0.0	0.0
