16

C	-0.463796	0.111823	-1.455156
C	0.0	0.0	0.0
F	-0.245687	-1.129908	-2.04989
H	1.09075	0.0	0.0
H	-1.548471	0.2882	-1.518922
C	0.352394	1.130954	-2.220223
H	1.394621	0.98996	-1.926676
H	0.052017	2.149761	-1.977302
H	0.21959	0.966485	-3.292672
N	-0.52652	-1.150339	0.660216
H	-1.424169	-0.946068	1.07991
H	0.125768	-1.417771	1.385438
N	-0.451987	1.283505	0.678175
O	-1.452785	1.240208	1.406505
O	0.178353	2.316418	0.462111
F	2.617473	0.0	0.0
