16

C	-0.529977	0.024324	-1.425976
C	0.0	0.0	0.0
F	-0.10026	-1.139947	-2.057565
H	1.090732	0.0	0.0
H	-1.629438	-0.016272	-1.426953
C	0.003485	1.20464	-2.20685
H	-0.466109	2.1373	-1.889636
H	1.077914	1.263251	-2.024751
H	-0.198576	1.058265	-3.270782
N	-0.523415	-1.108445	0.732606
H	0.050258	-1.254076	1.553603
H	-1.481294	-0.933806	1.011543
N	-0.477126	1.324496	0.592907
O	0.280011	2.2904	0.603221
O	-1.644529	1.367538	1.008827
F	2.619228	0.0	0.0
