16

C	-0.491363	0.018139	-1.44358
C	0.0	0.0	0.0
F	-0.177539	-1.233128	-1.99183
H	1.090781	0.0	0.0
H	-1.587986	0.092148	-1.480237
C	0.200483	1.089782	-2.248857
H	-0.161332	2.079605	-1.962387
H	0.012471	0.943866	-3.315396
H	1.266678	1.024426	-2.022952
N	-0.504489	-1.086389	0.795352
H	0.131075	-1.864522	0.660641
H	-1.439176	-1.35907	0.507641
N	-0.525256	1.27726	0.586888
O	0.220678	2.248681	0.676677
O	-1.721302	1.291065	0.903629
F	2.629036	0.0	0.0
