13

C	-0.162606	0.130545	-1.535838
C	0.0	0.0	0.0
Cl	-0.062467	-1.591628	-2.27007
H	1.097508	0.0	0.0
H	-1.152997	0.453434	-1.857716
N	0.861162	0.99129	-1.95096
H	1.74183	0.727559	-1.47696
H	0.945365	1.056415	-2.954515
C	-0.600506	-1.167195	0.611403
N	-1.08776	-2.088457	1.153913
C	-0.477941	1.219112	0.635238
N	-0.87361	2.198946	1.150552
F	2.5508	0.0	0.0
