13

C	-0.108877	-0.04522	-1.526382
C	0.0	0.0	0.0
Cl	-1.785575	-0.410377	-2.12475
H	1.098507	0.0	0.0
H	0.078082	0.972539	-1.88846
N	0.818269	-1.040458	-1.976131
H	0.984626	-0.935683	-2.969195
H	1.690886	-0.856656	-1.452583
C	-0.491149	-1.203735	0.645085
N	-0.877825	-2.16387	1.201014
C	-0.564887	1.204835	0.570029
N	-1.004823	2.199201	1.016403
F	2.540382	0.0	0.0
