13

C	-0.162217	-0.083608	-1.552944
C	0.0	0.0	0.0
Cl	-0.029981	-1.8056	-2.045881
H	1.090977	0.0	0.0
H	-1.149801	0.242683	-1.882658
N	0.866938	0.685172	-2.196594
H	0.616104	1.664094	-2.108277
H	1.723904	0.533378	-1.638326
C	-0.613238	-1.040728	0.793469
N	-1.107572	-1.874867	1.458876
C	-0.442407	1.322031	0.413605
N	-0.772352	2.419104	0.682885
F	2.534987	0.0	0.0
