13

C	-0.048084	0.004471	-1.542179
C	0.0	0.0	0.0
Cl	-1.713261	-0.216789	-2.193361
H	1.097994	0.0	0.0
H	0.274248	0.999639	-1.854456
N	0.85114	-0.9682	-2.108922
H	1.730926	-0.796471	-1.598732
H	0.529034	-1.895086	-1.843302
C	-0.494989	-1.240304	0.559932
N	-0.869276	-2.267664	0.99138
C	-0.57777	1.174845	0.613306
N	-1.021526	2.150496	1.096902
F	2.526105	0.0	0.0
