13

C	-0.373495	0.038561	-1.480453
C	0.0	0.0	0.0
Cl	0.192256	1.570671	-2.20857
H	1.095779	0.0	0.0
H	0.230353	-0.736993	-1.965615
N	-1.801805	-0.056262	-1.693864
H	-1.997222	-0.113236	-2.686491
H	-2.137101	-0.906286	-1.25203
C	-0.446278	-1.266235	0.55436
N	-0.825848	-2.306967	0.952156
C	-0.53951	1.116816	0.753167
N	-0.939746	2.018384	1.392955
F	2.459665	0.0	0.0
