13

C	-0.356393	0.038022	-1.485484
C	0.0	0.0	0.0
Cl	0.181218	1.58746	-2.202419
H	1.096602	0.0	0.0
H	0.275166	-0.718615	-1.964249
N	-1.776827	-0.093466	-1.722405
H	-1.94815	-0.196218	-2.715868
H	-2.105905	-0.930356	-1.252703
C	-0.43105	-1.275554	0.544392
N	-0.745066	-2.334845	0.949452
C	-0.554122	1.104567	0.758139
N	-0.955924	2.002531	1.402041
F	2.456764	0.0	0.0
