13
Coordinates from ORCA-job run
  C   -0.23394330284355     -0.11941265928521      0.24130412791174
  C   0.82528959723928     -0.22410642021159     -0.86744662104699
  Cl  -0.13729679445833     -1.59179794133386      1.26052902442533
  H   0.61847441600456     -1.12227531237144     -1.45612299539503
  H   0.72964813962570      0.64503279103499     -1.52649488757534
  C   0.03732178262084      1.04453176900163      1.08617221375596
  N   0.22861279100920      2.00841830145747      1.73034387663408
  C   -1.63162125705692     -0.02329450810958     -0.36063107389863
  H   -1.82517533091719     -0.90264565983041     -0.97775677368904
  H   -1.71041785832417      0.87703729156247     -0.97497532203436
  H   -2.38056518005128      0.02275823486111      0.43002854111493
  C   2.18994808435008     -0.28510150015111     -0.35214852801937
  N   3.28972491280177     -0.32914438662446      0.05419841781671
