13
Coordinates from ORCA-job run
  C   -0.28499823526599     -0.23844342800166      0.39671265774132
  C   1.01310158373062     -0.70208991886398     -0.28905285096226
  Cl  -0.87996727706918     -1.62926632035141      1.36546969510030
  H   1.74155085631243     -1.00683490482248      0.46654628147995
  H   0.78496066881920     -1.57547846574964     -0.90670083280087
  C   0.00361492661816      0.86367898631322      1.31567667937046
  N   0.23761611492156      1.76683597941294      2.02996997286844
  C   -1.35580676912911      0.16587359160854     -0.60795164857156
  H   -2.27514114910852      0.43647548373089     -0.08824606084035
  H   -1.56184472369410     -0.67143918234562     -1.27766698944994
  H   -1.01283025283369      1.02196617586136     -1.19311120826868
  C   1.57872859857617      0.35456686668944     -1.12431847127535
  N   2.01001565812244      1.21315513651841     -1.79832722439145
