13
Coordinates from ORCA-job run
  C   -0.16721887780979     -0.10900733918220      0.41612309194987
  C   1.18136299459549      0.14704530791468     -0.28307221678103
  Cl  -0.14405396382369     -1.76262394945516      1.11152539077141
  H   1.99740200593398     -0.01825747733259      0.42452261923803
  H   1.21858333188715      1.19359759939211     -0.60288857293105
  C   -0.28870506968471      0.84745977188270      1.51846216589154
  N   -0.37821569539927      1.64805660487853      2.37378494713165
  C   -1.35091547369164      0.01850470195329     -0.53419879027859
  H   -1.36869495177244      1.02122038456030     -0.96935819717936
  H   -2.28366164189929     -0.15007577580749      0.00427655588213
  H   -1.26366486010559     -0.71982032268267     -1.33245324504192
  C   1.35964590940982     -0.71604777175594     -1.44717371978014
  N   1.48713629235998     -1.40205173436558     -2.39055002887256
