13
Coordinates from ORCA-job run
  C   -0.23545895865065     -0.06729890883593      0.25467106105605
  C   0.82601339407209     -0.32439551783658     -0.82730634250329
  Cl  -0.14167715252562     -1.38370565086533      1.46822462682236
  H   0.61633675373739     -1.29249168269841     -1.29079440991869
  H   0.73580685105593      0.44942430420940     -1.59670478865670
  C   0.03635315154921      1.20293654386045      0.92910474166850
  N   0.23346048028041      2.24767357467382      1.42925096374020
  C   -1.63189245546331     -0.05522737382705     -0.35776443544194
  H   -1.82815942457244     -1.01567579772825     -0.83792356985908
  H   -2.38200856251408      0.11063932039251      0.41554310275309
  H   -1.70550897912479      0.74417259713356     -1.09921413404247
  C   2.18913259721351     -0.31856436852069     -0.30457924923412
  N   3.28860230494232     -0.29648703995747      0.10449243361610
