13
Coordinates from ORCA-job run
  C   -0.23458639474973     -0.08667256510373      0.25090035077691
  C   0.81487410715479     -0.29360049744089     -0.85284794776765
  Cl  -0.16312529235346     -1.48415149051048      1.37253675704920
  H   0.58508971096166     -1.22649315889117     -1.37527786577541
  H   0.73373903116472      0.52854220936686     -1.57153241954539
  C   0.06864376760396      1.12863760899003      1.00802016865001
  N   0.29032516895331      2.13361423259045      1.57492850649920
  C   -1.63365408975122     -0.00308265575256     -0.34940209471401
  H   -1.84968336605455     -0.91948259380078     -0.90179010225978
  H   -2.37658756327871      0.11486664038776      0.43946644335206
  H   -1.69728312631219      0.85295350676958     -1.02570502691963
  C   2.18133402086245     -0.34808269467168     -0.34151779069060
  N   3.28191402579901     -0.39704854193341      0.06222102134504
