13
Coordinates from ORCA-job run
  C   -0.20103780446710     -0.15358409578276      0.39507237637957
  C   1.18920001372372     -0.09229260321083     -0.26585434957911
  Cl  -0.55295271638095     -1.85837024943754      0.82747980341049
  H   1.45632926774195      0.95773450595871     -0.42432051021008
  H   1.93221249928026     -0.53242832519945      0.40352163787245
  C   -0.14344328337245      0.62828019377091      1.63199289334853
  N   -0.08439764370669      1.29293425008590      2.59898995737630
  C   -1.30323456561053      0.37050762639925     -0.51667311505868
  H   -1.36207111434907     -0.24636468569727     -1.41435293548125
  H   -2.26332356351155      0.33961772261885     -0.00139101127965
  H   -1.08617128268837      1.40325166936063     -0.80177189695690
  C   1.20865241330687     -0.78784537355158     -1.54958278308226
  N   1.21023778003391     -1.32244063531480     -2.59411006673939
