13
Coordinates from ORCA-job run
  C   -0.17399127534983     -0.14181821450936      0.40659589007853
  C   1.18560195316996     -0.02777385347089     -0.30842279824752
  Cl  -0.40905365418206     -1.84535409345488      0.91687464678775
  H   1.38695922943135      1.02850583734006     -0.51507047350034
  H   1.97641444980052     -0.39906570981661      0.34795359051089
  C   -0.11732838387057      0.69127574335458      1.60969825965189
  N   -0.05149454599879      1.39382204532348      2.54909937472892
  C   -1.33758609078244      0.28063378465711     -0.48120177548727
  H   -1.19933358857995      1.31615342576707     -0.80298777311685
  H   -2.27569017247171      0.20319340863185      0.06858328433649
  H   -1.38580308629025     -0.36643351264833     -1.35801232410798
  C   1.20112589117669     -0.77298206197837     -1.56409584823561
  N   1.20017927394701     -1.36015679919569     -2.58001405339893
