13
Coordinates from ORCA-job run
  C   -0.15994765419522      0.00662068177820      0.42910323205810
  C   1.18242352704360      0.06798510099526     -0.32388546113409
  Cl  -0.18264004767905     -1.47909164788663      1.43417469247796
  H   1.25030944404960      1.02909787834486     -0.84412131420459
  H   2.00614724146842      0.01345215960427      0.39196256859253
  C   -0.22464679501905      1.16383946975774      1.32421749039985
  N   -0.27080166319906      2.11918704626090      2.00648593874012
  C   -1.35721749042141     -0.00686685447060     -0.51255710482369
  H   -1.31317298334319     -0.88969662215861     -1.15169901142026
  H   -1.34704895204685      0.89139377074724     -1.13546836537750
  H   -2.28441676196418     -0.02960309338906      0.06021492873137
  C   1.30670545590243     -1.01280457900874     -1.29786099369634
  N   1.39430667940397     -1.87251331057484     -2.09156660034347
