13
Coordinates from ORCA-job run
  C   -0.22320843794630     -0.04279732360956      0.26576987944348
  C   0.83276220129138     -0.33556128883250     -0.81183181809415
  Cl  -0.00746206445955     -1.21571496501970      1.60528010089664
  H   0.66646543363001      0.33876469575435     -1.65834580699896
  H   0.69109500180258     -1.36212541710747     -1.16135663756520
  C   -0.03292677468455      1.30671047148810      0.79943575092935
  N   0.10565624564304      2.40826767810209      1.18392982960746
  C   -1.62850700270531     -0.19496389391683     -0.30597444836588
  H   -2.37289562645554     -0.01571528499912      0.46987293952550
  H   -1.75894588581838     -1.20798420819821     -0.69115534397516
  H   -1.78030712486027      0.52409860321899     -1.11474938575022
  C   2.20215308830842     -0.17092876241461     -0.33262593086882
  N   3.30612094625447     -0.03205030446555      0.03975087121597
