13
Coordinates from ORCA-job run
  C   -0.24280574823008     -0.24697488668163      0.41408342357999
  C   1.00541671461400     -0.68848682501375     -0.37157147696970
  Cl  -0.74870476366000     -1.65446486101341      1.40917867332539
  H   0.74138402219861     -1.55740686239004     -0.98114675991232
  H   1.79115688910958     -0.99330612195864      0.32423109103567
  C   0.10257858848492      0.84884698230044      1.32089175606626
  N   0.38321675146549      1.74797814711125      2.02328444656861
  C   -1.38985499097259      0.15489171886490     -0.50348740843457
  H   -2.27019989525548      0.41184532821561      0.08594397416453
  H   -1.63771569563408     -0.67879968163448     -1.16347404567055
  H   -1.09987676661742      1.01922417576854     -1.10496370508859
  C   1.49697150769733      0.38366503933252     -1.23368842690788
  N   1.86843338679973      1.25298784709869     -1.92928154175684
