13
Coordinates from ORCA-job run
  C   -0.25768952924216     -0.25548889005965      0.40311801183154
  C   0.99663320764672     -0.70161922663580     -0.37019922347381
  Cl  -0.80755697653222     -1.67616832024311      1.35512269844574
  H   1.76397676762580     -1.03658850438478      0.33219103421421
  H   0.72827150080634     -1.55133521590365     -1.00449555641693
  C   0.09124428477706      0.81213315059307      1.34173698996486
  N   0.37561601320301      1.69046153075143      2.06852463850681
  C   -1.37998893305554      0.18947005943197     -0.52502057887149
  H   -1.62819336648222     -0.62212855052509     -1.21190822494799
  H   -2.26746478765111      0.44495400394673      0.05425950442430
  H   -1.06471961430074      1.06457400522431     -1.09748361918222
  C   1.52272854331710      0.38104600801605     -1.19811739738032
  N   1.92914288988798      1.26268994978853     -1.85772827711472
