17

C	-0.443091	-0.011063	-1.477643
C	0.0	0.0	0.0
Br	-2.395776	0.14619	-1.638922
H	1.093804	0.0	0.0
C	0.1385	1.062717	-2.270916
N	0.598753	1.943316	-2.901225
N	-0.024382	-1.34536	-2.15267
O	-0.739537	-1.806044	-3.031696
O	1.040561	-1.796836	-1.759449
N	-0.445548	-1.15742	0.741594
H	0.132354	-1.957827	0.523297
H	-1.421575	-1.368952	0.571628
C	-0.436443	1.284474	0.690526
H	-1.516932	1.30943	0.855453
H	-0.138025	2.170387	0.124575
H	0.068286	1.309949	1.657139
Br	3.539738	0.0	0.0
