17

C	-0.472558	-0.021863	-1.487208
C	0.0	0.0	0.0
Br	0.413359	-1.427466	-2.481539
H	1.094378	0.0	0.0
C	-1.911882	-0.246605	-1.568325
N	-3.064118	-0.48231	-1.538108
N	-0.162229	1.32316	-2.146337
O	0.988093	1.531517	-2.482963
O	-1.101403	2.115772	-2.196467
N	-0.416744	-1.185669	0.715414
H	0.148736	-1.977334	0.442591
H	-1.397395	-1.40058	0.58656
C	-0.511613	1.249877	0.701887
H	-0.096324	2.160495	0.268124
H	-1.605054	1.314425	0.68796
H	-0.176681	1.185052	1.737304
Br	3.533331	0.0	0.0
