17

C	-0.362273	-0.003451	-1.486618
C	0.0	0.0	0.0
Br	-2.311085	0.112677	-1.799614
H	1.093471	0.0	0.0
C	0.264345	1.099813	-2.208921
N	0.792832	2.00668	-2.741951
N	0.13618	-1.328132	-2.143491
O	1.290954	-1.607265	-1.86566
O	-0.57025	-1.908308	-2.958888
N	-0.447518	-1.161588	0.723065
H	-1.453174	-1.290942	0.670978
H	0.029814	-2.00068	0.41634
C	-0.490791	1.261895	0.676714
H	-1.581156	1.256685	0.797596
H	-0.206982	2.163183	0.127905
H	-0.032288	1.305097	1.666987
Br	2.918776	0.0	0.0
