17

C	-0.438553	-0.014664	-1.47611
C	0.0	0.0	0.0
Br	0.241591	1.51022	-2.461201
H	1.100753	0.0	0.0
C	0.025675	-1.226255	-2.141726
N	0.418894	-2.202074	-2.665792
N	-1.970405	0.005149	-1.561771
O	-2.522775	1.049217	-1.237899
O	-2.52757	-1.033984	-1.892017
N	-0.532128	-1.241623	0.573121
H	0.18012	-1.961954	0.497454
H	-0.703405	-1.099674	1.561266
C	-0.477201	1.19942	0.799129
H	-1.54546	1.135788	1.020177
H	-0.280739	2.138457	0.284222
H	0.088009	1.207743	1.734738
Br	3.50226	0.0	0.0
