19

C	0.0	0.0	0.0
C	-0.665435	0.207174	-1.35291
Cl	1.786347	0.0	0.0
H	-1.74743	0.32512	-1.039059
N	-0.389775	1.18079	0.907136
O	-0.305756	1.006247	2.116418
O	-0.700101	2.232695	0.364291
C	-0.508779	-1.267884	0.647648
H	-0.128338	-2.133276	0.103186
H	-1.605604	-1.17936	0.599891
H	-0.149584	-1.310586	1.674352
C	-0.519979	-0.987032	-2.282585
H	-1.144269	-1.797943	-1.909373
H	0.517316	-1.325271	-2.373517
H	-0.893715	-0.711275	-3.269804
N	-0.259211	1.421293	-2.124594
O	-1.119613	1.859892	-2.888914
O	0.877545	1.879267	-2.034755
F	-2.904992	0.0	0.0
