19

C	0.0	0.0	0.0
C	-0.344017	0.205533	-1.530294
Cl	1.798434	0.0	0.0
H	0.541669	0.655624	-1.974898
N	-0.359599	1.287028	0.741856
O	-0.080255	2.336493	0.169
O	-0.809	1.192345	1.873866
C	-0.625105	-1.184092	0.662175
H	-1.721018	-1.002486	0.547703
H	-0.295569	-2.096584	0.163391
H	-0.331867	-1.223176	1.710726
C	-1.582782	0.96118	-1.965588
H	-1.666164	0.857651	-3.052253
H	-2.458585	0.569502	-1.415884
H	-1.444514	2.016069	-1.729559
N	-0.36051	-1.179236	-2.133913
O	0.734538	-1.701175	-2.364275
O	-1.443531	-1.709329	-2.360405
F	-3.040553	0.0	0.0
