11
Coordinates from ORCA-job run
  C   0.47159589764912      0.62807343676314      0.50890258149372
  C   -0.37953323555943      0.17078425274737     -0.45495046634572
  H   0.71751243322257      1.67310641113895      0.62102896279239
  N   1.13259551428843     -0.23724703801239      1.43557879799653
  O   1.90123048709289      0.29177976589491      2.23786843348928
  O   0.90417472014318     -1.45530683150722      1.37985991305578
  N   -0.82672053554310     -1.09449951104452     -0.65785012499378
  H   -0.34567138872065     -1.82563824744149     -0.15588450628325
  H   -1.24032899080064     -1.31218996556326     -1.54848045156836
  C   -0.93861270590203      1.17589122489637     -1.32170123304881
  N   -1.39624219587034      1.98424650212814     -2.04337190658778
