11
Coordinates from ORCA-job run
  C   0.43807838265289      0.60420180229053      0.56583269794486
  C   -0.35468691462196      0.19247745148112     -0.46604993730782
  H   0.67202258662133      1.64305326363700      0.74258411261456
  N   1.05105398048964     -0.30421934899897      1.48421737658660
  O   1.76844980871233      0.18659824580265      2.35529955035721
  O   0.83506313495647     -1.51888206562356      1.35414306460258
  N   -0.78173686583439     -1.06268732970739     -0.75640558186636
  H   -0.32521831078815     -1.81621395500521     -0.26476635530463
  H   -1.14475337798817     -1.23704117855347     -1.67807435530687
  C   -0.86882088907180      1.23684898298076     -1.31410962290553
  N   -1.28845153512820      2.07586413169653     -2.02367094941462
