11
Coordinates from ORCA-job run
  C   0.49193819379549     -0.42548242054161      0.62109113104947
  C   -0.21642932190251     -0.09673857571419     -0.48626114890889
  H   0.85707762874468     -1.42622598533725      0.81055266910766
  N   0.85003680017829      0.51148816744909      1.65609950359751
  O   1.47632697862603      0.03141780969892      2.60337150652406
  O   0.52173370823301      1.69068482379723      1.54252209489438
  N   -0.45647752554783     -0.98482417848285     -1.51180076358022
  H   -1.26428539888457     -0.79357828438659     -2.08266187466060
  H   -0.31438082219869     -1.96144529020066     -1.30606152292294
  C   -0.72322315186944      1.22483447397766     -0.74718770128556
  N   -1.22231708917445      2.22986945974025     -1.09966389381487
