11
Coordinates from ORCA-job run
  C   0.47970688664298     -0.40187524656735      0.64515674468988
  C   -0.26838809212647     -0.13062357128443     -0.45171754005237
  H   0.89621341061528     -1.38029373199039      0.84547146842834
  N   0.79137551151069      0.56491606801952      1.66744360755117
  O   0.34555219446136      1.70679623498715      1.57416601817635
  O   1.50780803489874      0.14910866727599      2.58072882083049
  N   -0.64206254168573     -1.09716604017696     -1.35965906854801
  H   -0.85318793124865     -0.77161661992796     -2.28947109535622
  H   -0.12957672141795     -1.96500921964166     -1.33049375065545
  C   -0.81635648363147      1.16765927251277     -0.74341063885792
  N   -1.31208426801878      2.15810418679332     -1.13921456620626
