11
Coordinates from ORCA-job run
  C   -0.12577342534923      0.35810317693465      0.85336252000948
  C   -0.45249311239310     -0.00648897198843     -0.42030598592910
  H   -0.80437045918385      0.89773222164548      1.49704882938357
  N   1.14831765524056      0.08161536187394      1.43956669124405
  O   1.98909861923265     -0.53870628654151      0.77013971152377
  O   1.33095037005115      0.48348745969130      2.58834908285141
  N   0.26958834160848     -0.74642955913998     -1.29945145089565
  H   0.00951223153967     -0.70973487130994     -2.27049042234689
  H   1.23851583949594     -0.89871179674359     -1.06279043052685
  C   -1.76900420113973      0.37780451742158     -0.85969615655739
  N   -2.83534185910256      0.70132874815651     -1.23573238875642
