11
Coordinates from ORCA-job run
  C   0.05592999981708      0.60626205581735      0.71197669430478
  C   -0.42990053976422      0.05542683098605     -0.43842230510598
  H   -0.40993913920281      1.45041763859951      1.19737718419634
  N   1.20974666961492      0.09968003062790      1.38777854046177
  O   1.80773788358530     -0.87136191123828      0.89933258900932
  O   1.53660297062827      0.66665962477008      2.42991269398901
  N   0.09495593849381     -0.95089686706417     -1.18141905940669
  H   -0.49683209947247     -1.40122748405716     -1.85836330786820
  H   0.84102394550394     -1.48122297392926     -0.75744128294772
  C   -1.61703587384916      0.67115501080203     -0.97335521176687
  N   -2.59328975535468      1.15410804468596     -1.41737653486576
