11
Coordinates from ORCA-job run
  C   -0.06229718502422      0.42059795299915      0.83341405567846
  C   -0.40737208002197      0.11329848760718     -0.45106968925726
  H   -0.64538763635599      1.08117749251028      1.45676695850904
  N   1.09814125983534     -0.11479481713805      1.47395101795265
  O   1.29465479785081      0.22601120648042      2.64015785332383
  O   1.83090286531250     -0.88469694912013      0.83425772920268
  N   0.27693059454051     -0.63626237167497     -1.35067225066749
  H   -0.20306216647541     -0.95827164283312     -2.17360871844696
  H   1.05739863620152     -1.16700273280145     -0.99660702655003
  C   -1.62354785009442      0.71572779260732     -0.93311903431268
  N   -2.61636123576865      1.20321558136337     -1.33347089543225
