11
Coordinates from ORCA-job run
  C   0.14714660658366      0.63216366245888      0.67450180680684
  C   -0.40892362469400      0.09894211923925     -0.45257975400656
  H   -0.09330577016115      1.62010274247839      1.03666721906287
  N   1.10476322887505     -0.06807599320550      1.47163246599552
  O   1.54216433896619      0.52149258904250      2.45939019403368
  O   1.44137307293527     -1.21266273362914      1.13110780084981
  N   -0.24690401802805     -1.14618120088879     -0.96432931992703
  H   -0.54091905659593     -1.32309744774397     -1.90965240769057
  H   0.48643882892489     -1.70891653625113     -0.56147683357142
  C   -1.33725636519872      0.94876901635321     -1.15296824464877
  N   -2.09457724160721      1.63846378214628     -1.73129292690437
