11
Coordinates from ORCA-job run
  C   0.80123646702602      0.15310773004640      0.37801789631012
  C   -0.20504824727113     -0.13835516648179     -0.48144868369498
  H   1.84601460360030      0.03799064983716      0.12091022051702
  N   0.60023927069423      0.65029610052059      1.71566785387369
  O   1.63101938684018      0.82872632153765      2.36826507585973
  O   -0.54306075094575      0.85657937828172      2.11765838694121
  N   0.01402945337122     -0.51587579390044     -1.78837524326078
  H   0.94604370431491     -0.82497794835579     -2.01746764494882
  H   -0.71958790148647     -1.05350766769633     -2.22188675363327
  C   -1.59973736822598     -0.00937212928655     -0.15122829196057
  N   -2.77014861791755      0.01638852549738     -0.03811281600336
