11
Coordinates from ORCA-job run
  C   0.73916811691098     -0.15925950521137      0.48572011565164
  C   -0.24342270526966     -0.18501126325022     -0.44707513542929
  H   1.64208925153494     -0.75017992823387      0.40629896869286
  N   0.69059447476280      0.63756341676600      1.68563664494015
  O   1.68734327561590      0.55876324310353      2.40719829103675
  O   -0.30150246256545      1.32708502324636      1.91287338995333
  N   -0.22265391723423     -1.03410065407874     -1.53197676720813
  H   -0.75831681775090     -0.74075045163229     -2.33327511902859
  H   0.66528053083074     -1.45521080957198     -1.75734710095550
  C   -1.44274066880072      0.60616825960131     -0.36527785155281
  N   -2.45683907803440      1.19393266926125     -0.46277543610041
