11
Coordinates from ORCA-job run
  C   0.01503349485926      0.44671111157003      0.82282773135158
  C   -0.45157512705888      0.09189028569338     -0.40964968208953
  H   -0.45309461724806      1.20978705681677      1.42591206875108
  N   1.18029560426410     -0.13775056042181      1.40986121395839
  O   1.51725937701262      0.28561938825548      2.51511138736255
  O   1.78173450216324     -1.02411643293826      0.78402014022365
  N   -0.00368671493470     -0.88917657393779     -1.23348729644870
  H   0.88930163638651     -1.29652540544839     -1.00022883753822
  H   -0.28513037401159     -0.86161049200462     -2.19869881285861
  C   -1.62154974127628      0.79908122616878     -0.86231393726248
  N   -2.56958804015621      1.37509039624643     -1.25335397544970
