11
Coordinates from ORCA-job run
  C   -0.07886517944876      0.22157647773597      0.90643371558802
  C   -0.46661991450937      0.08181135262384     -0.39462475952498
  H   -0.75251842591114      0.54940324905251      1.68351138035369
  N   1.24251828716883     -0.08244096807548      1.35985158903427
  O   2.08254467290733     -0.46708315176561      0.53194277706209
  O   1.46290100865430      0.05750988251077      2.56246357167471
  N   0.28925306831223     -0.25119063212289     -1.47148034738909
  H   -0.18350642728701     -0.55508657710219     -2.30558007685843
  H   1.21042892027772     -0.61362785204598     -1.27687980252592
  C   -1.84146657275792      0.40575362016092     -0.67521312661113
  N   -2.96466943740622      0.65437459902814     -0.92042492080321
