11
Coordinates from ORCA-job run
  C   0.68873896831563     -0.22658713523172      0.53213499702832
  C   -0.18822344370347     -0.11225080925238     -0.49464995467609
  H   1.49674569453603     -0.94627960301000      0.53833604124831
  N   0.65407551530612      0.59424832815929      1.71608545003240
  O   1.51121890233506      0.32984010004480      2.56206247200481
  O   -0.19707203743771      1.47578838350220      1.81469447022520
  N   -0.07312612656236     -0.83730536056289     -1.66082665606399
  H   0.52545002436080     -1.64802832110231     -1.62987052189351
  H   -0.92377919193740     -0.96971089017901     -2.18397826015462
  C   -1.27708892524032      0.82862897664312     -0.51391289931803
  N   -2.21793937997238      1.51465633098890     -0.68007513843279
