11
Coordinates from ORCA-job run
  C   0.65713704690791     -0.29905256110232      0.53577739775078
  C   -0.29287981940590     -0.17155790386698     -0.42192132451944
  H   1.33827763983709     -1.13860885057627      0.58073269942095
  N   0.86629178487363      0.65503199402845      1.59555941103865
  O   0.12577894688394      1.63244696000804      1.68267991681862
  O   1.80782046137194      0.40149927468849      2.35017951089849
  N   -0.54092802352229     -1.14577429748852     -1.36442258039248
  H   -0.96576884919228     -0.83125242199832     -2.22220569641829
  H   0.17588880867434     -1.84386166692939     -1.48890124111341
  C   -1.19258031119723      0.94831679132236     -0.50962140918906
  N   -1.97903768523115      1.79281268191445     -0.73685668429482
