11
Coordinates from ORCA-job run
  C   0.49600831524247     -0.40199226137094      0.63306386854528
  C   -0.21582161907458     -0.11513164895820     -0.48386915550589
  H   1.06544880196347     -1.31480369751589      0.75026625416761
  N   0.57772425408359      0.46466137810042      1.78142512091676
  O   1.30751812487760      0.06236250813360      2.69013308125628
  O   -0.05799757110763      1.51671220388654      1.79022728146180
  N   -0.35772402705414     -1.00164595467042     -1.52878009555742
  H   -0.57100119391734     -0.59760553153464     -2.42659310751331
  H   0.29642299217035     -1.76792254354780     -1.56186946690161
  C   -0.95695658638229      1.10565041272548     -0.66539490783253
  N   -1.58462149080149      2.04971513475185     -0.97860887303697
