11
Coordinates from ORCA-job run
  C   -0.14417275803946      0.31608556528810      0.86983177013835
  C   -0.43254382495186      0.04755626603240     -0.43678439106135
  H   -0.81520242251404      0.86293722910415      1.51470922442601
  N   1.08391827469099     -0.07399750106239      1.48983714560137
  O   1.91384083723992     -0.70822723972361      0.82061906413820
  O   1.24072049562395      0.25382499556723      2.66553720866191
  N   0.28378026866403     -0.68333914482918     -1.32849155941267
  H   1.22958450407037     -0.91235547168805     -1.06194237759027
  H   0.07022853202311     -0.57678797731485     -2.30561470751646
  C   -1.70168956829299      0.53660536738047     -0.91037879888581
  N   -2.72946433851404      0.93769791124573     -1.31832257849927
