11
Coordinates from ORCA-job run
  C   -0.08890267796000      0.37441412049339      0.85349875969103
  C   -0.39523656935567      0.13235911572376     -0.45436420242171
  H   -0.70978041200150      0.98156552518396      1.49473025890098
  N   1.06323716858937     -0.17668285225416      1.49592132799007
  O   1.21710410518815      0.09237180306349      2.68685431621520
  O   1.83162780431023     -0.88945373368099      0.83194165975547
  N   0.32730425122842     -0.54722957630070     -1.38025073656938
  H   -0.13958223774566     -0.84783382875213     -2.21876130478744
  H   1.10219321386522     -1.09191314992164     -1.03310192670815
  C   -1.60727708720027      0.74375693023780     -0.93498491341758
  N   -2.59968755891828      1.22864564620721     -1.33948323864848
