11
Coordinates from ORCA-job run
  C   -0.13182815906878      0.33564020419446      0.86421493125041
  C   -0.37850640746980      0.14530670810791     -0.46460727314944
  H   -0.79169591367769      0.90127763857217      1.50446379057836
  N   1.00337536404535     -0.22225126552418      1.53075525355289
  O   1.81427844798813     -0.88858826193600      0.86939966460449
  O   1.10091305804557     -0.00461171977876      2.73800757362262
  N   0.39651079978094     -0.47818509593129     -1.38791808649866
  H   1.16622215924606     -1.02414159138133     -1.03104608481640
  H   -0.03025242302376     -0.75285344475522     -2.25620854726705
  C   -1.58210822759556      0.75342806552660     -0.97028333233999
  N   -2.56690869827046      1.23397876290564     -1.39777788953722
