11
Coordinates from ORCA-job run
  C   0.64104146032037     -0.30176937186095      0.54361122815098
  C   -0.23991684836317     -0.13950469983670     -0.47650580496022
  H   1.33904827925597     -1.12781523680528      0.59411968856865
  N   0.67369833959402      0.53381925539869      1.71899113149003
  O   0.05392996968812      1.59436168462895      1.72460436431180
  O   1.35951710610218      0.09886650303250      2.64563328441712
  N   -0.34707627342180     -1.02820533406300     -1.52334567879885
  H   -0.68748814334729     -0.64880405373289     -2.39130026692763
  H   0.40790326182907     -1.69087163409409     -1.62927761228258
  C   -1.19570115051743      0.93479379964286     -0.52936572091876
  N   -2.00395600114005      1.77512908768991     -0.67616461305053
