11
Coordinates from ORCA-job run
  C   0.41614770390007     -0.42518795917985      0.67464335539576
  C   -0.23645066928535     -0.11711865222504     -0.47228395066540
  H   0.79194340377470     -1.41680256098583      0.88984207976237
  N   0.67696728720434      0.51893737107346      1.73194673143757
  O   0.26891493418916      1.67356654262317      1.62445680302732
  O   1.31356696912131      0.07138167689782      2.68832193311108
  N   -0.56323263325992     -1.05900710552419     -1.42303635497581
  H   -0.69805118857244     -0.71401702526009     -2.35990498758806
  H   -0.07926538687425     -1.94180057678764     -1.37012829715894
  C   -0.72609987881085      1.19992936556866     -0.78358435519290
  N   -1.16444054138676      2.20911892379953     -1.19927295715298
