11
Coordinates from ORCA-job run
  C   0.41732941137401     -0.44438359207601      0.66032847552522
  C   -0.16781297165924     -0.08608130723587     -0.50813093161366
  H   0.73300344629962     -1.45690445179309      0.87487377408427
  N   0.69441497098438      0.47230194645555      1.73763792987257
  O   1.19431682064670     -0.03743233007557      2.74290781353015
  O   0.42397143829237      1.66371366838966      1.60132505348717
  N   -0.32772045575651     -0.95781823775888     -1.56352132962600
  H   -1.07347036712523     -0.73976426652993     -2.20510154667478
  H   -0.23727370932373     -1.93966773124689     -1.35251749512941
  C   -0.61099737923993      1.25144486008891     -0.80110889466614
  N   -1.04676120449243      2.27359144178211     -1.18669284878937
