11
Coordinates from ORCA-job run
  C   0.57408100596705     -0.33821682722526      0.60419174125867
  C   -0.19888907191111     -0.12377055694518     -0.48788580431220
  H   1.12458983012977     -1.25587093321049      0.76439800460709
  N   0.75747664448601      0.62271360146516      1.66242514257481
  O   0.21210812099477      1.72142920013641      1.58110072954841
  O   1.46892564953405      0.24460002422116      2.59574265530356
  N   -0.27830935894937     -1.01524173934490     -1.53557548536719
  H   0.04885922480141     -1.95181366526281     -1.35589260054457
  H   -1.11739712375858     -0.96863510836954     -2.09147433260806
  C   -0.95295475141116      1.08218521412398     -0.70854495133576
  N   -1.63949016988285      1.98162079041147     -1.02948509912477
