11
Coordinates from ORCA-job run
  C   -0.04989755317161      0.39516722429440      0.84686329344833
  C   -0.41815546023727      0.11898467721972     -0.43785710665820
  H   -0.64546668405824      1.00965734857475      1.50472324326445
  N   1.13874892357517     -0.12943237738123      1.44426101939929
  O   1.88444231345754     -0.84430765314484      0.75758952457530
  O   1.34542792538674      0.16525860659604      2.62093199875197
  N   0.26787387591947     -0.57066150234728     -1.38512978091015
  H   1.06100535598472     -1.10371869075465     -1.06092208897436
  H   -0.24199831507217     -0.90619231315780     -2.18478444013126
  C   -1.66136098466937      0.70317349168285     -0.87046755211617
  N   -2.68061939711497      1.16307118841805     -1.23520811064918
