11
Coordinates from ORCA-job run
  C   0.38274200507719     -0.44873601061912      0.67845315986892
  C   -0.16940419509300     -0.09040303893082     -0.50596081782178
  H   0.64307634480932     -1.47055283901251      0.92123599837098
  N   0.70142434426095      0.48100266508978      1.73272762744892
  O   1.18004331370351     -0.02474738377758      2.75018750773039
  O   0.48347518853655      1.67939314341027      1.56669074755270
  N   -0.36509362908023     -0.98078917152309     -1.53942088608022
  H   -1.08894318484865     -0.74044099256019     -2.19776822116492
  H   -0.32898351743632     -1.95999603343524     -1.30185746639800
  C   -0.53364166071808      1.26086551327749     -0.84128983888837
  N   -0.90469500921125      2.29340414808099     -1.26499781061862
