11
Coordinates from ORCA-job run
  C   -0.14720466153380      0.29189761648905      0.87666969587088
  C   -0.35933766672920      0.18266997853400     -0.46705601806042
  H   -0.80655585674247      0.84540330829249      1.52792523746951
  N   0.94768266380421     -0.34046912180956      1.54420269332529
  O   1.75500355115365     -0.99978961340268      0.87157677819322
  O   1.01671426909713     -0.18909038534157      2.76353583693769
  N   0.42318796711063     -0.41571558227713     -1.40096792556410
  H   0.01209558926661     -0.63156789643123     -2.29316488378747
  H   1.16153636972757     -1.00824161241064     -1.05230495376703
  C   -1.52483547162077      0.86157260501101     -0.97208827837064
  N   -2.47828675353356      1.40333070334626     -1.39732818224694
