11
Coordinates from ORCA-job run
  C   0.59909388553509     -0.35777666848682      0.56635127544287
  C   -0.17712113903479     -0.07251848949000     -0.50690646088126
  H   1.24513832039715     -1.22471182634027      0.61098397752553
  N   0.66076008691906      0.45486283596032      1.75530461121284
  O   -0.00593034194454      1.48592787439425      1.81701660186991
  O   1.40116203542251      0.02762707539549      2.64377946014554
  N   -0.14256265755231     -0.80830653145569     -1.67178352956847
  H   0.27915335381196     -1.72241057635672     -1.61283424842341
  H   -0.97485457370682     -0.77316394990349     -2.23891271068376
  C   -1.05367885759674      1.06660694183973     -0.57771080761725
  N   -1.83016011225055      1.92486331444320     -0.78728816902254
