11
Coordinates from ORCA-job run
  C   0.05218222697902      0.54318116126333      0.76087034223595
  C   -0.41972843917330      0.09987572929586     -0.44045945696467
  H   -0.31758771986371      1.43854428176956      1.23733090618264
  N   1.10134998242071     -0.11632295301223      1.47400252842275
  O   1.46325823909362      0.39852113524323      2.53154894924266
  O   1.58629256792088     -1.15303984382773      0.99544401149547
  N   -0.09402321825164     -1.03425021365615     -1.11088823856986
  H   0.72172594159238     -1.52909597627037     -0.78274172176213
  H   -0.33604668650687     -1.09316987361255     -2.08536229187047
  C   -1.45867066605537      0.89949551635775     -1.03686092147723
  N   -2.30075222815571      1.54626103644930     -1.54288410693510
