11
Coordinates from ORCA-job run
  C   -0.18341707656468      0.10252308940943      0.91230452271929
  C   -0.44379151292533      0.04408614471509     -0.42620007319010
  H   -0.93569536237333      0.36164578933196      1.64178566532700
  N   1.11280095461648     -0.14461127819540      1.46270689099616
  O   2.03790326831121     -0.44949253395788      0.69439734644266
  O   1.22827672786657     -0.03346522492512      2.68282007006608
  N   0.38382978837126     -0.33438266242692     -1.43297294943623
  H   0.12863659451269     -0.08672040141438     -2.37376899948368
  H   1.36248747383722     -0.41520126020092     -1.20112819886175
  C   -1.79711150089457      0.34897329037628     -0.81320309985540
  N   -2.89491935475753      0.60664504728786     -1.14774117472404
