11
Coordinates from ORCA-job run
  C   0.50154837002129     -0.36892585884110      0.64818941575755
  C   -0.26269763313051     -0.15041796808099     -0.44925932598816
  H   0.97616823818471     -1.31916388430689      0.85476824138161
  N   0.76395454438377      0.62465529671827      1.65855721582239
  O   0.24842276198201      1.73638055633950      1.56036011700446
  O   1.51360992443998      0.26158327207531      2.56769578063418
  N   -0.58326296244376     -1.14469100288518     -1.34780743003663
  H   -0.81516190331316     -0.83959970379717     -2.27965198211786
  H   -0.02187008910597     -1.98151517454858     -1.31301049284995
  C   -0.88521704883126      1.11175439356405     -0.75024068576784
  N   -1.43749420218709      2.06994007376278     -1.15060085383976
