11
Coordinates from ORCA-job run
  C   0.80550359372769      0.05873123098641      0.39455899335037
  C   -0.22076733171179     -0.21085703526208     -0.44792626600982
  H   1.84014415283794     -0.13476212329546      0.14364839492734
  N   0.64163406000110      0.64091199407074      1.70270781914851
  O   1.69108916715426      0.91622643924290      2.28845741273340
  O   -0.49108221822186      0.82287436149812      2.14464346796223
  N   -0.05005297074769     -0.85673246776946     -1.65333963602519
  H   0.89095238489161     -0.89450508467760     -2.01355934243367
  H   -0.75297097118439     -0.67772746113291     -2.35273810789858
  C   -1.59821313628222      0.07364195706716     -0.14339142809579
  N   -2.75623673046465      0.26319818927218     -0.06306130765878
