11
Coordinates from ORCA-job run
  C   0.52427644671436     -0.38132812769899      0.62294360901650
  C   -0.23359379542206     -0.12889078885465     -0.47152202805883
  H   1.09381778156484     -1.29302412458522      0.74679186492777
  N   0.64986068661634      0.51900811991224      1.74163451160928
  O   0.01448257176114      1.57139352389105      1.74352076336274
  O   1.41549320786876      0.14403248627003      2.63236769005284
  N   -0.42393086162544     -1.04846783754653     -1.47968792211359
  H   0.22084735045436     -1.82295916306133     -1.51134151802361
  H   -0.66162356729765     -0.66915257313977     -2.38228633942013
  C   -0.97895647895891      1.08752493579636     -0.66214361874284
  N   -1.61967334167574      2.02086354901681     -0.98127701261012
