11
Coordinates from ORCA-job run
  C   -0.08051425894200      0.41338014317532      0.83509775396280
  C   -0.46315261836322     -0.00107252440097     -0.40769882103691
  H   -0.70587623127715      1.03173052994597      1.46106794133828
  N   1.19006131530945      0.08924755536586      1.40501482068433
  O   1.97104679384507     -0.62082139296848      0.75325289697500
  O   1.43137758422798      0.54796878992283      2.52109241149915
  N   0.18833733290699     -0.83186377280828     -1.26065166596369
  H   1.15152062324953     -1.03448856554755     -1.03880145331673
  H   -0.09728431861440     -0.83680259758369     -2.22507094266480
  C   -1.76517960520634      0.43941091845294     -0.83784758285915
  N   -2.82233661713591      0.80131091644606     -1.20545535861827
