11
Coordinates from ORCA-job run
  C   0.09795467611193      0.58533323626487      0.72649595018182
  C   -0.40103783517288      0.11188129262709     -0.45469547382533
  H   -0.30893583784537      1.45347991244470      1.22061342216344
  N   1.15782653019124     -0.06402863117812      1.43869016969521
  O   1.67621671858025     -1.07763791101763      0.94665319044673
  O   1.48805380428122      0.43563153061500      2.51249013094353
  N   0.04034266079906     -0.92905611158167     -1.20404080991613
  H   0.71342958207344     -1.54168281067271     -0.76615320536884
  H   -0.55429601384546     -1.27851510880765     -1.93339461292750
  C   -1.50399327851012      0.85632569312774     -1.00747124264509
  N   -2.40456100666328      1.44826890817838     -1.47918751874787
