11
Coordinates from ORCA-job run
  C   0.19603414915196     -0.37870958419797      0.79189341416115
  C   -0.14402709466855     -0.14927912144765     -0.49962933362883
  H   0.15742746512399     -1.36055203342812      1.24496930631890
  N   0.65782334598144      0.64386339188691      1.69672934634135
  O   0.77690739500406      1.79855499823849      1.29220078151116
  O   0.89846920917058      0.25906891514076      2.84305979672400
  N   -0.47888153940848     -1.15892194598942     -1.37564934735640
  H   -1.05892881888818     -0.89233297656103     -2.15523937868281
  H   -0.71764333576452     -2.04902951592939     -0.96671621749904
  C   -0.11546908272089      1.15143755220777     -1.11440223836194
  N   -0.16971169298141      2.13490032007965     -1.75721612952754
