11
Coordinates from ORCA-job run
  C   -0.13834416468999      0.30718109605255      0.87365665486716
  C   -0.39384806159326      0.13277135926290     -0.45555598554558
  H   -0.74979438397669      0.92975734965117      1.50900152716123
  N   0.97437256614032     -0.29924747962991      1.53647458701948
  O   1.72991817875393     -1.03354304486952      0.88159253170426
  O   1.11443566261059     -0.04425557595088      2.73216723941572
  N   0.24673228921850     -0.67125709844562     -1.34152145159327
  H   1.12794667846494     -1.05879976396850     -1.03938841671380
  H   0.10388882357398     -0.50256869105756     -2.32276338665486
  C   -1.54274038854829      0.83377880312474     -0.96821452297274
  N   -2.47256719995402      1.40618304583063     -1.40544877668758
