11
Coordinates from ORCA-job run
  C   0.51514527097760     -0.38815554561361      0.62626352289197
  C   -0.25743294871367     -0.13260174505012     -0.45729321033092
  H   1.01886362012804     -1.33342740910534      0.77975622582171
  N   0.74376648129105      0.55336500571759      1.69323831185531
  O   0.19634819172654      1.65344994789402      1.65494850538811
  O   1.49958010614858      0.16114566441347      2.58492915079207
  N   -0.54538451753381     -1.08407996871695     -1.41161600468214
  H   0.04403815837776     -1.90197094137822     -1.42427708916395
  H   -0.78764300323915     -0.73366394687073     -2.32460795120646
  C   -0.92107736905476      1.12358413238574     -0.68673617175673
  N   -1.50520399010818      2.08335480632415     -1.03460528960895
