11
Coordinates from ORCA-job run
  C   -0.10729938187263      0.32424949100766      0.87211600260437
  C   -0.42172686274199      0.10344203532292     -0.43760175840413
  H   -0.71161663611943      0.93955060877656      1.52119143460763
  N   1.06134087319160     -0.21859898516805      1.49180815654015
  O   1.25161811762986      0.07490412328664      2.67153303982306
  O   1.81295894453591     -0.93870067890764      0.81708496984979
  N   0.20585715267499     -0.69819015913410     -1.33491211764623
  H   0.00614202776446     -0.56311509990716     -2.31135378204001
  H   1.11507913069203     -1.04410282091821     -1.06791112764608
  C   -1.62062885636092      0.74707228637793     -0.90987776657250
  N   -2.59172450939388      1.27348919926343     -1.31407705111604
