11
Coordinates from ORCA-job run
  C   0.68186477395944     -0.18013170225529      0.55808451345665
  C   -0.14995801290395     -0.10611936304437     -0.50902722970071
  H   1.56030645723629     -0.81165107231100      0.57663917530019
  N   0.50294996171749      0.57443325252180      1.77293296427300
  O   -0.44070598669041      1.35712643790751      1.86392008649899
  O   1.34100886031660      0.35920025135132      2.65130414785721
  N   0.09811180132320     -0.75759509526332     -1.69773788589830
  H   -0.70811661832132     -0.95421138327583     -2.26912319232554
  H   0.77722293435748     -1.50244908500885     -1.66939085655918
  C   -1.33100535983311      0.71535213042412     -0.54553269800736
  N   -2.33167881116171      1.30504562895392     -0.73106902489494
