15

C	0.0	0.0	0.0
C	-0.455298	-0.522288	-1.381317
Br	1.971353	0.0	0.0
H	0.38716	-0.506057	-2.080317
H	-0.844657	-1.529908	-1.284404
C	-0.349604	1.446397	0.381229
H	-1.437232	1.482571	0.395868
H	0.073753	2.136729	-0.34604
H	0.079981	1.649696	1.365215
C	-0.419704	-0.929135	1.047665
N	-0.562799	-1.700855	1.923444
N	-1.515524	0.233143	-2.112532
O	-2.328661	-0.443031	-2.730791
O	-1.375165	1.44626	-2.235184
F	-2.463336	0.0	0.0
