15

C	0.0	0.0	0.0
C	-0.582584	0.033957	-1.407454
Br	1.963857	0.0	0.0
H	-1.690802	0.123505	-1.164065
H	-0.324121	-0.868326	-1.957989
C	-0.466536	1.139309	0.904505
H	-0.09823	0.970998	1.918813
H	-1.56149	1.08181	0.850778
H	-0.088873	2.089716	0.531426
C	-0.391321	-1.288534	0.580682
N	-0.588717	-2.343534	1.059104
N	-0.074345	1.161971	-2.212493
O	-0.321729	2.308848	-1.83663
O	0.555272	0.893399	-3.240403
F	-2.802731	0.0	0.0
