15

C	0.0	0.0	0.0
C	-0.635973	-0.024464	-1.36617
Br	1.962525	0.0	0.0
H	-1.76107	-0.088462	-1.050607
H	-0.423786	0.890401	-1.917526
C	-0.461345	1.283497	0.698104
H	-1.555926	1.216389	0.689527
H	-0.102054	2.151897	0.139448
H	-0.064954	1.323827	1.713862
C	-0.380481	-1.148062	0.832683
N	-0.570846	-2.014811	1.602585
N	-0.242613	-1.143323	-2.228063
O	0.054607	-2.21822	-1.706312
O	-0.283838	-0.949391	-3.446458
F	-2.840036	0.0	0.0
