15

C	0.0	0.0	0.0
C	-0.313417	-0.212867	-1.497937
Br	1.967584	0.0	0.0
H	-0.23685	-1.274204	-1.73621
H	0.425231	0.348998	-2.075327
C	-0.371444	1.373816	0.562931
H	-1.460466	1.391249	0.553618
H	0.055457	2.155285	-0.068177
H	0.033718	1.466123	1.572759
C	-0.470312	-1.105353	0.825729
N	-0.604892	-2.045159	1.519196
N	-1.608901	0.260384	-2.077246
O	-2.293881	-0.5749	-2.659396
O	-1.763472	1.476459	-2.146989
F	-2.468244	0.0	0.0
