15

C	0.0	0.0	0.0
C	-0.630203	0.00625	-1.369657
Br	1.962693	0.0	0.0
H	-0.406478	0.930189	-1.901809
H	-1.755466	-0.063039	-1.059724
C	-0.457003	1.274249	0.720393
H	-0.063227	1.293007	1.737918
H	-1.551366	1.211237	0.707171
H	-0.090651	2.150127	0.178308
C	-0.394654	-1.160484	0.807022
N	-0.596146	-2.041172	1.558818
N	-0.22996	-1.096715	-2.250502
O	0.045688	-2.187044	-1.748478
O	-0.240752	-0.872486	-3.464986
F	-2.830364	0.0	0.0
