15

C	-0.482792	-0.012022	-1.432904
C	0.0	0.0	0.0
F	-0.118717	-1.164675	-2.051966
H	1.094183	0.0	0.0
H	-0.327177	-0.963195	0.40665
C	-1.945745	0.136049	-1.556389
N	-3.116754	0.196731	-1.623529
N	0.128046	1.144444	-2.237569
O	0.980162	0.872528	-3.064225
O	-0.313612	2.254011	-1.955012
C	-0.51948	1.148835	0.854917
H	-0.131174	2.104706	0.506203
H	-0.163053	1.000665	1.875526
H	-1.611851	1.200188	0.87297
Br	3.551357	0.0	0.0
