15

C	-0.471128	0.143476	-1.424956
C	0.0	0.0	0.0
F	-0.060515	-0.888198	-2.203052
H	1.091435	0.0	0.0
H	-0.339022	0.8819	0.548558
C	-1.938911	0.255157	-1.541153
N	-3.110465	0.308772	-1.605102
N	0.094023	1.436168	-2.033259
O	0.815494	1.33565	-3.009407
O	-0.263333	2.461816	-1.466103
C	-0.517911	-1.286648	0.630919
H	-1.610041	-1.312475	0.699261
H	-0.17704	-2.153561	0.063212
H	-0.106268	-1.373824	1.637862
Br	3.551218	0.0	0.0
