15

C	-0.471793	-0.019199	-1.431606
C	0.0	0.0	0.0
F	-0.054364	-1.128535	-2.090121
H	1.095209	0.0	0.0
H	-0.339632	0.937536	0.446054
C	-1.940126	0.069692	-1.559057
N	-3.111927	0.109207	-1.630474
N	0.084703	1.201265	-2.180272
O	0.81138	0.997507	-3.136135
O	-0.282374	2.281498	-1.732579
C	-0.515137	-1.208287	0.772548
H	-1.606857	-1.226443	0.847926
H	-0.176398	-2.133037	0.30344
H	-0.098966	-1.182999	1.780908
Br	3.550689	0.0	0.0
