14

C	0.0	0.0	0.0
C	-0.283097	0.506222	-1.463445
F	1.413171	0.0	0.0
H	-0.276249	1.602577	-1.388376
H	0.600444	0.210359	-2.041157
N	-0.569548	0.714325	1.083282
H	-0.434076	1.704141	0.890354
H	-1.594649	0.515688	0.920288
C	-0.378185	-1.430874	0.091538
N	-0.573768	-2.58742	0.108639
N	-1.473456	0.078371	-2.163098
H	-2.238378	0.122682	-1.459954
H	-1.365686	-0.908768	-2.371788
F	-2.869073	0.0	0.0
