14

C	0.0	0.0	0.0
C	-0.443693	0.002712	-1.461636
F	1.381327	0.0	0.0
H	0.033375	-0.851976	-1.953205
H	-1.530095	-0.111946	-1.421458
N	-0.569149	1.114858	0.672808
H	-1.606677	0.883479	0.53909
H	-0.342816	1.055846	1.660417
C	-0.349332	-1.315586	0.62307
N	-0.490093	-2.358356	1.143428
N	0.03174	1.248264	-2.094011
H	-0.205386	1.98936	-1.440178
H	-0.538493	1.398137	-2.921157
F	-2.798017	0.0	0.0
