14

C	0.0	0.0	0.0
C	-0.411223	-0.118834	-1.466676
F	1.422187	0.0	0.0
H	-0.028508	-1.065287	-1.877082
H	-1.505571	-0.130229	-1.404274
N	-0.516321	1.137121	0.672624
H	-1.545434	0.901764	0.624758
H	-0.373782	1.904032	0.017895
C	-0.379141	-1.236283	0.724874
N	-0.524823	-2.262044	1.275344
N	0.070881	1.067984	-2.177895
H	-0.497415	1.222788	-2.999067
H	1.028333	0.929387	-2.473229
F	-2.760809	0.0	0.0
