14

C	0.0	0.0	0.0
C	-0.473081	-0.158364	-1.456106
F	1.380389	0.0	0.0
H	-1.443616	-0.650714	-1.399263
H	0.272821	-0.758333	-1.987532
N	-0.509071	1.136068	0.69282
H	-1.540914	0.919957	0.62494
H	-0.315991	1.922107	0.075997
C	-0.38068	-1.24053	0.731107
N	-0.535298	-2.277814	1.255359
N	-0.58202	1.173344	-2.074792
H	-1.518779	1.489392	-1.839636
H	-0.547331	1.059495	-3.082783
F	-2.736573	0.0	0.0
