16

C	0.0	0.0	0.0
C	-0.442941	-0.178921	-1.450102
F	1.429457	0.0	0.0
H	0.33494	-0.774753	-1.943403
H	-0.422387	0.823487	-1.918802
N	-0.459346	1.242378	0.508833
H	-0.234514	1.343391	1.489646
H	-0.065713	2.011759	-0.016909
C	-0.433666	-1.129152	0.906338
H	0.032419	-0.99147	1.888415
H	-1.520157	-1.123369	0.998585
H	-0.112701	-2.085274	0.492166
N	-1.714091	-0.876594	-1.524842
H	-2.062978	-0.835448	-2.475817
H	-2.456999	-0.438785	-0.935689
H	-3.954837	0.0	0.0
