16

C	0.0	0.0	0.0
C	-0.549752	0.018702	-1.410755
F	1.427208	0.0	0.0
H	-1.62159	-0.197052	-1.289981
H	-0.066219	-0.77972	-1.984666
N	-0.410276	1.190859	0.660179
H	-0.089083	1.973141	0.102139
H	0.00471	1.228117	1.582227
C	-0.475747	-1.220827	0.748313
H	-0.147006	-2.133065	0.241165
H	-0.064024	-1.223377	1.762686
H	-1.570718	-1.173748	0.784604
N	-0.3528	1.332034	-2.045998
H	-1.266384	1.748135	-2.182973
H	0.080564	1.225627	-2.952786
H	-3.694899	0.0	0.0
