16

C	0.0	0.0	0.0
C	-0.46415	-0.063991	-1.448021
F	1.400044	0.0	0.0
H	-0.132787	0.862009	-1.945416
H	-1.559952	-0.039934	-1.37543
N	-0.482192	1.188591	0.65766
H	-0.342099	1.978288	0.031004
H	-1.503948	1.047383	0.706434
C	-0.449737	-1.216023	0.776452
H	-1.544316	-1.239368	0.763794
H	-0.086725	-1.129701	1.803329
H	-0.0444	-2.111391	0.304876
N	-0.01634	-1.272824	-2.148314
H	-0.775203	-1.626562	-2.717634
H	0.763184	-1.062615	-2.759458
H	-3.299366	0.0	0.0
