16

C	0.0	0.0	0.0
C	-0.437337	-0.018961	-1.451661
F	1.416357	0.0	0.0
H	-1.528792	-0.132911	-1.434158
H	-0.191225	0.969792	-1.868073
N	-0.493032	1.2133	0.592009
H	-0.364527	1.136415	1.597894
H	-1.515144	1.146172	0.448115
C	-0.412375	-1.259307	0.73467
H	-0.017496	-1.226406	1.757192
H	-1.507261	-1.272407	0.754367
H	-0.027044	-2.143684	0.224447
N	0.190728	-1.133752	-2.170087
H	-0.191194	-1.169901	-3.107808
H	1.181015	-0.934557	-2.250735
H	-3.245681	0.0	0.0
