15
Coordinates from ORCA-job run
  C   -1.05648823881645     -0.16552001720480      0.13718443996630
  C   0.45636966195923     -0.04204152603858      0.32435721040010
  Br  -1.48005045127035     -1.17637778238732     -1.47617851488691
  H   0.60027233337243      0.49348627383650      1.27067501899841
  H   -1.46085607726024     -0.77773743073885      0.94786480922152
  N   -1.62420089092235      1.16016666030603      0.01678651474309
  H   -2.60904576269113      1.09491330694947     -0.21062510935990
  H   -1.54140153009271      1.63425556144713      0.91135230097544
  C   1.20209826946164      0.63607357523910     -0.79872454446370
  H   1.15420368327911      0.04665721025867     -1.71181288868739
  H   2.25058716639528      0.77017339480738     -0.53049847277615
  H   0.74483931561363      1.60900415297232     -0.97824622958025
  N   0.99497415866108     -1.41802826603337      0.61871102507895
  O   0.54856826584979     -1.96124541570979      1.62802340543820
  O   1.81913009646102     -1.90377969770385     -0.14886896506771
