15
Coordinates from ORCA-job run
  C   -0.93278831130254      0.42296986913736     -0.22606942429173
  C   0.33139087681284     -0.18310901160178      0.37019810330150
  Br  -1.69242005345864      1.68069800859307      1.16218552994254
  H   0.07662387044974     -0.79819566116806      1.23579754733148
  H   -0.68236339931466      1.08196887843956     -1.05632080163282
  N   -1.82349819139297     -0.57920692389049     -0.64870398568052
  H   -2.61608637375062     -0.21165275308007     -1.15608120925410
  H   -2.14168954636987     -1.16956498171698      0.10904788701470
  C   1.44083524576671      0.80167748657154      0.68424018402973
  H   1.65425149542243      1.42178770621905     -0.18716974491224
  H   1.15459763235741      1.43995912860041      1.51841507006999
  H   2.34921173367963      0.26062926883145      0.95735910126790
  N   0.83484342875759     -1.15376710292863     -0.66392905701788
  O   1.20929235432055     -0.67100256634552     -1.72884533551852
  O   0.83579923802241     -2.34519134566089     -0.37012386465004
