15
Coordinates from ORCA-job run
  C   -1.10585925960682      0.07310642300719      0.47933923045627
  C   0.41377103652240     -0.14388980333917      0.54730286191233
  Br  -1.95811056801193     -1.46617919414935      1.39464200603494
  H   0.71039114733543     -0.27494182621433      1.58819431680353
  H   -1.32713493078987      0.91829923589159      1.13438730137115
  N   -1.70119032624040      0.29689577367053     -0.78641636585144
  H   -1.29582437796564     -0.27181912868524     -1.51525342371196
  H   -1.73880392442269      1.27236508484837     -1.03895466970332
  C   1.17586523565644      0.99218569899696     -0.11316729788759
  H   2.25206608985513      0.82996941453934     -0.02425314108152
  H   0.91795917765099      1.06568482641378     -1.16923264260728
  H   0.93180124503040      1.93593021525310      0.38046524930966
  N   0.80424435201677     -1.42594962084005     -0.11888242527188
  O   0.48948217126254     -1.55571410025234     -1.30338708581541
  O   1.43034293170724     -2.24594299914038      0.54421608604252
