15
Coordinates from ORCA-job run
  C   -1.00911342580111      0.46507165054579     -0.13602924127118
  C   0.30222921155192     -0.11110264765905      0.41304320914582
  Br  -1.73497135658447      1.65159467071377      1.26230664562831
  H   0.10199847931315     -0.67948442614633      1.32344411153913
  H   -0.79156676621156      1.11400813115678     -0.98491474808130
  N   -1.99323684041163     -0.48901697040623     -0.52004980128519
  H   -2.06616352223495     -1.26561561195079      0.12339084182704
  H   -1.85122489582040     -0.81620665904300     -1.46531491736848
  C   1.42649485348651      0.88924065958037      0.60044716810625
  H   2.34919209680624      0.37298254160176      0.87423362534818
  H   1.59713506957291      1.44335252091979     -0.32375033982275
  H   1.17323192061577      1.58852877237957      1.39585969962563
  N   0.73395545587123     -1.13472894261981     -0.59615990990508
  O   0.77831631611735     -2.30973142278215     -0.23915574303044
  O   0.98272340372902     -0.71989226629046     -1.72735060045594
