18
Coordinates from ORCA-job run
  C   0.77546664329457     -0.15428286435927      0.35627484935271
  C   -0.72355316314090     -0.39672621202898      0.21379559362772
  F   1.41093575458208     -1.37282697472789      0.46894374215181
  H   -0.98930845174225     -1.00432974545927      1.08281312307247
  N   0.97543512446922      0.51634323117288      1.71472648000667
  O   1.54021660035858      1.60334294203872      1.75316131246848
  O   0.55047674606098     -0.10918686132069      2.68073375908365
  C   1.42750495728692      0.65282001657055     -0.72798852242452
  H   2.47766767496053      0.81530718483377     -0.48899088376455
  H   0.94159419725907      1.62187873651793     -0.82682980913014
  H   1.36193737521957      0.10128296474631     -1.66662462578312
  C   -1.05264693366661     -1.16908918932405     -1.05784444126334
  H   -2.10714820259199     -1.45374942305903     -1.04708047655780
  H   -0.45234400348897     -2.07689604092274     -1.14235924132725
  H   -0.88097025503703     -0.55562491956924     -1.94684145895418
  N   -1.38717868706304      0.89756589128659      0.33151489315292
  H   -2.23023972331847      0.82444770955396      0.88303061392075
  H   -1.63884565344226      1.25972355405044     -0.57943490763228
