18
Coordinates from ORCA-job run
  C   0.51904044442568      0.25760836241604      0.39571301701829
  C   -0.59241207620600     -0.40743161593802     -0.43442050835609
  F   -0.00138492970711      0.63780370030914      1.60431319256670
  H   -0.14158188116665     -0.69413636862541     -1.38877832448713
  N   0.93156664208873      1.52504268329025     -0.32654278755857
  O   1.44976630656821      1.34137712706645     -1.42614136263700
  O   0.70368205515994      2.60493163187855      0.20088952322291
  C   1.75711714443302     -0.57002018328450      0.63384140278319
  H   1.49268791666279     -1.44606557289820      1.22617838038189
  H   2.48596376514142      0.01527543607612      1.19791952200282
  H   2.19918706892525     -0.88026132711066     -0.31194624064557
  C   -1.73684024633781      0.56564275422122     -0.68983905104564
  H   -2.14478761008322      0.93762148478072      0.25275070308781
  H   -1.42257292488114      1.42235120935851     -1.28831140104364
  H   -2.52520120071946      0.03703599632976     -1.22519892790772
  N   -1.11630475672729     -1.60805754997667      0.19601655195897
  H   -0.42005714593681     -2.33995034706445      0.25048408023191
  H   -1.43986857163955     -1.39876742082884      1.13307223042688
