18
Coordinates from ORCA-job run
  C   0.79930762085695     -0.08389084040209      0.44706767540281
  C   -0.60720318515468     -0.63573254278036      0.18124988638616
  F   1.36219100611232     -0.82542306964736      1.44497704987803
  H   -0.45571397605839     -1.71928476375766      0.24554751582625
  N   0.67623828455164      1.33054975860399      0.98988533473216
  O   0.01621760058248      2.09916339326561      0.29144679602346
  O   1.24814287008475      1.60972556758717      2.03048180205975
  C   1.75097915629239     -0.04111108216926     -0.72305578396303
  H   1.39849488124622      0.64601290120990     -1.49055122488627
  H   2.73081793710981      0.28301134727322     -0.36688420555178
  H   1.84921087625212     -1.04255768670065     -1.14652092682011
  C   -1.18590689044148     -0.30850958577714     -1.19278306464997
  H   -1.31894654175980      0.76734879757639     -1.31035152387742
  H   -0.55736817446975     -0.67508700483901     -2.00753837045316
  H   -2.16216099295562     -0.79093483130595     -1.28368365485801
  N   -1.45501543215446     -0.25116621889774      1.30563350140738
  H   -1.94925234423539      0.60681488257286      1.08974354065100
  H   -2.14103269585911     -0.96892902181192      1.49433565269276
