17

C	-0.499685	0.081889	-1.461399
C	0.0	0.0	0.0
Cl	0.256008	-1.222294	-2.399978
H	1.092716	0.0	0.0
C	-2.004738	0.011583	-1.617719
H	-2.270299	0.023935	-2.672736
H	-2.47566	0.871876	-1.134417
H	-2.370393	-0.907285	-1.158961
N	-0.032733	1.392514	-2.102195
O	-0.512528	1.653083	-3.203614
O	0.770778	2.087981	-1.49289
C	-0.471367	-1.282671	0.540705
N	-0.915689	-2.282092	0.968648
N	-0.437534	1.064473	0.883332
H	-1.41057	1.309266	0.758345
H	0.154516	1.869155	0.733798
Cl	3.30091	0.0	0.0
