17

C	-0.414126	0.001977	-1.475234
C	0.0	0.0	0.0
Cl	0.331829	1.402512	-2.258019
H	1.101365	0.0	0.0
C	0.010291	-1.262012	-2.190054
H	-0.236695	-1.194707	-3.25155
H	-0.491132	-2.124174	-1.751368
H	1.091489	-1.362195	-2.071329
N	-1.938151	0.151994	-1.549908
O	-2.555933	-0.838033	-1.16451
O	-2.439656	1.193514	-1.94685
C	-0.44628	-1.214569	0.68175
N	-0.742879	-2.180467	1.280579
N	-0.564292	1.174823	0.681592
H	-0.393667	1.057345	1.674918
H	0.002644	1.967898	0.396888
Cl	3.28544	0.0	0.0
