17

C	-0.567278	-0.063347	-1.424306
C	0.0	0.0	0.0
Cl	0.170146	-1.428206	-2.28967
H	1.099667	0.0	0.0
C	-2.0745	-0.15781	-1.476504
H	-2.492259	0.699961	-0.947357
H	-2.392457	-1.079071	-0.98751
H	-2.413213	-0.160277	-2.510361
N	-0.143302	1.199694	-2.174567
O	-0.702473	1.402898	-3.249937
O	0.718059	1.908967	-1.67256
C	-0.442171	-1.197336	0.71587
N	-0.837306	-2.120475	1.326271
N	-0.522256	1.207166	0.665023
H	-0.81584	0.981326	1.606296
H	0.256237	1.853584	0.731591
Cl	3.299075	0.0	0.0
