17

C	-0.351377	-0.279715	-1.466006
C	0.0	0.0	0.0
Cl	0.067478	1.126892	-2.459147
H	1.106623	0.0	0.0
C	0.375663	-1.503239	-1.977224
H	1.441845	-1.354373	-1.78839
H	0.189788	-1.636122	-3.041064
H	0.036422	-2.391554	-1.438856
N	-1.858421	-0.471794	-1.64543
O	-2.59571	-0.086491	-0.739678
O	-2.237666	-0.984617	-2.693162
C	-0.433498	-1.149111	0.812866
N	-0.810759	-2.031498	1.49211
N	-0.450705	1.276441	0.506671
H	-1.367242	1.203604	0.924237
H	0.221932	1.606964	1.186003
Cl	3.28715	0.0	0.0
