17

C	-0.329323	-0.178689	-1.504604
C	0.0	0.0	0.0
Cl	-0.003721	1.345114	-2.364111
H	1.106663	0.0	0.0
C	0.481419	-1.296028	-2.112329
H	0.209128	-2.244346	-1.644677
H	0.304232	-1.366486	-3.184298
H	1.533953	-1.08495	-1.905632
N	-1.824984	-0.431727	-1.699246
O	-2.167989	-1.269763	-2.526387
O	-2.595784	0.237648	-1.014076
C	-0.48209	-1.203609	0.688866
N	-0.89933	-2.172219	1.206713
N	-0.435136	1.188954	0.692288
H	-1.349555	1.480499	0.378549
H	0.243928	1.920276	0.532576
Cl	3.292208	0.0	0.0
