17

C	-0.575814	0.06121	-1.420754
C	0.0	0.0	0.0
Cl	0.157135	-1.218206	-2.412469
H	1.096653	0.0	0.0
C	-2.082964	-0.03183	-1.471007
H	-2.429684	0.055064	-2.498366
H	-2.499619	0.776914	-0.86811
H	-2.395811	-0.992841	-1.061602
N	-0.155636	1.388379	-2.054026
O	0.743692	2.022873	-1.519939
O	-0.751638	1.711516	-3.079323
C	-0.441393	-1.251497	0.616587
N	-0.840491	-2.220346	1.149093
N	-0.50968	1.153453	0.760915
H	-0.883668	0.85264	1.651829
H	0.285112	1.756866	0.937261
Cl	3.295747	0.0	0.0
