17

C	-0.335382	0.021058	-1.516864
C	0.0	0.0	0.0
Cl	0.018431	1.63362	-2.173768
H	1.10682	0.0	0.0
C	0.454431	-1.020878	-2.267573
H	0.205256	-2.016585	-1.899641
H	1.512087	-0.823761	-2.076865
H	0.24079	-0.973884	-3.33533
N	-1.837478	-0.190847	-1.698676
O	-2.209277	-1.168926	-2.340752
O	-2.584537	0.614784	-1.145433
C	-0.489152	-1.277538	0.532608
N	-0.915626	-2.297145	0.932157
N	-0.444887	1.093867	0.830613
H	-1.352347	1.428553	0.534055
H	0.234285	1.839434	0.759283
Cl	3.282582	0.0	0.0
