16

C	-0.432606	0.052448	-1.426336
C	0.005043	0.029207	0.023912
F	-1.824533	0.08881	-1.54123
H	1.097397	0.061269	-0.002437
C	0.113076	1.17405	-2.217746
N	0.533335	1.975577	-2.966316
C	0.00332	-1.194014	-2.092803
N	0.259874	-2.191225	-2.657732
C	-0.342373	-1.255	0.740122
H	0.283757	-2.053152	0.334892
H	-0.092028	-1.138932	1.792587
H	-1.399608	-1.517406	0.644971
N	-0.478662	1.210587	0.709599
O	-0.528009	1.184705	1.949468
O	-0.704656	2.232314	0.036745
H	2.446884	-0.230287	-0.164816
