16

C	-0.442033	-0.026196	-1.443551
C	5.9e-05	0.028957	0.010372
F	0.122423	0.980338	-2.197663
H	1.089927	0.089373	-0.008775
C	-0.01869	-1.309876	-2.050536
N	0.23839	-2.320742	-2.590964
C	-1.91433	0.043986	-1.579372
N	-3.084477	0.010946	-1.682033
C	-0.290929	-1.236916	0.783774
H	-0.040146	-1.053742	1.827096
H	-1.335849	-1.556235	0.710568
H	0.377784	-2.018805	0.416676
N	-0.540507	1.211426	0.659158
O	-1.010184	2.122974	-0.046138
O	-0.394683	1.299517	1.88783
H	2.445686	-0.271204	-0.050275
