16

C	-0.39565	-0.060319	-1.47567
C	0.005015	0.019373	-0.005123
F	-0.125242	-1.349632	-1.923589
H	1.103968	0.020559	0.013685
C	-1.84739	0.150011	-1.66183
N	-3.012331	0.208639	-1.804398
C	0.355888	0.858225	-2.355592
N	0.912057	1.512411	-3.157124
C	-0.401948	-1.176871	0.81657
H	-0.022718	-1.025786	1.826693
H	0.079204	-2.063629	0.402846
H	-1.486941	-1.317255	0.853599
N	-0.43955	1.264667	0.536977
O	-0.672937	2.195089	-0.270959
O	-0.433658	1.410084	1.772202
H	2.407644	-0.197333	0.040249
