16

C	-0.444984	0.033621	-1.452955
C	-0.001769	0.012434	0.007227
F	-0.14739	-1.206885	-2.008381
H	1.097357	0.047127	-0.004143
C	-1.908036	0.2073	-1.580012
N	-3.078716	0.23768	-1.678111
C	0.249352	1.043127	-2.278636
N	0.770572	1.770788	-3.039211
C	-0.350028	-1.255179	0.744319
H	-1.429254	-1.429876	0.800513
H	0.055047	-1.171397	1.75222
H	0.141977	-2.092904	0.249159
N	-0.465909	1.197963	0.657179
O	-0.423029	1.248709	1.899195
O	-0.752793	2.179524	-0.068863
H	2.406608	-0.130975	-0.034952
