15

C	0.0	0.0	0.0
C	-0.431476	0.040337	-1.464937
F	1.410484	0.0	0.0
H	-0.213555	-0.91024	-1.947964
H	-1.503743	0.267077	-1.482694
N	-0.476429	1.110041	0.721336
H	-0.259551	1.980802	0.263322
H	-0.129232	1.07003	1.667938
N	-0.446035	-1.177494	0.671403
H	-1.465945	-1.115523	0.717759
H	-0.185445	-2.004115	0.148351
N	0.311243	1.06126	-2.246651
O	0.246624	2.231284	-1.866623
O	0.953343	0.683128	-3.226438
Br	-3.833241	0.0	0.0
