15

C	0.0	0.0	0.0
C	-0.437392	0.010746	-1.46387
F	1.410302	0.0	0.0
H	-1.510012	-0.220985	-1.490966
H	-0.228009	0.978689	-1.915276
N	-0.446595	1.146398	0.72323
H	-0.214653	2.000779	0.231474
H	-1.464032	1.068801	0.79656
N	-0.478676	-1.139523	0.673633
H	-0.125456	-1.147579	1.620294
H	-0.258913	-1.989344	0.175227
N	0.318985	-0.975081	-2.28201
O	0.262343	-2.161705	-1.955718
O	0.966265	-0.551013	-3.240223
Br	-3.849643	0.0	0.0
