15

C	0.0	0.0	0.0
C	-0.412036	-0.147269	-1.466621
F	1.414823	0.0	0.0
H	-1.499016	-0.229791	-1.524046
H	-0.03431	0.704988	-2.029539
N	-0.412418	1.252588	0.566207
H	-0.137617	2.022554	-0.03341
H	-1.43117	1.229407	0.622302
N	-0.442528	-1.116313	0.758332
H	-0.350501	-0.866911	1.736462
H	-1.432622	-1.260519	0.570084
N	0.189146	-1.351889	-2.096539
O	-0.40459	-2.419752	-1.970968
O	1.251044	-1.201728	-2.70338
Br	-3.719024	0.0	0.0
