15

C	0.0	0.0	0.0
C	-0.420741	0.107162	-1.481786
F	1.378772	0.0	0.0
H	-1.501565	-0.006	-1.57539
H	0.141984	-0.623959	-2.060798
N	-0.40972	1.079114	0.851459
H	-0.042096	1.962544	0.512015
H	-1.430001	1.119631	0.840509
N	-0.459466	-1.275132	0.46159
H	-0.233804	-1.3252	1.450862
H	-1.479885	-1.266559	0.390842
N	-0.070946	1.447113	-2.019379
O	-0.955359	2.305816	-2.041609
O	1.094338	1.634502	-2.379675
Br	-3.777696	0.0	0.0
