19

C	-0.46362	-0.042617	-1.470601
C	0.0	0.0	0.0
Br	0.117054	1.647836	-2.321655
H	1.096221	0.0	0.0
C	0.24641	-1.169243	-2.209073
H	0.048225	-1.103929	-3.281372
H	1.323181	-1.110317	-2.031786
H	-0.122592	-2.136848	-1.854795
C	-1.975497	-0.11099	-1.624609
H	-2.461605	0.715878	-1.101664
H	-2.348302	-1.055803	-1.216339
H	-2.251153	-0.062662	-2.680522
C	-0.408723	-1.248351	0.801037
H	0.010272	-1.161891	1.805567
H	-1.492645	-1.359988	0.886913
H	0.019615	-2.144072	0.349781
C	-0.516896	1.178785	0.690833
N	-0.988646	2.069604	1.295197
Br	3.521126	0.0	0.0
