14

C	-0.507427	-0.08028	-1.420849
C	0.0	0.0	0.0
F	0.111006	0.772002	-2.252856
H	1.088808	0.0	0.0
H	-0.364052	-0.841206	0.585383
N	-0.199459	-1.515897	-1.920777
O	-0.693121	-2.413651	-1.250691
O	0.468374	-1.61837	-2.933203
C	-1.967455	0.06108	-1.550511
N	-3.133019	0.118311	-1.68488
N	-0.470771	1.23529	0.670085
O	-0.407665	1.242936	1.894993
O	-0.85754	2.168997	-0.033532
Cl	3.196797	0.0	0.0
