14

C	-0.552432	-0.026839	-1.402394
C	0.0	0.0	0.0
F	-0.084675	1.079628	-2.052662
H	1.089765	0.0	0.0
H	-0.325129	0.926859	0.476775
N	-0.055598	-1.218799	-2.227433
O	-0.53088	-1.278099	-3.357934
O	0.782893	-1.951681	-1.730256
C	-2.021564	-0.012336	-1.482073
N	-3.191823	0.080793	-1.512184
N	-0.525493	-1.110868	0.823228
O	-0.258532	-1.079169	2.017386
O	-1.194783	-1.981626	0.262124
Cl	3.221986	0.0	0.0
