14

C	-0.484433	0.116821	-1.423473
C	0.0	0.0	0.0
F	0.133871	-0.717186	-2.274296
H	1.092468	0.0	0.0
H	-0.362726	0.823546	0.610015
N	-2.002567	-0.175526	-1.511897
O	-2.680223	0.365491	-0.6468
O	-2.390774	-0.867292	-2.435842
C	-0.347335	1.50433	-1.893221
N	-0.251662	2.609103	-2.279585
N	-0.468899	-1.251538	0.639854
O	-0.866419	-2.161687	-0.087957
O	-0.39787	-1.293299	1.86233
Cl	3.194733	0.0	0.0
