14

C	-0.5594	-0.089522	-1.397342
C	0.0	0.0	0.0
F	-0.087828	0.980305	-2.103298
H	1.090449	0.0	0.0
H	-0.324249	0.946532	0.437695
N	-0.07539	-1.323071	-2.165341
O	0.78575	-2.016688	-1.650898
O	-0.577809	-1.450015	-3.278925
C	-2.028562	-0.067752	-1.468864
N	-3.197389	0.045476	-1.506518
N	-0.522961	-1.075462	0.870691
O	-0.245602	-0.999879	2.061015
O	-1.202471	-1.963625	0.348968
Cl	3.222716	0.0	0.0
