17

C	0.0	0.0	0.0
C	-0.526734	0.176268	-1.423892
F	1.395584	0.0	0.0
H	-1.626352	0.199181	-1.278272
C	-0.354983	1.165117	0.866446
N	-0.552654	2.007088	1.661074
N	-0.53695	-1.221585	0.499008
H	-0.307785	-1.284736	1.486531
H	-1.572075	-1.012361	0.416757
C	-0.0652	-0.935948	-2.348022
H	1.022609	-0.923537	-2.456898
H	-0.362011	-1.889116	-1.91478
H	-0.527504	-0.815834	-3.327418
N	-0.131274	1.482782	-2.031736
O	0.626539	2.242321	-1.428803
O	-0.601734	1.719179	-3.146061
F	-2.772499	0.0	0.0
