17

C	0.0	0.0	0.0
C	-0.509589	0.067625	-1.452263
F	1.374132	0.0	0.0
H	-1.60385	-0.004441	-1.354466
C	-0.36983	1.260921	0.71389
N	-0.598123	2.265236	1.279398
N	-0.554553	-1.168805	0.584252
H	-1.592503	-0.946652	0.484709
H	-0.319637	-1.173109	1.573081
C	0.14857	-0.992628	-2.312143
H	-0.013896	-1.96313	-1.843031
H	-0.298353	-0.995749	-3.309021
H	1.221299	-0.809201	-2.398168
N	-0.222571	1.407275	-2.054124
O	-1.17856	2.051568	-2.48591
O	0.952015	1.777338	-2.118246
F	-2.7692	0.0	0.0
