17

C	0.0	0.0	0.0
C	-0.251838	0.01438	-1.554737
F	1.392882	0.0	0.0
H	0.607039	0.572852	-1.929191
C	-0.365182	1.341448	0.540502
N	-0.564081	2.421608	0.957945
N	-0.579743	-1.099693	0.648513
H	-1.622221	-0.883729	0.472191
H	-0.406405	-1.008558	1.645678
C	-1.520246	0.538954	-2.184569
H	-1.655348	1.580384	-1.886487
H	-1.402507	0.490487	-3.273988
H	-2.382443	-0.00402	-1.810675
N	0.018452	-1.384992	-2.038052
O	1.184461	-1.663169	-2.328162
O	-0.928548	-2.159073	-2.129954
F	-2.782712	0.0	0.0
