17

C	0.0	0.0	0.0
C	-0.293174	-0.067271	-1.545632
F	1.393686	0.0	0.0
H	0.652075	0.254576	-1.984489
C	-0.351623	1.360324	0.503272
N	-0.549877	2.43932	0.924087
N	-0.582175	-1.065081	0.706255
H	-0.391739	-0.938756	1.695499
H	-1.625154	-0.850432	0.529263
C	-1.439571	0.695108	-2.168869
H	-1.300918	1.759528	-1.959535
H	-1.409783	0.546567	-3.2533
H	-2.372982	0.372317	-1.707338
N	-0.346382	-1.525285	-1.913578
O	-1.440182	-2.044166	-2.106625
O	0.735663	-2.106653	-2.004961
F	-2.772737	0.0	0.0
