17

C	0.0	0.0	0.0
C	-0.511276	0.069842	-1.449582
F	1.374366	0.0	0.0
H	-1.605092	0.083223	-1.334168
C	-0.358313	1.260513	0.723713
N	-0.532112	2.222127	1.375178
N	-0.556925	-1.163042	0.59258
H	-1.594696	-0.945251	0.47941
H	-0.347405	-1.146929	1.583782
C	0.040297	-1.061609	-2.290728
H	1.129426	-1.016802	-2.333184
H	-0.362594	-0.9996	-3.305694
H	-0.267327	-2.005357	-1.842069
N	-0.119913	1.375434	-2.064407
O	1.073329	1.577401	-2.303388
O	-1.024266	2.172529	-2.320083
F	-2.776112	0.0	0.0
