17

C	0.0	0.0	0.0
C	-0.349144	0.375248	-1.483518
F	1.4147	0.0	0.0
H	0.567482	0.157259	-2.04386
C	-0.398752	1.080596	0.92814
N	-0.505101	1.969461	1.688009
N	-0.420042	-1.237751	0.550305
H	-0.19982	-1.962978	-0.121612
H	-1.454032	-1.092596	0.543287
C	-0.777925	1.811908	-1.662578
H	-0.89871	2.050358	-2.720175
H	-1.727252	1.926937	-1.140788
H	-0.022371	2.474756	-1.234122
N	-1.337566	-0.549883	-2.138328
O	-2.26067	-0.074751	-2.784321
O	-1.059105	-1.75113	-2.110166
F	-2.520714	0.0	0.0
