17

C	0.0	0.0	0.0
C	-0.35842	0.339282	-1.496541
F	1.413071	0.0	0.0
H	0.578289	0.187087	-2.041593
C	-0.382376	1.129324	0.882843
N	-0.492482	2.05588	1.596495
N	-0.432635	-1.203541	0.605768
H	-0.204241	-1.964123	-0.021026
H	-1.466631	-1.050504	0.579843
C	-0.898512	1.734922	-1.710946
H	-1.849582	1.781416	-1.183902
H	-0.195307	2.46607	-1.30909
H	-1.046402	1.930967	-2.774498
N	-1.260779	-0.670613	-2.144446
O	-2.179173	-0.285619	-2.854146
O	-0.920341	-1.851548	-2.037928
F	-2.532227	0.0	0.0
