12
Coordinates from ORCA-job run
  C   0.45387420832687     -0.14840027913531     -0.60929879393420
  C   -0.48106317633668     -0.00791614729600      0.56755930662736
  F   -0.05478624480606      0.49757125093857     -1.69109201456925
  H   -0.56173705543866      1.06358967189302      0.80400911688043
  H   0.65300956906980     -1.18887640235479     -0.86445830966165
  H   -0.02789920779069     -0.51499327734499      1.42042743604003
  N   1.78375845603024      0.47309781826158     -0.25942939819175
  O   2.42998425787883     -0.15391892225856      0.57532390385098
  O   2.09518399929249      1.52988970668388     -0.78962822957479
  N   -1.73276728562902     -0.66250060200152      0.21933453111742
  H   -2.26033512050847     -0.08247541759339     -0.41951793141520
  H   -2.29522240008865     -0.80606739979248      1.04677038283062
