12
Coordinates from ORCA-job run
  C   0.70694100581500     -0.58133240116591     -0.24691850918389
  C   -0.78593679037849     -0.44540620386187     -0.07646462467843
  F   0.99216522115543     -1.37648969506869     -1.31924934260769
  H   -1.17173585993568     -0.04898531476685     -1.01688381541340
  H   1.23068239915017     -0.95485669952931      0.63278699370764
  H   -1.20341262658950     -1.45072811765606      0.06272757990464
  N   1.29025299641059      0.77936578383134     -0.52187470185795
  O   0.86853568432028      1.35789995632568     -1.51733088231695
  O   2.13602213492504      1.19286414381715      0.26441329372866
  N   -1.04319055676306      0.49328770411368      1.00426608254860
  H   -1.12700630129603      0.02061070787150      1.89329693557083
  H   -1.89331730681375      1.01177013608933      0.84123099059793
