13

C	0.0	0.0	0.0
C	-0.491256	-0.1088	-1.436426
F	1.391731	0.0	0.0
H	-0.175128	-1.064491	-1.866098
H	-0.336075	-0.885214	0.545981
H	-1.589689	-0.07927	-1.414471
C	-0.453931	1.264936	0.688809
H	-1.544294	1.293789	0.724775
H	-0.050418	1.288937	1.704046
H	-0.072275	2.134122	0.146412
C	0.043727	0.966276	-2.269645
N	0.491421	1.822648	-2.935662
Br	-3.86342	0.0	0.0
