13

C	0.0	0.0	0.0
C	-0.334602	0.032194	-1.498245
F	1.391742	0.0	0.0
H	0.271711	-0.755099	-1.958311
H	-0.387806	-0.922567	0.435513
H	-1.37742	-0.145197	-1.744524
C	-0.300993	1.233437	0.847107
H	0.216853	1.078184	1.799898
H	0.19717	2.085395	0.376867
H	-1.333004	1.490039	1.045511
C	0.077804	1.290664	-2.134847
N	0.318581	2.304957	-2.67326
Br	-3.288166	0.0	0.0
