13

C	0.0	0.0	0.0
C	-0.254853	0.229136	-1.512167
F	1.394016	0.0	0.0
H	0.574264	-0.291472	-2.003685
H	-0.341851	-0.986875	0.315671
H	-0.105639	1.293317	-1.714723
C	-0.524309	1.086647	0.894555
H	-1.616094	1.081327	0.833888
H	-0.129473	2.052448	0.567149
H	-0.213686	0.913084	1.927776
C	-1.449005	-0.206182	-2.237507
N	-2.192893	-0.534627	-3.082609
Br	-3.88301	0.0	0.0
