15

C	-0.401013	0.023523	-1.456586
C	0.0	0.0	0.0
Cl	-2.269982	0.413602	-1.615379
H	1.09646	0.0	0.0
H	0.046375	0.882213	-1.955686
N	-0.07313	-1.160846	-2.133384
H	-0.27149	-1.095738	-3.121588
H	-0.544114	-1.963959	-1.74175
C	-0.44158	-1.25086	0.752601
H	0.102759	-2.113512	0.359446
H	-0.159789	-1.154573	1.80277
H	-1.521086	-1.420539	0.690487
C	-0.432584	1.208866	0.682967
N	-0.752579	2.175898	1.269983
H	2.73422	0.0	0.0
