15

C	-0.219232	-0.02942	-1.511604
C	0.0	0.0	0.0
Cl	-1.955515	-0.338584	-1.950813
H	1.098491	0.0	0.0
H	0.001241	0.961517	-1.912551
N	0.622895	-0.982933	-2.194332
H	1.568732	-0.790468	-1.839201
H	0.385185	-1.914837	-1.87087
C	-0.449139	-1.245836	0.751799
H	-0.089811	-1.190858	1.781987
H	0.006754	-2.130501	0.301204
H	-1.535258	-1.363572	0.754213
C	-0.527635	1.209889	0.600614
N	-0.956918	2.187389	1.094582
H	2.753259	0.0	0.0
