15

C	-0.219643	-0.03035	-1.511525
C	0.0	0.0	0.0
Cl	-1.957141	-0.342885	-1.950585
H	1.098502	0.0	0.0
H	-0.001922	0.961484	-1.912324
N	0.625068	-0.982277	-2.193886
H	0.389442	-1.91493	-1.870365
H	1.572344	-0.787222	-1.840433
C	-0.447964	-1.245039	0.754279
H	-0.084137	-1.190443	1.782847
H	0.003957	-2.130827	0.302059
H	-1.534121	-1.360573	0.761321
C	-0.527441	1.210235	0.600383
N	-0.956853	2.187979	1.093871
H	2.753466	0.0	0.0
