15

C	-0.247896	-0.087759	-1.495464
C	0.0	0.0	0.0
Cl	-2.006682	-0.449052	-1.908747
H	1.098959	0.0	0.0
H	-0.10395	0.899941	-1.946881
N	0.593819	-1.122207	-2.015315
H	0.673257	-1.038159	-3.02196
H	1.522103	-0.982948	-1.590763
C	-0.452878	-1.226391	0.783853
H	-0.010718	-1.196778	1.782687
H	-0.09152	-2.119141	0.272682
H	-1.540723	-1.279197	0.870647
C	-0.515386	1.233508	0.561983
N	-0.931992	2.225323	1.037175
H	2.743821	0.0	0.0
