15

C	-0.398769	0.026329	-1.456965
C	0.0	0.0	0.0
Cl	-2.261297	0.428317	-1.619531
H	1.096448	0.0	0.0
H	0.058381	0.878918	-1.956664
N	-0.079405	-1.163372	-2.129794
H	-0.276386	-1.095987	-3.118165
H	-0.565054	-1.958356	-1.738809
C	-0.443253	-1.252899	0.748329
H	-0.164641	-1.159514	1.799654
H	-1.522387	-1.423787	0.683581
H	0.102889	-2.113212	0.35318
C	-0.432121	1.207492	0.685139
N	-0.752642	2.173051	1.274224
H	2.735266	0.0	0.0
