17

C	-0.435289	-0.003325	-1.460301
C	0.0	0.0	0.0
Cl	-2.216855	0.20664	-1.67809
H	1.093421	0.0	0.0
C	0.183638	1.182407	-2.096791
N	0.735405	2.096328	-2.592179
N	-0.081747	-1.250677	-2.083629
H	0.900926	-1.455662	-1.927645
H	-0.279973	-1.233319	-3.077183
N	-0.381541	-1.326799	0.578975
O	-1.523141	-1.466813	1.022547
O	0.502142	-2.181614	0.62708
C	-0.553392	1.130862	0.828977
H	-0.112986	1.092152	1.82951
H	-0.277728	2.089258	0.380661
H	-1.637947	1.07211	0.919354
Br	2.756797	0.0	0.0
