17

C	-0.358479	0.003503	-1.506224
C	0.0	0.0	0.0
Cl	-2.118081	-0.404248	-1.694818
H	1.09415	0.0	0.0
C	-0.19679	1.37207	-2.019863
N	-0.07207	2.466147	-2.429057
N	0.409776	-0.878152	-2.346912
H	0.363805	-1.80268	-1.929339
H	1.385577	-0.584806	-2.261696
N	-0.426916	-1.3047	0.593688
O	-1.179592	-1.28875	1.56733
O	0.000797	-2.335413	0.070776
C	-0.537315	1.158099	0.806048
H	-1.627229	1.20442	0.783833
H	-0.212129	1.054735	1.840951
H	-0.118165	2.085469	0.414329
Br	3.399743	0.0	0.0
