17

C	-0.544866	0.011885	-1.447734
C	0.0	0.0	0.0
Cl	0.377837	1.279485	-2.317486
H	1.090264	0.0	0.0
C	-0.249804	-1.279801	-2.093132
N	-0.023607	-2.317316	-2.595627
N	-1.952688	0.298979	-1.645454
H	-2.130386	1.250968	-1.344863
H	-2.471833	-0.331393	-1.043203
N	-0.467442	-1.254754	0.67494
O	-1.665149	-1.547245	0.555841
O	0.341086	-1.890644	1.335223
C	-0.485234	1.172874	0.836363
H	0.000801	1.123869	1.813799
H	-0.178109	2.106505	0.362073
H	-1.570523	1.156588	0.970699
Br	3.47832	0.0	0.0
