17

C	-0.325564	-0.045614	-1.502558
C	0.0	0.0	0.0
Cl	-0.088954	-1.781372	-2.102724
H	1.092251	0.0	0.0
C	-1.71653	0.284316	-1.839478
N	-2.80757	0.590874	-2.150563
N	0.555444	0.875816	-2.11552
H	1.5188	0.703167	-1.814867
H	0.484751	0.853287	-3.124293
N	-0.557399	-1.175804	0.714119
O	-1.774211	-1.347595	0.608822
O	0.201607	-1.863627	1.387647
C	-0.521072	1.260854	0.664658
H	-0.104034	2.12612	0.150311
H	-1.611941	1.303006	0.639812
H	-0.178934	1.279421	1.70193
Br	3.47469	0.0	0.0
