18

C	0.0	0.0	0.0
C	-0.560746	-0.325676	-1.401381
Br	1.964811	0.0	0.0
H	-1.634178	-0.512256	-1.230057
C	-0.360453	1.38117	0.334091
N	-0.568293	2.505432	0.608435
C	-0.487169	-0.935527	1.101682
H	-0.121016	-1.946006	0.931543
H	-0.132177	-0.573751	2.068386
H	-1.581625	-0.922605	1.076549
N	0.029069	-1.621559	-1.877603
O	-0.330935	-2.648361	-1.303633
O	0.835616	-1.588667	-2.807485
C	-0.360722	0.760649	-2.433544
H	-0.938913	1.635183	-2.133318
H	0.691571	1.027204	-2.542573
H	-0.734183	0.421204	-3.400607
Br	-3.808204	0.0	0.0
