18

C	-0.586572	0.130717	-1.409443
C	0.0	0.0	0.0
Br	0.198184	1.575709	-2.474675
H	1.095427	0.0	0.0
N	-0.190965	-1.132341	-2.182196
O	-0.917052	-1.447333	-3.124736
O	0.83555	-1.706692	-1.852683
C	-2.093038	0.251304	-1.42432
H	-2.510188	-0.623457	-0.919537
H	-2.467308	0.28942	-2.445243
H	-2.390358	1.157457	-0.894359
N	-0.470892	-1.240826	0.557915
H	-1.129649	-1.034488	1.299396
H	0.343596	-1.696025	0.963611
N	-0.421256	1.162734	0.808715
O	-1.163576	0.978957	1.791964
O	0.035749	2.265097	0.49265
H	2.564507	0.0	0.0
