18

C	-0.483308	-0.009927	-1.437974
C	0.0	0.0	0.0
Br	0.418836	-1.497111	-2.324721
H	1.090282	0.0	0.0
N	-1.993772	-0.29927	-1.458259
O	-2.630238	0.274184	-0.574704
O	-2.483811	-0.971888	-2.35562
C	-0.273824	1.231033	-2.283926
H	-0.86359	2.057644	-1.889399
H	-0.565195	1.014697	-3.314057
H	0.78198	1.500012	-2.239681
N	-0.435786	-1.170851	0.693218
H	0.339032	-1.479453	1.272424
H	-1.214345	-0.938644	1.296621
N	-0.319132	1.25144	0.725019
O	-0.817149	1.168258	1.855203
O	0.058121	2.314422	0.219951
H	2.5294	0.0	0.0
