16

C	0.0	0.0	0.0
C	-0.681103	0.005652	-1.336489
Cl	1.753752	0.0	0.0
H	-1.753559	-0.132881	-1.118147
H	-0.327924	-0.876034	-1.876007
N	-0.46156	1.207206	0.830487
O	0.125686	2.260071	0.605633
O	-1.408455	1.028098	1.578789
N	-0.375726	-1.252128	0.816779
O	-0.033196	-1.250949	1.990529
O	-0.916509	-2.163425	0.208469
C	-0.464468	1.280143	-2.142157
H	-0.876684	1.13137	-3.142471
H	0.592351	1.540259	-2.235494
H	-0.991661	2.120061	-1.690799
Br	-4.099664	0.0	0.0
