16

C	0.0	0.0	0.0
C	-0.574652	-0.046939	-1.393093
Cl	1.774843	0.0	0.0
H	-0.375128	-1.047391	-1.783455
H	0.013777	0.663094	-1.981217
N	-0.485352	1.28171	0.680994
O	-1.392926	1.169808	1.490097
O	0.025114	2.313305	0.265738
N	-0.428904	-1.165874	0.889307
O	-1.103787	-2.041811	0.364379
O	-0.027678	-1.132849	2.044159
C	-2.059661	0.301874	-1.45997
H	-2.423427	0.113423	-2.471747
H	-2.228506	1.358601	-1.246154
H	-2.698989	-0.263926	-0.782691
Br	-5.349043	0.0	0.0
