16

C	0.0	0.0	0.0
C	-0.590925	0.102499	-1.384498
Cl	1.747838	0.0	0.0
H	-0.026459	-0.604072	-2.000429
H	-0.370369	1.109033	-1.748417
N	-0.42821	1.132933	0.935998
O	-1.048803	2.060673	0.434881
O	-0.064858	1.029185	2.09899
N	-0.495811	-1.306206	0.633189
O	-1.427909	-1.223744	1.417573
O	0.032674	-2.322776	0.203623
C	-2.084508	-0.204781	-1.443474
H	-2.288331	-1.255254	-1.229903
H	-2.701485	0.377224	-0.759571
H	-2.449589	-0.002724	-2.452709
Br	-5.387005	0.0	0.0
