15

C	-0.442571	0.018612	-1.468183
C	0.0	0.0	0.0
Cl	0.087829	-1.495473	-2.268124
H	1.093049	0.0	0.0
H	-0.318702	0.965121	0.421592
C	-1.903423	0.06924	-1.554229
N	-3.074833	0.154827	-1.581701
C	0.206796	1.190279	-2.196612
H	-0.042827	1.186471	-3.259012
H	1.288796	1.107022	-2.068316
H	-0.135102	2.129835	-1.754529
N	-0.527418	-1.141166	0.723973
H	0.202449	-1.541943	1.29746
H	-1.29986	-0.876226	1.317626
Br	3.663295	0.0	0.0
