15

C	-0.442078	0.027355	-1.460847
C	0.0	0.0	0.0
Cl	-0.046324	-1.558532	-2.232352
H	1.100182	0.0	0.0
H	-0.334993	0.947967	0.437323
C	-1.892673	0.202966	-1.572822
N	-3.043707	0.413437	-1.679184
C	0.31205	1.117611	-2.211646
H	0.054642	1.11043	-3.271948
H	0.054452	2.092336	-1.787029
H	1.38333	0.947158	-2.080488
N	-0.625383	-1.09745	0.733375
H	-0.508187	-0.914351	1.72316
H	-0.091651	-1.938226	0.541264
Br	3.652653	0.0	0.0
