15

C	-0.455336	0.045599	-1.465444
C	0.0	0.0	0.0
Cl	-0.091589	-1.550792	-2.221974
H	1.093306	0.0	0.0
H	-0.36167	-0.927436	0.45878
C	-1.909039	0.2284	-1.533073
N	-3.073387	0.390942	-1.556711
C	0.281497	1.13683	-2.227067
H	0.048029	2.094726	-1.759632
H	-0.014918	1.152603	-3.277755
H	1.354541	0.947402	-2.137896
N	-0.458624	1.214629	0.668409
H	0.276428	1.551386	1.276711
H	-1.286608	1.039857	1.222031
Br	3.627057	0.0	0.0
