15

C	-0.564727	-0.00656	-1.421938
C	0.0	0.0	0.0
Cl	0.03104	1.450872	-2.305349
H	1.098065	0.0	0.0
H	-0.344847	-0.927418	0.472281
C	-0.099491	-1.188606	-2.150195
N	0.170801	-2.173325	-2.731289
C	-2.088943	0.024871	-1.437478
H	-2.463767	0.05871	-2.461628
H	-2.470369	-0.875588	-0.947035
H	-2.420166	0.899273	-0.880672
N	-0.548328	1.14192	0.74624
H	-0.414365	0.945131	1.731458
H	0.05215	1.935955	0.546651
Br	3.632452	0.0	0.0
