15

C	-0.564808	-0.00455	-1.422146
C	0.0	0.0	0.0
Cl	0.032781	1.451254	-2.304894
H	1.098244	0.0	0.0
H	-0.345087	-0.927596	0.471186
C	-0.102576	-1.187627	-2.150877
N	0.166382	-2.170583	-2.735507
C	-2.089147	0.029444	-1.437133
H	-2.418813	0.904839	-0.881015
H	-2.471913	-0.869816	-0.94602
H	-2.463989	0.063509	-2.461267
N	-0.547609	1.141087	0.74754
H	-0.413688	0.943567	1.732647
H	0.052907	1.93534	0.549464
Br	3.631517	0.0	0.0
