15

C	0.0	0.0	0.0
C	-0.526826	0.055723	-1.431954
Br	1.965179	0.0	0.0
H	-1.635032	0.076447	-1.286215
H	-0.253215	-0.864584	-1.952886
C	-0.420585	1.250982	0.763277
H	-0.07626	1.186828	1.799729
H	-1.518618	1.253753	0.738092
H	-0.018999	2.163206	0.314782
N	-0.521103	-1.220596	0.554893
H	-1.552691	-1.086819	0.468561
H	-0.314181	-1.23281	1.550076
C	-0.094687	1.214782	-2.196219
N	0.233691	2.147844	-2.82962
H	-3.090089	0.0	0.0
