15

C	0.0	0.0	0.0
C	-0.570089	-0.019664	-1.405951
Br	2.030027	0.0	0.0
H	-1.680455	-0.014819	-1.175804
H	-0.322416	-0.951535	-1.917569
C	-0.502696	1.202463	0.751839
H	-0.198365	2.128773	0.266962
H	-0.134504	1.203608	1.781209
H	-1.604329	1.089202	0.723841
N	-0.420369	-1.186543	0.640803
H	-0.381783	-1.119918	1.648174
H	0.068439	-2.006883	0.310232
C	-0.187282	1.113026	-2.231752
N	0.11042	2.036255	-2.894814
H	-3.24036	0.0	0.0
