15

C	0.0	0.0	0.0
C	-0.501144	0.045732	-1.45136
Br	1.971337	0.0	0.0
H	-0.218875	-0.874252	-1.973908
H	-1.609281	0.059658	-1.315316
C	-0.440795	1.248203	0.741967
H	-1.538639	1.251286	0.697824
H	-0.034896	2.150809	0.281501
H	-0.112152	1.184565	1.780608
N	-0.520328	-1.144573	0.690856
H	-0.349204	-1.977499	0.132742
H	-1.550135	-0.976683	0.672545
C	-0.062478	1.195925	-2.22873
N	0.28626	2.129866	-2.851051
H	-3.085246	0.0	0.0
