16

C	0.0	0.0	0.0
C	-0.260395	-0.132886	-1.532261
F	1.404747	0.0	0.0
H	0.287362	0.674276	-2.0233
C	-0.393323	1.366567	0.404049
N	-0.649688	2.458973	0.747934
N	-0.55298	-0.948682	0.881131
H	-1.511571	-0.685694	1.107591
H	-0.558328	-1.861554	0.441595
N	-1.586781	-0.256969	-1.958351
H	-2.306193	-0.331254	-1.229128
H	-1.857601	0.464895	-2.606486
N	0.539953	-1.369965	-1.984624
O	1.368558	-1.21116	-2.877878
O	0.26449	-2.44969	-1.464118
Cl	-3.962606	0.0	0.0
