16

C	0.0	0.0	0.0
C	-0.320564	-0.123259	-1.531776
F	1.374594	0.0	0.0
H	0.227304	0.699849	-1.993699
C	-0.377614	1.375494	0.42899
N	-0.619511	2.472166	0.774846
N	-0.544043	-1.045187	0.78116
H	-1.551535	-1.079667	0.603573
H	-0.424172	-0.836843	1.766498
N	-1.645754	-0.180748	-2.03016
H	-2.159956	0.658266	-1.784362
H	-2.175555	-0.926831	-1.593966
N	0.395372	-1.364674	-2.011423
O	1.494632	-1.218554	-2.543257
O	-0.186105	-2.432534	-1.852714
Cl	-3.947575	0.0	0.0
