16

C	0.0	0.0	0.0
C	-0.190876	0.466832	-1.494818
F	1.372406	0.0	0.0
H	0.590015	-0.093613	-2.022345
C	-0.417405	1.044157	0.959888
N	-0.562414	1.839587	1.810656
N	-0.49844	-1.258448	0.399743
H	-0.41347	-1.913571	-0.369127
H	-1.503105	-1.136996	0.571939
N	-0.048558	1.895763	-1.590818
H	-0.600967	2.237533	-2.367687
H	0.925851	2.129066	-1.724754
N	-1.418937	-0.002097	-2.231634
O	-2.108708	0.826473	-2.809126
O	-1.528449	-1.219727	-2.330818
Cl	-3.476978	0.0	0.0
