16

C	0.0	0.0	0.0
C	-0.266213	0.303386	-1.508824
F	1.394797	0.0	0.0
H	0.29424	1.207126	-1.752656
C	-0.402637	1.201742	0.761758
N	-0.620262	2.199256	1.340294
N	-0.548296	-1.15955	0.58683
H	-0.518616	-1.923048	-0.078289
H	-1.52215	-0.981234	0.831799
N	-1.593037	0.337083	-1.956955
H	-1.857442	1.249147	-2.293432
H	-2.310667	0.02211	-1.294633
N	0.509861	-0.770125	-2.288752
O	0.1778	-1.943346	-2.120418
O	1.380814	-0.389776	-3.067613
Cl	-3.957009	0.0	0.0
