16

C	0.0	0.0	0.0
C	-0.431936	0.067929	-1.477907
F	1.405987	0.0	0.0
H	-1.512294	0.245185	-1.472834
C	-0.37152	1.21024	0.763571
N	-0.509941	2.163795	1.433444
N	-0.479606	-1.154902	0.662995
H	-0.429607	-1.917434	-0.006589
H	-1.473065	-0.992689	0.852781
N	-0.08536	-1.147755	-2.133537
H	-0.666975	-1.284691	-2.947431
H	0.88588	-1.119199	-2.41495
N	0.221009	1.28082	-2.130158
O	1.176659	1.08559	-2.883012
O	-0.2427	2.380861	-1.84584
Cl	-3.468192	0.0	0.0
