17

C	-0.463426	0.022555	-1.459645
C	0.0	0.0	0.0
Cl	0.187516	-1.387949	-2.385052
H	1.096481	0.0	0.0
C	-1.929625	-0.044859	-1.54852
N	-3.10481	-0.097394	-1.556112
C	-0.022765	1.23757	-2.158897
N	0.305801	2.194758	-2.756557
C	-0.489451	-1.239404	0.731755
H	-1.580033	-1.259958	0.84918
H	-0.032965	-1.241232	1.725534
H	-0.166882	-2.153643	0.230395
C	-0.445676	1.274386	0.709141
H	-0.05154	2.165428	0.214007
H	-0.021139	1.259506	1.717229
H	-1.53645	1.360198	0.792256
H	2.806054	0.0	0.0
