17

C	-0.465882	-0.032421	-1.458713
C	0.0	0.0	0.0
Cl	0.183594	1.372453	-2.393326
H	1.096479	0.0	0.0
C	-0.026669	-1.251458	-2.151943
N	0.299313	-2.212701	-2.744327
C	-1.932023	0.034329	-1.544926
N	-3.10716	0.085585	-1.549813
C	-0.444309	-1.269544	0.718552
H	-0.013743	-1.249964	1.723833
H	-0.055057	-2.164498	0.226805
H	-1.534716	-1.35281	0.808126
C	-0.488808	1.244296	0.723649
H	-0.027473	1.255457	1.714762
H	-0.170739	2.155111	0.213664
H	-1.578546	1.263252	0.845912
H	2.804701	0.0	0.0
