17

C	-0.462619	0.022132	-1.459892
C	0.0	0.0	0.0
Cl	0.188275	-1.389253	-2.382939
H	1.09648	0.0	0.0
C	-1.928454	-0.045688	-1.549234
N	-3.103296	-0.097208	-1.556566
C	-0.022362	1.236623	-2.160761
N	0.301564	2.193095	-2.762386
C	-0.489727	-1.239819	0.730507
H	-0.167704	-2.153506	0.228246
H	-0.033106	-1.243123	1.723753
H	-1.579948	-1.260504	0.848249
C	-0.446628	1.274608	0.707294
H	-0.022392	1.261494	1.71488
H	-1.537059	1.359699	0.79002
H	-0.053508	2.165706	0.211496
H	2.806851	0.0	0.0
