17

C	-0.460584	-0.017239	-1.461434
C	0.0	0.0	0.0
Cl	0.190253	1.397841	-2.379109
H	1.096472	0.0	0.0
C	-0.017955	-1.229071	-2.164994
N	0.306288	-2.183232	-2.769569
C	-1.926383	0.049501	-1.552525
N	-3.101262	0.103802	-1.561041
C	-0.447222	-1.277281	0.701698
H	-0.050966	-2.166227	0.2045
H	-1.538035	-1.364615	0.780442
H	-0.026803	-1.266651	1.711211
C	-0.489958	1.237298	0.734412
H	-1.580369	1.257457	0.85145
H	-0.034318	1.237004	1.728309
H	-0.167484	2.153003	0.235749
H	2.810068	0.0	0.0
