17

C	-0.462964	0.0248	-1.459807
C	0.0	0.0	0.0
Cl	0.18704	-1.38588	-2.384949
H	1.096474	0.0	0.0
C	-1.928822	-0.041371	-1.549184
N	-3.103814	-0.091004	-1.556597
C	-0.021354	1.240156	-2.158131
N	0.303264	2.198213	-2.756068
C	-0.489478	-1.240639	0.72907
H	-0.170999	-2.153617	0.223395
H	-1.579234	-1.259369	0.851259
H	-0.028306	-1.247184	1.720195
C	-0.446165	1.27289	0.710531
H	-0.054749	2.165406	0.216164
H	-0.019311	1.257927	1.716932
H	-1.536544	1.357434	0.795734
H	2.805758	0.0	0.0
