17

C	-0.400332	-0.005096	-1.459419
C	0.0	0.0	0.0
Cl	-2.239726	-0.010699	-1.696227
H	1.098384	0.0	0.0
C	0.074558	1.187406	-2.167938
N	0.446584	2.137101	-2.751687
C	0.080748	-1.199484	-2.159948
N	0.456589	-2.1502	-2.738384
C	-0.441333	-1.263206	0.720125
H	-0.08021	-2.159806	0.209132
H	-1.52938	-1.328608	0.831775
H	0.01544	-1.25934	1.714025
C	-0.443317	1.26557	0.714586
H	-0.082469	2.160663	0.20069
H	-1.531539	1.330179	0.824688
H	0.012075	1.266105	1.709065
H	2.741783	0.0	0.0
