15

C	-0.612144	-0.037642	-1.397156
C	0.0	0.0	0.0
Cl	-0.0209	-1.43548	-2.315077
H	1.093361	0.0	0.0
C	-2.072991	-0.069438	-1.358196
N	-3.242395	-0.135236	-1.247286
N	-0.187629	1.246086	-2.130433
O	-1.072793	2.064178	-2.355199
O	0.997413	1.348162	-2.39388
C	-0.45151	-1.159097	0.754627
N	-0.818137	-2.072714	1.40056
N	-0.313142	1.280393	0.610833
H	-1.044372	1.220808	1.303831
H	0.548767	1.608092	1.042602
H	2.549606	0.0	0.0
