15

C	-0.45621	0.024013	-1.440678
C	0.0	0.0	0.0
Cl	0.420147	1.260262	-2.342053
H	1.094854	0.0	0.0
C	-0.303994	-1.265294	-2.111699
N	-0.216682	-2.296874	-2.667835
N	-1.986455	0.348783	-1.556958
O	-2.662478	0.081379	-0.571267
O	-2.396568	0.78833	-2.621016
C	-0.441463	-1.19696	0.696555
N	-0.748792	-2.14056	1.329726
N	-0.342811	1.249556	0.650847
H	0.479678	1.543437	1.172608
H	-1.130698	1.14009	1.275333
H	2.546189	0.0	0.0
