15

C	-0.488352	-0.036654	-1.442583
C	0.0	0.0	0.0
Cl	0.369678	1.160729	-2.406966
H	1.095459	0.0	0.0
C	-0.339166	-1.353486	-2.053512
N	-0.229926	-2.40937	-2.557464
N	-2.003479	0.286864	-1.46031
O	-2.714362	-0.631238	-1.056848
O	-2.37101	1.406162	-1.779587
C	-0.461155	-1.148345	0.758665
N	-0.78045	-2.045979	1.450866
N	-0.324864	1.279257	0.606211
H	-1.033926	1.191047	1.322611
H	0.539134	1.624376	1.022077
H	2.519145	0.0	0.0
