15

C	-0.603531	0.030575	-1.402433
C	0.0	0.0	0.0
Cl	-0.019696	-1.336081	-2.368851
H	1.093396	0.0	0.0
C	-2.064761	0.01313	-1.371801
N	-3.236951	-0.041062	-1.278616
N	-0.160644	1.33875	-2.081203
O	-1.030456	2.183601	-2.260381
O	1.025248	1.42834	-2.347723
C	-0.45903	-1.190473	0.697915
N	-0.829302	-2.135827	1.293848
N	-0.315718	1.250826	0.662652
H	-1.058791	1.171643	1.339977
H	0.541656	1.55265	1.116455
H	2.541796	0.0	0.0
