15

C	-0.611603	-0.042231	-1.398155
C	0.0	0.0	0.0
Cl	-0.019434	-1.441134	-2.310965
H	1.093392	0.0	0.0
C	-2.071717	-0.069578	-1.359849
N	-3.241357	-0.136683	-1.248872
N	-0.182262	1.242323	-2.132241
O	1.002478	1.333862	-2.404114
O	-1.061362	2.067926	-2.34839
C	-0.453402	-1.155787	0.757524
N	-0.819725	-2.067823	1.405987
N	-0.311715	1.281596	0.608075
H	-1.039552	1.224958	1.306636
H	0.554037	1.611537	1.033922
H	2.548527	0.0	0.0
