15

C	-0.505636	0.079939	-1.424154
C	0.0	0.0	0.0
Cl	-2.29856	0.102083	-1.542439
H	1.09399	0.0	0.0
C	-0.00474	1.278821	-2.087691
N	0.336949	2.252972	-2.648088
N	0.017745	-1.148718	-2.182571
O	1.068133	-0.986251	-2.792123
O	-0.606187	-2.193247	-2.047411
C	-0.484527	-1.18169	0.688644
N	-0.879503	-2.094399	1.318632
N	-0.293294	1.248708	0.683025
H	-1.03113	1.148466	1.365999
H	0.570046	1.530906	1.144971
H	2.519939	0.0	0.0
