18

C	-0.452981	0.044798	-1.469122
C	0.0	0.0	0.0
Br	0.236835	-1.669	-2.352444
H	1.094809	0.0	0.0
N	-1.864481	0.129217	-1.58485
H	-2.316361	-0.669953	-1.160479
H	-2.140812	0.176714	-2.558279
C	0.236918	1.172214	-2.2124
H	0.001821	1.129409	-3.279049
H	-0.115542	2.124722	-1.805523
H	1.317094	1.093763	-2.07373
C	-0.500793	-1.184811	0.827074
H	-1.590835	-1.187788	0.928176
H	-0.069232	-1.11919	1.827641
H	-0.168924	-2.119171	0.375844
C	-0.440383	1.246504	0.634916
N	-0.816203	2.219852	1.175302
Br	3.519438	0.0	0.0
