18

C	-0.448001	0.063756	-1.470795
C	0.0	0.0	0.0
Br	0.217752	-1.6523	-2.366106
H	1.094791	0.0	0.0
N	-1.858579	0.170906	-1.590523
H	-2.325127	-0.6255	-1.175344
H	-2.12998	0.23127	-2.564263
C	0.262074	1.18877	-2.198701
H	1.340812	1.091183	-2.057013
H	0.029256	1.164473	-3.266762
H	-0.075973	2.142064	-1.78104
C	-0.503206	-1.191175	0.816001
H	-0.162074	-2.121803	0.364082
H	-1.594284	-1.20074	0.905784
H	-0.082631	-1.128135	1.821529
C	-0.438185	1.24179	0.645796
N	-0.810069	2.211769	1.194809
Br	3.51829	0.0	0.0
