18

C	-0.478159	0.031633	-1.477532
C	0.0	0.0	0.0
Br	0.010562	-1.696773	-2.3018
H	1.095882	0.0	0.0
N	-1.908321	0.177837	-1.675451
H	-2.188367	1.080172	-1.298416
H	-2.405929	-0.543992	-1.165581
C	0.261645	1.122204	-2.230789
H	-0.029064	2.098707	-1.827716
H	-0.004787	1.084333	-3.288007
H	1.338324	0.999567	-2.097843
C	-0.492386	-1.171847	0.849153
H	-1.584966	-1.243874	0.861852
H	-0.147071	-1.037665	1.87634
H	-0.072221	-2.10244	0.47068
C	-0.461673	1.252835	0.601261
N	-0.907603	2.241424	1.056023
Br	3.515654	0.0	0.0
