18

C	-0.346911	-0.033154	-1.489147
C	0.0	0.0	0.0
Br	-2.449006	-0.416785	-1.655076
H	1.09838	0.0	0.0
N	-0.042009	1.172248	-2.106598
H	-0.220986	1.180911	-3.099379
H	-0.425259	1.991307	-1.650021
C	0.304316	-1.196082	-2.207194
H	-0.077925	-2.146929	-1.84537
H	1.380718	-1.130816	-2.024362
H	0.102524	-1.137492	-3.279551
C	-0.428483	-1.212694	0.824559
H	-0.023752	-1.102976	1.832815
H	0.002264	-2.120047	0.400643
H	-1.512869	-1.311758	0.874783
C	-0.480695	1.2338	0.609031
N	-0.884631	2.232259	1.078839
Br	3.470474	0.0	0.0
