14

C	-0.414149	-0.081913	-1.453148
C	0.0	0.0	0.0
Br	-2.384122	-0.132966	-1.623628
H	1.092557	0.0	0.0
H	-0.143736	0.885129	-1.882347
H	-0.38377	0.898701	0.478353
C	0.22132	-1.189947	-2.269109
H	0.019471	-1.035589	-3.331615
H	-0.147043	-2.167262	-1.968382
H	1.300391	-1.151886	-2.089178
N	-0.480246	-1.129652	0.833289
O	-0.294202	-2.275551	0.42482
O	-1.026873	-0.848886	1.900951
Cl	3.332633	0.0	0.0
