14

C	-0.402762	-0.055912	-1.459406
C	0.0	0.0	0.0
Br	-2.368737	-0.103662	-1.657864
H	1.092573	0.0	0.0
H	-0.128254	0.917681	-1.869726
H	-0.39087	0.88774	0.491943
C	0.24647	-1.149363	-2.280967
H	0.058024	-0.98175	-3.343097
H	-0.12178	-2.132934	-1.998949
H	1.321619	-1.110859	-2.086419
N	-0.484277	-1.1511	0.797299
O	-0.217019	-2.283796	0.402227
O	-1.122021	-0.901079	1.821357
Cl	3.328076	0.0	0.0
