16

C	-0.462736	-0.032797	-1.434173
C	0.0	0.0	0.0
Cl	0.344891	-1.281763	-2.329486
H	1.094538	0.0	0.0
N	-1.982731	-0.235391	-1.594331
O	-2.654405	-0.235832	-0.570198
O	-2.405264	-0.35473	-2.737508
N	-0.227611	1.331916	-2.093821
O	-1.131007	2.145854	-1.920096
O	0.82902	1.518967	-2.671421
N	-0.325151	-1.267967	0.64076
H	-1.130444	-1.19107	1.24631
H	0.493765	-1.539777	1.170596
C	-0.47406	1.168436	0.723875
N	-0.800631	2.084344	1.38702
F	2.485818	0.0	0.0
