16

C	-0.57737	0.002361	-1.411128
C	0.0	0.0	0.0
F	-0.056417	1.060976	-2.087869
H	1.09029	0.0	0.0
N	-0.189039	-1.212465	-2.247863
O	-0.907692	-1.429614	-3.219833
O	0.83963	-1.791617	-1.939882
C	-2.04286	0.120808	-1.397639
N	-3.201675	0.290196	-1.309445
N	-0.466047	-1.242994	0.724615
O	-1.096923	-2.090197	0.086151
O	-0.202418	-1.305223	1.919513
N	-0.402309	1.192812	0.665403
H	0.315027	1.471346	1.320931
H	-1.296775	1.113994	1.129969
Br	3.35802	0.0	0.0
