16

C	-0.453981	-0.007086	-1.458534
C	0.0	0.0	0.0
F	-0.161043	1.232232	-1.96216
H	1.0975	0.0	0.0
N	0.34039	-0.978254	-2.342177
O	1.550539	-0.896639	-2.235127
O	-0.2778	-1.69415	-3.117113
C	-1.883236	-0.276163	-1.608617
N	-3.039992	-0.474181	-1.670601
N	-0.421302	-1.283568	0.613307
O	-0.674068	-1.294821	1.821682
O	-0.334784	-2.287268	-0.105354
N	-0.642019	1.091767	0.672698
H	-0.815765	0.823401	1.634247
H	-0.047641	1.910018	0.655745
Br	2.73375	0.0	0.0
