14

C	-0.425393	-0.039737	-1.436254
C	0.0	0.0	0.0
Br	-0.039586	1.711806	-2.211262
H	1.089686	0.0	0.0
H	-0.377921	0.8798	0.513902
C	0.253367	-1.044214	-2.244091
N	0.801818	-1.816	-2.939991
N	-1.949558	-0.218226	-1.612583
O	-2.340707	-0.784425	-2.624306
O	-2.647937	0.267948	-0.734436
N	-0.497208	-1.177343	0.70801
O	-0.492358	-1.141009	1.935908
O	-0.861817	-2.150862	0.035783
F	2.469714	0.0	0.0
