14

C	-0.46962	0.003388	-1.427328
C	0.0	0.0	0.0
Br	0.319653	1.413	-2.48463
H	1.08841	0.0	0.0
H	-0.313412	-0.919672	0.494676
C	-0.102096	-1.269766	-2.039382
N	0.169381	-2.297868	-2.539437
N	-2.0267	0.053808	-1.52883
O	-2.566111	0.800246	-2.323452
O	-2.582169	-0.740367	-0.777458
N	-0.554396	1.10381	0.783851
O	-1.221707	1.971533	0.211537
O	-0.308444	1.09713	1.986724
F	2.472939	0.0	0.0
