14

C	-0.436522	-0.038933	-1.432662
C	0.0	0.0	0.0
Br	-0.036742	1.70627	-2.215527
H	1.089683	0.0	0.0
H	-0.372971	0.882131	0.513873
C	0.223201	-1.053086	-2.244202
N	0.756954	-1.835966	-2.939306
N	-1.964231	-0.200104	-1.594837
O	-2.371365	-0.765248	-2.600756
O	-2.649125	0.297397	-0.712319
N	-0.500547	-1.172946	0.713243
O	-0.87623	-2.145052	0.045291
O	-0.487287	-1.134793	1.940857
F	2.469808	0.0	0.0
