14

C	-0.315148	-0.021064	-1.460083
C	0.0	0.0	0.0
Br	-2.252006	-0.069946	-1.8949
H	1.092073	0.0	0.0
H	-0.375598	-0.886564	0.501307
C	0.281175	1.055363	-2.236979
N	0.741541	1.905633	-2.904547
N	0.228868	-1.360691	-2.003839
O	-0.013907	-2.351031	-1.331309
O	0.822056	-1.331229	-3.072239
N	-0.516331	1.172631	0.687486
O	-0.728751	2.200707	0.038234
O	-0.666837	1.075305	1.906086
F	2.451875	0.0	0.0
