18
Coordinates from ORCA-job run
  C   0.55606649863104      0.49516183365497      0.26464635613599
  C   -0.63112955764937     -0.41481608585370     -0.09637234232732
  Cl  0.13993643840770      2.19697334480575      0.07324783857295
  H   -0.21708532400859     -1.43056792690434     -0.10031513931620
  N   0.87459349882230      0.22587042275728      1.74150972497882
  O   1.10080448198652      1.15425928835859      2.49917914253776
  O   0.93246930596243     -0.96941987415858      2.02896388813724
  C   1.83399955326012      0.18510880554637     -0.49372576958476
  H   2.09686179666122     -0.86583350590017     -0.35873545471948
  H   1.70147084929848      0.39531944465936     -1.55462432541218
  H   2.64722988661754      0.81067603197618     -0.12133290476385
  C   -1.19064941395706     -0.11186251415093     -1.47810831236734
  H   -1.71779928736764      0.84317297050259     -1.47380006536759
  H   -0.41373843744416     -0.07414934953508     -2.24258049992892
  H   -1.89625433976094     -0.89842555628148     -1.75742079853333
  N   -1.66485274507716     -0.25189862111988      0.91590521963327
  H   -1.56661591258404     -0.94846025208842      1.64244194484104
  H   -2.58630729179840     -0.33910845626849      0.51012149748388
