18
Coordinates from ORCA-job run
  C   0.72625054979946      0.50086398917130     -0.07218401026405
  C   -0.49993266056074     -0.24135834657854     -0.64833156704443
  Cl  0.99382529853678      1.98348694361616     -1.00685631317196
  H   -0.32723562816880     -0.24108054708228     -1.72954283629492
  N   0.37998978073810      0.88395349225823      1.36802500783358
  O   0.22059149316610      2.05329691297447      1.68250681025879
  O   0.23906498375736     -0.08485469369522      2.11459646545655
  C   1.99857930572260     -0.31845229830855     -0.05172332823994
  H   2.23184885657399     -0.62744318000339     -1.07134412438702
  H   2.82248813852300      0.28524621467739      0.33387861313718
  H   1.85811575372267     -1.20768247806506      0.55612246870978
  C   -1.80586094146576      0.49956664445805     -0.35693897510045
  H   -2.04887083908004      0.44133356666130      0.70772141319084
  H   -2.61996275197247      0.02391710705579     -0.90873419687936
  H   -1.76507268676281      1.55089130042934     -0.64764532745841
  N   -0.48530431251253     -1.63759226087940     -0.22769691151258
  H   -1.15603253677947     -2.15420112529901     -0.78395244131504
  H   -0.76448180323742     -1.70789124139057      0.74409925308144
