18
Coordinates from ORCA-job run
  C   0.54033421992831      0.38985943821112      0.32501068765612
  C   -0.65873682324880     -0.47118992233798     -0.14724928503237
  Cl  -0.00046134520752      2.00001217334032      0.82137497252321
  H   -0.21222984662416     -1.43261662094977     -0.42195094369690
  N   1.09521791296555     -0.34356756947260      1.54787336204646
  O   0.97816490614046      0.13551204554604      2.66647817758283
  O   1.59206729557708     -1.43669537967737      1.28188624885507
  C   1.66852340609175      0.51572533608795     -0.68016805404505
  H   1.95539620063110     -0.47179627653728     -1.04236507097199
  H   1.34986165465414      1.13513680948029     -1.51719346004822
  H   2.53518442409234      0.99027675014655     -0.21581363604066
  C   -1.34074481488081      0.12348788579192     -1.37085102030343
  H   -2.12035980739880     -0.56848819891423     -1.69036793924663
  H   -1.81213655014397      1.07868720304652     -1.13128880651153
  H   -0.64826999222303      0.27586509351183     -2.20011013682792
  N   -1.64853592722666     -0.73854513006195      0.87623416581890
  H   -1.27305932735131     -1.30603635963072      1.62559429280799
  H   -2.00221558577567      0.12437272241937      1.27190644543412
