18
Coordinates from ORCA-job run
  C   0.63056090412673      0.43337617630411      0.20746211836375
  C   -0.68436468072991     -0.34138135475868      0.06688723473218
  Cl  0.39134366339173      2.14391827587193     -0.19207443732720
  H   -0.43600160950773     -1.36006734152078      0.38004268159938
  N   1.02055293807502      0.31657146915396      1.68689379084805
  O   1.22398417491967     -0.84024801185315      2.04453653600626
  O   1.11816028562658      1.31380773281090      2.38017891079130
  C   1.78565152179365     -0.11936536417111     -0.60417830524511
  H   2.70718737164346      0.40326917312768     -0.34097571316781
  H   1.90648376717681     -1.18305370938668     -0.39605968763758
  H   1.60180241481965      0.03004768513989     -1.66735165645283
  C   -1.20214630131386     -0.37599527474495     -1.36846686081360
  H   -0.49536777394210     -0.84304567225645     -2.05819450287629
  H   -1.42753907087025      0.63010740809705     -1.72815548404628
  H   -2.12526748284222     -0.96007670904722     -1.39499452687967
  N   -1.61902213890047      0.18188782380982      1.05287087517205
  H   -2.36928312478475     -0.48012349629194      1.20405096296536
  H   -2.02773485868201      1.05037118971559      0.72752806396804
