18
Coordinates from ORCA-job run
  C   0.70714092766571      0.47651915802825      0.05598348813956
  C   -0.52701032160324     -0.23373406491476     -0.53535001244061
  Cl  0.84058677460490      2.15960114080818     -0.52333395643492
  H   -0.20447721192434     -0.50251761386045     -1.54799130300535
  N   0.56865417710915      0.58352570191548      1.57570668716989
  O   1.59961270152048      0.59160254258890      2.23616620207044
  O   -0.56651252603390      0.68704102486677      2.03289018139073
  C   1.98725206590588     -0.26128143414868     -0.26416734487216
  H   2.84372984041431      0.23827045262410      0.18218791474225
  H   2.11354559922364     -0.28568153797257     -1.34779627860892
  H   1.91047803042810     -1.27836757011230      0.11965802669189
  C   -1.81553829673798      0.57514973518035     -0.67003853342505
  H   -1.69236805573967      1.44047212459900     -1.32177497998846
  H   -2.17247707662239      0.91513791070308      0.30033025528039
  H   -2.57403738665661     -0.07470492765820     -1.11469383822456
  N   -0.66636626431347     -1.48220748122821      0.21481618147471
  H   -1.30465509678843     -1.34344198984697      0.98924530053602
  H   -1.04755788045215     -2.20538317157197     -0.38083799049582
