18
Coordinates from ORCA-job run
  C   0.70881409914435      0.50814950549280     -0.02294976613625
  C   -0.54293020634055     -0.22252284444574     -0.55611697048077
  Cl  0.92168007203179      2.05135392940475     -0.88501922223529
  H   -0.33222341281907     -0.35242127551876     -1.62834994587667
  N   0.49811389495348      0.83289250738367      1.45228907705316
  O   1.15845762407681      0.19521514118198      2.26547075077371
  O   -0.34696429529529      1.67933373821196      1.72282295781148
  C   1.96378918331439     -0.31891842337030     -0.18440626572699
  H   1.87265893267928     -1.24677767745710      0.37593873158475
  H   2.83149871155247      0.22668078949939      0.18548068909255
  H   2.10927702159691     -0.52879271333253     -1.24620972222117
  C   -1.85689355597167      0.53386016537454     -0.41994127122119
  H   -2.61436524052255      0.01866326851353     -1.01674994881046
  H   -2.18348631047499      0.55188048204379      0.62031598593536
  H   -1.78127879244366      1.56148584001263     -0.76962629596749
  N   -0.63459857329939     -1.49309377721316      0.15476122639795
  H   -1.60026793570853     -1.75587468544816      0.29622719419233
  H   -0.17328121647380     -2.24011397033328     -0.34593720416500
