18
Coordinates from ORCA-job run
  C   0.80012341616243      0.45842793911356     -0.09132817364016
  C   -0.54461685820772      0.01246361229971     -0.70461760482299
  Cl  1.89181173392978      0.95044111563836     -1.40755465014959
  H   -0.85520986528344      0.83543276012227     -1.35435428108233
  N   0.51010524457242      1.71698220109536      0.71746255812652
  O   0.78616635106970      1.70509431756969      1.91431129656828
  O   -0.03631891194029      2.63788790387839      0.11920403211859
  C   1.47992279918677     -0.58284291004799      0.75837940114645
  H   0.86517700314467     -0.84492518699098      1.61952705232145
  H   2.43739754102153     -0.21294210974187      1.12253607246573
  H   1.64017852075872     -1.45989952164752      0.13269955786369
  C   -1.60966183755825     -0.20112680653924      0.36639108943723
  H   -1.36197472697884     -1.05751026446996      0.99941458739730
  H   -2.56466697397442     -0.40670416280272     -0.12213108109776
  H   -1.74736510861641      0.67103854912266      1.00743610495697
  N   -0.30795383865833     -1.19396346674353     -1.48610046101269
  H   -0.53556555842631     -1.05629509705022     -2.45935851466146
  H   -0.84954893020201     -1.97055887280597     -1.13291698593523
