18
Coordinates from ORCA-job run
  C   0.68071669975786      0.47915145957309     -0.09447484078433
  C   -0.60297062257058     -0.21451060672784     -0.65090693996194
  Cl  0.99139389008026      1.95349236467772     -1.02734524158029
  H   -0.45670339407996     -0.20657381578700     -1.73651151815328
  N   0.38678247888455      0.85630699734016      1.35126667307223
  O   0.16654628843048      2.01844632760847      1.65747352945813
  O   0.32060678176034     -0.11079758945086      2.11260814397294
  C   1.91846657806848     -0.39263662120865     -0.12406530933200
  H   2.78472550746595      0.17029956064358      0.22736257981423
  H   1.78416045214373     -1.26674755241292      0.50933191020113
  H   2.10649983052257     -0.70660145044220     -1.15278582491685
  C   -1.85775127704347      0.58024701457118     -0.31298313690331
  H   -1.75910759289889      1.63618912795942     -0.56479983037962
  H   -2.08523790204629      0.49935454850464      0.75393413186835
  H   -2.69679014252430      0.15557438355637     -0.86386828266190
  N   -0.79363523262844     -1.59231158020003     -0.25150227718241
  H   -0.05017372852483     -2.18855725605763     -0.59006763647435
  H   -0.83752861479745     -1.67132531214751      0.75733386994328
