18
Coordinates from ORCA-job run
  C   0.71678819482677      0.49702083554613     -0.01987269292308
  C   -0.54413151626063     -0.21400136904036     -0.55872988083936
  Cl  0.95797779851614      2.03587654688749     -0.88248558222121
  H   -0.33157911054928     -0.34513795314777     -1.63049320923235
  N   0.50384495920862      0.82580132444142      1.45381404157284
  O   -0.32521239661497      1.68929346606687      1.71965540488955
  O   1.14610765864868      0.17440067900644      2.27050838347941
  C   1.95950825059910     -0.34965241988270     -0.17501415737946
  H   1.85219884560184     -1.27466903018048      0.38719503066154
  H   2.10559249355396     -0.56423585829709     -1.23578329335127
  H   2.83419179979115      0.18351620088999      0.19660633837638
  C   -1.84642837705973      0.56288124273551     -0.42612190923249
  H   -2.61002173209432      0.05981344575606     -1.02550355685809
  H   -2.17593011679157      0.58554238529139      0.61310919111002
  H   -1.75357572147480      1.58927370625710     -0.77534842383287
  N   -0.65887382744659     -1.48309051501134      0.15074237365759
  H   -1.62910113617038     -1.73508268022408      0.28016590255087
  H   -0.19935606628399     -2.23555000709458     -0.34344396042802
