18
Coordinates from ORCA-job run
  C   0.72332548915979      0.50333520166335     -0.08273631888271
  C   -0.50656095650408     -0.24589075191094     -0.64115978382246
  Cl  0.97254499314891      1.98476822843879     -1.02500727610266
  H   -0.34712658011861     -0.24888267190757     -1.72438260265581
  N   0.39264402769200      0.88928710606200      1.36046211707721
  O   0.22207887715126      2.05805604156671      1.67089608399858
  O   0.27336277256146     -0.07767722506740      2.11312832537724
  C   1.99977687007749     -0.30974426037372     -0.07682343468733
  H   2.22216249816005     -0.61819277034038     -1.09899329324367
  H   2.82525753598849      0.29840696787778      0.29829696164749
  H   1.87155132504574     -1.19896676623238      0.53363869090867
  C   -1.81220285282690      0.49026803808342     -0.33658007429763
  H   -2.04223045411416      0.43524249100144      0.73110705973313
  H   -2.63043051916940      0.00852984703992     -0.87687673920625
  H   -1.77991717867723      1.54052970580334     -0.63207668261373
  N   -0.48083366462902     -1.64052511783072     -0.21530667278811
  H   -0.74370803902772     -1.70748140907321      0.76127305857951
  H   -1.15969414391807     -2.16106265480043     -0.75785941902146
