18
Coordinates from ORCA-job run
  C   0.54236121711437      0.48416776905961      0.31003948551152
  C   -0.60655104850136     -0.44272356761059     -0.12466265275487
  Cl  -0.00712656169833      2.15041376125222      0.47713630742236
  H   -0.12440737228183     -1.40106849795659     -0.35351276493841
  N   1.01283510549939     -0.02240726901516      1.68014847270256
  O   1.23949342252768      0.76731591565471      2.58130280779130
  O   1.18183589145168     -1.24049746402644      1.72969365687680
  C   1.76386587442369      0.42856873882812     -0.58949162334784
  H   1.51929924330938      0.81480745236826     -1.57858501384429
  H   2.56149147052614      1.04473746723343     -0.17059701006225
  H   2.11213084568911     -0.60254459256553     -0.67491248028166
  C   -1.31078490413568      0.05956940196160     -1.37587385492934
  H   -0.61188847256416      0.30573309972808     -2.17614370424857
  H   -1.90219079604290      0.94761305321433     -1.14873295386701
  H   -1.98093224100436     -0.72053202141106     -1.74589102114703
  N   -1.55176211509728     -0.55770749528522      0.97691177644869
  H   -2.49783757066162     -0.65111271390310      0.63395229860686
  H   -1.33683198855392     -1.36333303752668      1.54921827406118
