16

C	-0.454856	0.001925	-1.454687
C	0.0	0.0	0.0
Br	-2.380201	-0.250512	-1.633613
H	1.09211	0.0	0.0
N	-0.063578	1.418166	-1.981361
O	1.145224	1.570171	-2.060516
O	-0.93613	2.228836	-2.225732
C	0.22358	-0.957636	-2.314555
N	0.733133	-1.708017	-3.064381
N	-0.412808	-1.341821	0.578991
O	0.158179	-2.329026	0.115938
O	-1.181686	-1.339413	1.543951
N	-0.51175	1.121363	0.673837
H	-1.504384	1.045339	0.862063
H	-0.014601	1.279114	1.541391
Br	2.748487	0.0	0.0
