16

C	-0.514254	-0.006428	-1.435261
C	0.0	0.0	0.0
Br	0.331648	1.443496	-2.426394
H	1.08735	0.0	0.0
N	-0.079532	-1.310266	-2.135443
O	0.996105	-1.749459	-1.817537
O	-0.859029	-1.757284	-2.996588
C	-1.954323	0.129148	-1.563314
N	-3.114086	0.302217	-1.659727
N	-0.400095	-1.326488	0.641292
O	-1.575237	-1.657827	0.534472
O	0.469254	-1.94374	1.249489
N	-0.540275	1.099358	0.708669
H	-0.101386	1.19692	1.616138
H	-1.547626	1.037756	0.812929
Br	2.75234	0.0	0.0
