18

C	0.0	0.0	0.0
C	-0.221304	0.105272	-1.567597
Cl	1.848877	0.0	0.0
H	0.573792	-0.51155	-1.994658
C	-0.487679	1.199706	0.783363
H	-1.579789	1.163511	0.668066
H	-0.065242	2.139218	0.423016
H	-0.221743	1.072511	1.837803
N	-0.564567	-1.249036	0.421408
H	-1.588318	-1.032485	0.334319
H	-0.383361	-1.347259	1.417864
C	0.058829	1.469689	-2.021708
N	0.28007	2.54861	-2.432113
C	-1.533004	-0.403551	-2.183816
H	-1.548294	-0.122493	-3.240925
H	-1.536958	-1.49206	-2.114355
H	-2.39581	-0.035735	-1.62274
F	-3.008221	0.0	0.0
