18

C	0.0	0.0	0.0
C	-0.392005	-0.053814	-1.548175
Cl	1.804977	0.0	0.0
H	0.535624	-0.088598	-2.128458
C	-0.422519	1.313409	0.644035
H	-1.515106	1.325807	0.591972
H	0.011367	2.170745	0.127017
H	-0.083596	1.303018	1.6817
N	-0.528511	-1.058053	0.801893
H	-0.337225	-1.951739	0.361931
H	-1.555317	-0.861176	0.716665
C	-1.060745	1.171008	-1.99396
N	-1.514839	2.152443	-2.453089
C	-1.250793	-1.261948	-1.935722
H	-0.714078	-2.194946	-1.738609
H	-1.467446	-1.223699	-3.007669
H	-2.173516	-1.186289	-1.35369
F	-2.852124	0.0	0.0
