18

C	0.0	0.0	0.0
C	-0.520639	-0.064062	-1.457572
Cl	1.800502	0.0	0.0
H	-1.617678	-0.0855	-1.253125
C	-0.447825	1.299302	0.655839
H	-1.539986	1.298331	0.580477
H	-0.137543	1.268534	1.701988
H	-0.000711	2.172631	0.178007
N	-0.513656	-1.085399	0.794526
H	-0.301809	-1.963769	0.328183
H	-1.538815	-0.916675	0.713167
C	-0.125751	-1.32297	-2.081552
N	0.192506	-2.326379	-2.605858
C	-0.15699	1.112225	-2.362191
H	0.925319	1.253851	-2.418971
H	-0.617823	2.025114	-1.983273
H	-0.537301	0.940613	-3.372563
F	-2.893759	0.0	0.0
