18

C	0.0	0.0	0.0
C	-0.404505	0.113224	-1.518431
Cl	1.862556	0.0	0.0
H	0.525237	0.204073	-2.087925
C	-0.370101	1.245277	0.798983
H	-1.464082	1.263585	0.787544
H	0.007169	1.135361	1.820702
H	0.049685	2.157291	0.369027
N	-0.514526	-1.210018	0.554808
H	-1.544962	-1.005372	0.463302
H	-0.293188	-1.20693	1.546794
C	-1.134184	1.350588	-1.814009
N	-1.607162	2.365418	-2.168253
C	-1.175542	-1.089763	-2.07168
H	-0.62142	-2.005986	-1.86381
H	-2.147851	-1.104175	-1.57983
H	-1.294136	-0.974014	-3.15417
F	-2.795733	0.0	0.0
