18

C	0.0	0.0	0.0
C	-0.626407	-0.251921	-1.367721
Cl	1.850452	0.0	0.0
H	-1.729343	-0.275313	-1.018016
C	-0.512957	1.291584	0.59074
H	-0.169785	2.158445	0.02481
H	-1.609617	1.156781	0.546062
H	-0.160264	1.394677	1.620823
N	-0.376051	-1.094049	0.852467
H	0.131188	-1.931394	0.596806
H	-0.171294	-0.866959	1.81654
C	-0.226488	-1.55012	-1.883125
N	0.106628	-2.597742	-2.303457
C	-0.38766	0.84855	-2.396726
H	0.677357	1.078243	-2.504467
H	-0.923563	1.748793	-2.094536
H	-0.777625	0.543201	-3.37098
F	-2.961246	0.0	0.0
