15
Coordinates from ORCA-job run
  C   0.78302744376027      0.14543899820673      0.25740807342870
  C   -0.69096676651384      0.53303304422401      0.28111007281767
  H   1.11093658578884     -0.22595200132449      1.22943294914293
  H   -0.78625639907972      1.36690122052003      0.98467027703879
  H   -0.94976207787352      0.91467085294327     -0.71232717704191
  N   1.70510403237114      1.14336501561308     -0.21021620312788
  H   1.97922516267984      1.75709323312082      0.54358387819796
  H   1.30121616923774      1.68709151724592     -0.96146608282775
  N   0.90527855168070     -1.04316621664170     -0.66268578308085
  O   1.11655264151617     -2.14366803375889     -0.15939768066342
  O   0.73631827484183     -0.81623574337777     -1.85758940414634
  C   -1.62170824844589     -0.61064117296616      0.67185151895714
  H   -1.62116672054353     -1.39819898026972     -0.08408367652444
  H   -1.32214216400612     -1.05945693305852      1.62216728902349
  H   -2.64765648541389     -0.25227480047661      0.77554194880590
