15
Coordinates from ORCA-job run
  C   0.76148647372247      0.19013061250876      0.30825371740831
  C   -0.71945210071310      0.51868291507547      0.16227253605552
  H   1.01050820631266     -0.06869488917018      1.33840700719713
  H   -0.89817115603971      0.78751349561958     -0.88435082891637
  H   -0.90403588221236      1.41468547621500      0.76431969020723
  N   1.68928408355886      1.17306890874163     -0.17782688153283
  H   1.33126242616090      1.63764291233150     -1.00167120006742
  H   1.89489041592414      1.85651271402775      0.53643245256327
  N   1.00393681270036     -1.08029896699642     -0.46939595388864
  O   1.20711896676180     -2.11365942781338      0.16300966083396
  O   0.93362751540553     -0.98329326918940     -1.69127678355870
  C   -1.64692066001840     -0.61554382627939      0.58647336618124
  H   -2.68885148699049     -0.29127538879425      0.55458915331493
  H   -1.54853967416971     -1.47760697349499     -0.07599499494503
  H   -1.42714394040295     -0.94886429278167      1.60375905914741
