17

C	0.0	0.0	0.0
C	-0.412488	-0.008025	-1.524759
F	1.37464	0.0	0.0
H	0.548805	0.174868	-2.021983
N	-0.524375	1.146244	0.665812
H	-1.552496	0.955341	0.581698
H	-0.275346	1.082327	1.648869
C	-0.350714	-1.264061	0.711814
N	-0.494987	-2.231595	1.363437
N	-1.341149	1.027387	-1.938991
H	-2.192753	0.806005	-1.400923
H	-0.998002	1.908323	-1.567233
C	-0.962283	-1.359099	-1.962421
H	-1.168469	-1.317793	-3.034748
H	-0.261944	-2.175409	-1.763683
H	-1.892351	-1.521491	-1.415774
F	-2.80807	0.0	0.0
