17

C	0.0	0.0	0.0
C	-0.502145	0.218306	-1.456738
F	1.390691	0.0	0.0
H	-1.149701	1.099313	-1.395647
N	-0.52045	1.024684	0.838988
H	-1.550698	0.869344	0.695278
H	-0.300547	0.794553	1.803813
C	-0.321968	-1.369269	0.512797
N	-0.460437	-2.371169	1.110039
N	-1.250867	-0.956566	-1.898964
H	-2.082619	-0.908855	-1.285317
H	-1.569085	-0.769835	-2.846898
C	0.6486	0.500395	-2.411403
H	0.241539	0.740197	-3.399575
H	1.256853	1.342425	-2.077581
H	1.283788	-0.381161	-2.508163
F	-2.794368	0.0	0.0
