17

C	0.0	0.0	0.0
C	-0.410375	-0.037032	-1.488649
F	1.408617	0.0	0.0
H	-1.502951	-0.036368	-1.431008
N	-0.532518	1.056454	0.789852
H	-0.347536	1.925857	0.29929
H	-1.567106	0.835446	0.670274
C	-0.37727	-1.289934	0.636859
N	-0.541478	-2.333759	1.14736
N	0.052363	-1.243923	-2.180973
H	1.015135	-1.4205	-1.912648
H	-0.492691	-2.030571	-1.845744
C	0.109747	1.185135	-2.234049
H	-0.21927	1.121354	-3.2723
H	-0.272221	2.117837	-1.813966
H	1.202829	1.219011	-2.222192
F	-2.744732	0.0	0.0
