16
Coordinates from ORCA-job run
  C   0.46567622118062     -0.10152229253167     -0.34388817699828
  C   -0.61851877511499     -0.26920675157480      0.71156822157437
  F   0.31689891279702     -1.13924280502625     -1.27497168909423
  H   -0.44054922244005     -1.22750595331346      1.20884099031017
  H   -0.48609824701417      0.50921536463403      1.47255906287933
  C   1.86512540510175     -0.26665464356054      0.22663911882155
  H   1.97507540854049     -1.24012878372435      0.70918274000208
  H   2.07578613296857      0.51808975457769      0.95682075670074
  H   2.59838298357363     -0.20028671805062     -0.58124173766673
  N   0.25475998711598      1.12172363099826     -1.07715386664086
  H   0.13879531285314      1.90021271936430     -0.44118828181282
  H   1.04652974764261      1.31304198545611     -1.67970436190133
  C   -2.03086474904165     -0.23201696808538      0.13834564002407
  H   -2.76765127412302     -0.41787155319732      0.92337637900649
  H   -2.14343192462721     -0.99918473041125     -0.62808195744442
  H   -2.24891591941274      0.73133774444524     -0.32210283776014
