16
Coordinates from ORCA-job run
  C   0.56194197120528     -0.09755995518878     -0.50992900981072
  C   -0.78938846779030     -0.74348459849622     -0.24689235727484
  F   1.21991070075493     -0.96665308396620     -1.42926764346557
  H   -0.60444760780155     -1.77816115926987      0.05563087936206
  H   -1.31809016231965     -0.79212239847491     -1.20609253022278
  C   1.46381104404097     -0.02441925657392      0.70407150373584
  H   2.45639992332139      0.31521062349976      0.39798484588070
  H   1.06741413471544      0.67095482230642      1.44318976727370
  H   1.56914004910057     -1.01349458875891      1.15242924914059
  N   0.39524577741528      1.19436520005285     -1.08405911930449
  H   1.29553716291987      1.61284655484765     -1.28430089676125
  H   -0.12611583282375      1.12646668132021     -1.95017585667957
  C   -1.63433135204696     -0.01347490256026      0.79066240471894
  H   -1.75110003114690      1.03694415228893      0.52220133586254
  H   -2.62651920860819     -0.46466015032931      0.86347721550109
  H   -1.17940810093643     -0.06275794069744      1.78207021204374
