16
Coordinates from ORCA-job run
  C   0.50478077271237     -0.06664398265019     -0.53073051829737
  C   -0.95267310489070      0.23716484928304     -0.19255946333801
  F   0.51141504479127     -1.37685942239911     -1.03983222606523
  H   -1.01298297127647      1.28409262338361      0.12465272348106
  H   -1.51352763795733      0.15568280819713     -1.13138717680888
  C   1.43296761147459     -0.05456333978749      0.66652939638855
  H   1.37749840828518      0.89901112691556      1.19824371269718
  H   1.17006285214733     -0.85575517606932      1.35608522293367
  H   2.45530396907351     -0.21655880006131      0.32147282429466
  N   1.04443018785440      0.77599908397485     -1.56364339284092
  H   0.33477312649298      1.02126924833844     -2.24292763578038
  H   1.43707563135483      1.62303940318445     -1.17693622973698
  C   -1.57415275700380     -0.68057651061858      0.85456542290237
  H   -1.12994160331763     -0.52892318814799      1.84042184957282
  H   -1.43689570291470     -1.72509279061267      0.57188000645961
  H   -2.64613382682584     -0.49128593293041      0.94516548413784
