16
Coordinates from ORCA-job run
  C   0.43269800725061     -0.04994725802885     -0.55588585365325
  C   -0.99581206545729      0.27058105375979     -0.13612199752962
  F   0.43410701480825     -1.36238270883876     -1.06064120882866
  H   -1.01987393659091      1.29196092987903      0.26170687678006
  H   -1.59258530279049      0.26335659983101     -1.05313761015367
  C   1.42988792172774     -0.06094125581404      0.59088519935955
  H   2.42079860012329     -0.30933112575227      0.20179736173408
  H   1.16852343183041     -0.80884316150503      1.34045067979107
  H   1.47632496307034      0.92193788085031      1.06578187442775
  N   0.79887743791013      0.80909934264355     -1.64840731947749
  H   1.80317584265024      0.85021371554756     -1.76662867340967
  H   0.44213158232624      1.74512716132806     -1.51696287688847
  C   -1.58275890873093     -0.70372545230284      0.87770761486638
  H   -1.47632428503487     -1.72931209749345      0.52278789966984
  H   -2.64629870914708     -0.50419978484998      1.02500423708286
  H   -1.09587159394568     -0.62359383925409      1.85166379622923
