16
Coordinates from ORCA-job run
  C   0.62690592705135     -0.18494618855622     -0.55161902298309
  C   -0.74949646621283     -0.77131672924681     -0.25043469902306
  F   1.22549537071232     -1.11556199811486     -1.41778014160776
  H   -0.61051674138504     -1.77842061855735      0.15455555408221
  H   -1.25767836507906     -0.89179760197279     -1.21438035904199
  C   1.52936822852431     -0.07901991301393      0.66073647766577
  H   2.51520549243273      0.25365916125460      0.33302622947086
  H   1.14124095564575      0.62948027331327      1.39514192394047
  H   1.62855418014850     -1.05655276194615      1.13453469296557
  N   0.60457116348152      1.07030313709490     -1.24888154500583
  H   0.58822388161055      1.85618000044532     -0.61571683169277
  H   -0.17932116964806      1.13255300060668     -1.88574049509233
  C   -1.59673026620230      0.07277956132717      0.69460481311232
  H   -2.59672831253033     -0.35315974875443      0.79917674280701
  H   -1.71139788046849      1.09281304758139      0.32065405549917
  H   -1.15769599808091      0.12400737853922      1.69312260490346
