18

C	-0.566938	-0.008662	-1.428945
C	0.0	0.0	0.0
Cl	0.126203	-1.31559	-2.415812
H	1.087985	0.0	0.0
C	-2.073696	-0.06769	-1.509243
H	-2.391898	0.000285	-2.549227
H	-2.422215	-1.009891	-1.087546
H	-2.503706	0.767873	-0.958616
N	-0.08904	1.303514	-2.069802
O	-0.956515	2.089456	-2.447819
O	1.11702	1.472697	-2.154007
N	-0.456921	-1.252471	0.672381
O	0.194723	-2.275881	0.475846
O	-1.452552	-1.189073	1.415009
N	-0.449103	1.179478	0.671348
H	0.303512	1.470332	1.289089
H	-1.283364	0.987656	1.212284
H	2.658417	0.0	0.0
