18

C	-0.570282	-0.009128	-1.426214
C	0.0	0.0	0.0
Cl	0.117901	-1.300486	-2.434884
H	1.087931	0.0	0.0
C	-2.078199	-0.067836	-1.49298
H	-2.420719	-1.015002	-1.076592
H	-2.502128	0.76259	-0.930433
H	-2.407101	0.008454	-2.529228
N	-0.096596	1.315322	-2.048401
O	1.107679	1.464927	-2.181707
O	-0.96398	2.13023	-2.356733
N	-0.448047	-1.243466	0.689499
O	-1.390451	-1.162421	1.49583
O	0.156848	-2.285251	0.439316
N	-0.437901	1.187737	0.660624
H	0.314377	1.483521	1.274295
H	-1.268693	1.011826	1.209013
H	2.63909	0.0	0.0
