18

C	-0.467005	0.024069	-1.445954
C	0.0	0.0	0.0
Cl	0.325733	1.407451	-2.223638
H	1.094673	0.0	0.0
C	-0.221095	-1.203397	-2.299216
H	-0.798387	-2.047058	-1.927629
H	-0.499044	-0.977054	-3.331073
H	0.839754	-1.44752	-2.240005
N	-1.987048	0.274519	-1.473164
O	-2.619506	-0.361819	-0.632501
O	-2.481443	0.991618	-2.331242
N	-0.320026	-1.262761	0.706558
O	0.069209	-2.316118	0.192309
O	-0.824716	-1.195612	1.83461
N	-0.447502	1.158664	0.704228
H	-1.235369	0.915664	1.295245
H	0.316359	1.467927	1.295705
H	2.540416	0.0	0.0
