18

C	-0.573565	0.111971	-1.399358
C	0.0	0.0	0.0
Cl	-2.371232	0.158518	-1.334367
H	1.092387	0.0	0.0
C	-0.056238	1.372638	-2.060145
H	-0.368286	1.40484	-3.10685
H	-0.452187	2.230586	-1.522282
H	1.033916	1.367976	-1.983855
N	-0.154771	-1.05715	-2.300784
O	1.043147	-1.075841	-2.555243
O	-0.995025	-1.834024	-2.733196
N	-0.390191	-1.272535	0.643817
O	-0.223345	-2.305534	-0.011443
O	-0.756318	-1.249132	1.826326
N	-0.338998	1.152454	0.770883
H	0.442125	1.324676	1.398059
H	-1.168216	0.979901	1.324832
H	2.530392	0.0	0.0
