16

C	-0.493151	-0.008388	-1.418233
C	0.0	0.0	0.0
Br	0.477352	1.263169	-2.490936
H	1.095063	0.0	0.0
N	-0.337974	-1.359366	-2.089172
O	-0.982802	-1.534659	-3.118418
O	0.46556	-2.133903	-1.583043
N	-1.998853	0.283208	-1.4861
O	-2.684456	-0.617229	-1.004004
O	-2.40246	1.351354	-1.917418
C	-0.463496	-1.126195	0.787619
N	-0.785984	-1.986321	1.524521
N	-0.316786	1.291923	0.600994
H	-1.014415	1.201946	1.327404
H	0.55142	1.632112	1.011671
H	2.476953	0.0	0.0
