16

C	-0.524403	0.017878	-1.406894
C	0.0	0.0	0.0
Br	0.233777	-1.39945	-2.45336
H	1.094467	0.0	0.0
N	-2.063347	-0.074716	-1.517605
O	-2.539023	-0.230279	-2.633711
O	-2.691694	0.063173	-0.47378
N	-0.202115	1.380886	-2.031291
O	-1.121212	2.19114	-2.051528
O	0.948464	1.556604	-2.393711
C	-0.416824	-1.218516	0.679683
N	-0.723265	-2.177362	1.289575
N	-0.293919	1.236291	0.690574
H	-1.126102	1.179816	1.257149
H	0.520973	1.456515	1.256445
H	2.515404	0.0	0.0
