16

C	-0.533224	0.020361	-1.40269
C	0.0	0.0	0.0
Br	0.21755	-1.393721	-2.455475
H	1.094432	0.0	0.0
N	-2.073782	-0.064945	-1.500864
O	-2.561021	-0.221949	-2.611378
O	-2.691314	0.075717	-0.450969
N	-0.20816	1.382774	-2.027098
O	-1.125978	2.194143	-2.053541
O	0.943468	1.556839	-2.382967
C	-0.416461	-1.217693	0.682339
N	-0.730015	-2.173366	1.29432
N	-0.288936	1.236682	0.692328
H	0.533858	1.460622	1.248535
H	-1.115323	1.177004	1.270085
H	2.516621	0.0	0.0
