16

C	-0.53378	0.101598	-1.390197
C	0.0	0.0	0.0
Br	-2.499819	0.214269	-1.515095
H	1.091285	0.0	0.0
N	0.031952	1.305484	-2.131336
O	0.846961	1.999265	-1.540226
O	-0.345673	1.43433	-3.292669
N	-0.026174	-1.097755	-2.187033
O	1.115483	-0.955939	-2.618758
O	-0.725713	-2.100015	-2.250941
C	-0.417257	-1.253583	0.60817
N	-0.718416	-2.232667	1.188186
N	-0.363832	1.169827	0.781541
H	-1.05341	0.94325	1.481713
H	0.489101	1.493224	1.229465
H	2.480329	0.0	0.0
