16

C	-0.315143	-0.101744	-1.469728
C	0.0	0.0	0.0
F	0.165842	0.953383	-2.133237
H	1.095143	0.0	0.0
N	0.213409	-1.348972	-2.156134
O	0.209749	-1.295802	-3.380651
O	0.564084	-2.286304	-1.455973
N	-1.816357	-0.133652	-1.732845
O	-2.377992	0.958635	-1.791194
O	-2.35184	-1.236061	-1.769855
C	-0.613743	-1.063453	0.774586
N	-1.109878	-1.891905	1.446467
N	-0.333266	1.309272	0.548532
H	-1.149955	1.726504	0.1182
H	0.473715	1.899285	0.387539
F	2.475163	0.0	0.0
