16

C	-0.410291	-0.001514	-1.442007
C	0.0	0.0	0.0
F	0.211927	0.958236	-2.12189
H	1.098308	0.0	0.0
N	-0.147654	-1.303947	-2.184826
O	-0.421487	-1.271013	-3.382009
O	0.313054	-2.249531	-1.562182
N	-1.909963	0.216705	-1.62827
O	-2.28897	1.286383	-2.08141
O	-2.612935	-0.717269	-1.249919
C	-0.526658	-1.096867	0.78751
N	-0.923673	-1.916383	1.533355
N	-0.357189	1.314974	0.543814
H	0.484717	1.680461	0.973088
H	-1.084413	1.247061	1.24307
F	2.481929	0.0	0.0
