16

C	-0.391254	-0.034757	-1.443011
C	0.0	0.0	0.0
F	0.147191	0.971465	-2.123945
H	1.101689	0.0	0.0
N	0.001852	-1.330402	-2.136385
O	-0.633028	-2.319405	-1.781348
O	0.88764	-1.277113	-2.975314
N	-1.905002	0.052247	-1.705325
O	-2.230763	0.197492	-2.879583
O	-2.659912	-0.015048	-0.743125
C	-0.463441	-1.133734	0.780169
N	-0.795913	-1.986716	1.519533
N	-0.391456	1.297144	0.540115
H	0.403745	1.651069	1.056558
H	-1.195751	1.22124	1.147278
F	2.481977	0.0	0.0
