16

C	-0.488373	-0.105898	-1.412068
C	0.0	0.0	0.0
F	-1.793829	-0.445701	-1.55138
H	1.09958	0.0	0.0
N	-0.277967	1.218842	-2.117984
O	-1.275435	1.784071	-2.544409
O	0.879407	1.594747	-2.185574
N	0.263634	-1.150145	-2.222835
O	0.404529	-0.929774	-3.421701
O	0.575562	-2.167864	-1.620229
C	-0.49083	-1.103529	0.807613
N	-0.903351	-1.931186	1.535103
N	-0.374036	1.311382	0.53758
H	-1.14241	1.250885	1.191073
H	0.447359	1.66194	1.015344
F	2.479883	0.0	0.0
