16

C	-0.417079	-0.043015	-1.434764
C	0.0	0.0	0.0
F	-0.213405	-1.249398	-1.983204
H	1.106117	0.0	0.0
N	-1.896023	0.266173	-1.705112
O	-2.641148	0.38428	-0.738866
O	-2.223065	0.307956	-2.887525
N	0.330165	0.983839	-2.273201
O	1.249518	0.562998	-2.956664
O	-0.066383	2.138636	-2.181338
C	-0.493603	-1.178213	0.69836
N	-0.876332	-2.0951	1.329644
N	-0.32065	1.268527	0.62401
H	-1.184137	1.24027	1.146329
H	0.455945	1.512484	1.224177
F	2.475527	0.0	0.0
