16

C	-0.414319	-0.103995	-1.431783
C	0.0	0.0	0.0
F	0.145394	0.842681	-2.175857
H	1.102482	0.0	0.0
N	-0.074554	-1.449982	-2.056967
O	0.815334	-1.476788	-2.891447
O	-0.748798	-2.394396	-1.654567
N	-1.929633	0.01789	-1.669054
O	-2.670277	-0.070828	-0.697863
O	-2.271596	0.195774	-2.833907
C	-0.451048	-1.087533	0.848574
N	-0.755451	-1.896862	1.646916
N	-0.38245	1.327684	0.477111
H	0.424504	1.696325	0.964943
H	-1.167734	1.277871	1.112846
F	2.482739	0.0	0.0
