16

C	-0.282355	-0.039558	-1.480851
C	0.0	0.0	0.0
F	0.173903	1.065566	-2.079352
H	1.09447	0.0	0.0
N	0.318024	-1.232529	-2.208529
O	0.401023	-1.108051	-3.427353
O	0.630261	-2.205286	-1.539411
N	-1.774471	-0.117164	-1.78649
O	-2.267875	-1.234897	-1.904776
O	-2.375446	0.955173	-1.790964
C	-0.611874	-1.107898	0.710488
N	-1.130012	-1.959036	1.336074
N	-0.358818	1.273271	0.605551
H	-1.202916	1.671841	0.210124
H	0.422559	1.899792	0.449813
F	2.477086	0.0	0.0
