16

C	-0.56872	-0.017301	-1.382412
C	0.0	0.0	0.0
F	-1.920776	-0.066798	-1.426643
H	1.090771	0.0	0.0
N	-0.136933	1.225881	-2.139905
O	1.040077	1.245951	-2.469986
O	-0.986444	2.079183	-2.342598
N	-0.092063	-1.178743	-2.23666
O	0.623387	-2.023629	-1.715044
O	-0.511133	-1.173691	-3.391752
C	-0.504708	-1.138473	0.755364
N	-0.945679	-2.000738	1.423313
N	-0.329677	1.291385	0.602166
H	-1.148618	1.251939	1.193656
H	0.478686	1.563918	1.147761
F	2.48065	0.0	0.0
