18

C	0.0	0.0	0.0
C	-0.403136	0.078805	-1.476883
F	1.367989	0.0	0.0
H	0.12141	-0.74902	-1.964149
C	-0.585948	1.044151	0.898544
H	-0.168493	0.948481	1.899554
H	-1.671835	0.918679	0.946693
H	-0.349721	2.0305	0.494498
N	-0.332908	-1.405834	0.529291
O	-0.291706	-2.33037	-0.277532
O	-0.505763	-1.519416	1.738029
C	0.158711	1.321302	-2.016261
N	0.590811	2.316424	-2.466586
C	-1.900434	-0.01651	-1.757128
H	-2.318597	-0.942649	-1.368487
H	-2.472084	0.785643	-1.296329
H	-2.064447	0.013274	-2.836872
Br	-4.819762	0.0	0.0
