15

C	0.0	0.0	0.0
C	-0.410683	0.359238	-1.499083
Br	1.956337	0.0	0.0
H	0.51911	0.637434	-2.0042
H	-0.329811	0.785611	0.673689
C	-0.444336	-1.291746	0.504949
N	-0.631217	-2.375197	0.921287
N	-1.324994	1.476967	-1.598907
H	-2.107547	1.153735	-0.9895
H	-0.891283	2.291428	-1.173226
C	-1.007772	-0.850806	-2.201423
H	-1.945772	-1.071384	-1.691498
H	-0.33893	-1.716174	-2.16409
H	-1.195303	-0.58836	-3.24573
F	-2.625329	0.0	0.0
