15

C	0.0	0.0	0.0
C	-0.410346	-0.046436	-1.539679
Br	1.959486	0.0	0.0
H	0.520459	0.087337	-2.100101
H	-0.333429	0.932264	0.446723
C	-0.437228	-1.116789	0.824814
N	-0.648951	-2.038885	1.522182
N	-1.317309	1.013113	-1.929681
H	-0.868629	1.903325	-1.734494
H	-2.096564	0.870913	-1.252693
C	-1.007748	-1.39613	-1.904193
H	-1.938474	-1.491598	-1.343074
H	-1.208854	-1.407062	-2.978227
H	-0.329605	-2.220457	-1.660625
F	-2.614545	0.0	0.0
