15

C	0.0	0.0	0.0
C	-0.477526	0.194486	-1.464482
Br	1.95802	0.0	0.0
H	-1.565714	0.250225	-1.27015
H	-0.349207	0.819382	0.62218
C	-0.442408	-1.273602	0.556041
N	-0.605093	-2.356189	0.984965
N	-0.200106	-0.933246	-2.339513
H	-0.764778	-1.717659	-2.031883
H	0.775985	-1.207759	-2.26479
C	0.045664	1.482921	-2.074042
H	-0.118142	2.329522	-1.399738
H	-0.500304	1.667595	-3.002378
H	1.113062	1.434049	-2.312217
F	-2.592939	0.0	0.0
