15

C	0.0	0.0	0.0
C	-0.430068	0.002617	-1.50617
Br	1.963855	0.0	0.0
H	0.484	0.116151	-2.095325
H	-0.324628	0.929158	0.460166
C	-0.438714	-1.141635	0.791096
N	-0.624012	-2.100646	1.444015
N	-1.23802	1.202352	-1.709041
H	-2.07249	0.978323	-1.122957
H	-1.515774	1.218007	-2.687253
C	-1.109995	-1.304359	-1.91537
H	-1.307001	-1.275306	-2.994685
H	-0.485961	-2.182475	-1.710695
H	-2.044628	-1.353981	-1.354397
F	-2.688446	0.0	0.0
