19

C	0.0	0.0	0.0
C	-0.340191	-0.25776	-1.476595
Br	2.098364	0.0	0.0
H	0.240711	0.466129	-2.06551
C	-0.373572	1.376997	0.503378
H	-1.463102	1.433056	0.576636
H	-0.002611	2.149544	-0.17201
H	0.057271	1.553052	1.49172
N	-0.512293	-1.007072	0.786025
H	-0.336134	-0.939156	1.774836
H	-0.377534	-1.924609	0.38341
C	-1.825077	-0.048431	-1.734906
H	-2.123284	0.989636	-1.589062
H	-2.05732	-0.307297	-2.773062
H	-2.457093	-0.640575	-1.073954
N	0.02288	-1.643465	-1.788615
H	1.015721	-1.702993	-1.976436
H	-0.485209	-1.946997	-2.609258
Br	-5.060552	0.0	0.0
