19

C	0.0	0.0	0.0
C	-0.529227	0.235939	-1.424533
Br	1.96806	0.0	0.0
H	-1.594968	-0.014461	-1.330845
C	-0.434591	1.108601	0.946877
H	-0.096401	0.883553	1.962486
H	-1.529652	1.132649	0.933622
H	-0.025255	2.073045	0.645068
N	-0.445413	-1.318425	0.402493
H	-1.467594	-1.292517	0.361089
H	-0.189453	-1.472319	1.37262
C	0.098558	-0.677246	-2.462591
H	0.178985	-1.691401	-2.071085
H	1.094673	-0.318305	-2.732585
H	-0.525702	-0.696111	-3.362366
N	-0.36599	1.640712	-1.818704
H	-0.453336	1.690888	-2.828038
H	-1.155914	2.157753	-1.444704
Br	-3.929914	0.0	0.0
