19

C	0.0	0.0	0.0
C	-0.328558	0.14986	-1.493719
Br	2.109776	0.0	0.0
H	0.271711	0.991677	-1.86631
C	-0.368846	1.194364	0.850752
H	-1.459399	1.241025	0.919653
H	0.019951	2.115639	0.414174
H	0.046464	1.090671	1.855608
N	-0.513331	-1.177629	0.483041
H	-0.368265	-1.378211	1.458734
H	-0.39678	-1.954551	-0.152509
C	-1.806929	0.452857	-1.702503
H	-2.023171	0.465261	-2.777019
H	-2.46617	-0.267264	-1.217858
H	-2.079146	1.432626	-1.311085
N	0.017662	-1.110957	-2.157503
H	-0.484299	-1.178726	-3.033362
H	1.012321	-1.134132	-2.347566
Br	-5.0398	0.0	0.0
