19

C	0.0	0.0	0.0
C	-0.473032	0.065606	-1.452081
Br	2.068781	0.0	0.0
H	-1.555834	0.208642	-1.322992
C	-0.43124	1.218501	0.782679
H	-1.52715	1.20176	0.799323
H	-0.07601	2.121861	0.29249
H	-0.044365	1.177093	1.804709
N	-0.449776	-1.170525	0.619409
H	-0.078101	-2.0215	0.226989
H	-0.348642	-1.155902	1.623366
C	-0.258616	-1.231015	-2.228294
H	-0.854387	-2.04572	-1.810763
H	0.799918	-1.512658	-2.243457
H	-0.589727	-1.086275	-3.260359
N	0.067752	1.254926	-2.106766
H	-0.512717	1.470158	-2.908589
H	1.006773	1.059538	-2.438264
Br	-4.082117	0.0	0.0
