12
Coordinates from ORCA-job run
  C   -0.31327566502827     -0.02622327245399      0.69335157191739
  C   0.31478167670738      0.07223612886289     -0.67372827368458
  F   0.20274653238106      0.91004496147581      1.51814068678161
  H   -0.14987254559859     -0.63283643937546     -1.36242461407446
  H   -0.20797959752117     -1.01516306023866      1.13640665447144
  H   0.26629809655635      1.09094986803985     -1.05576566439423
  N   -1.79909782198643      0.21688894883759      0.52940360313853
  O   -2.38109173542416     -0.65264361443504     -0.11115732577652
  O   -2.27838278707127      1.22397422091827      1.02611426094870
  N   1.76212659988729     -0.29638215674276     -0.58114637372513
  O   2.55488989716480      0.40414038126525     -1.19923297425213
  O   2.03185734993303     -1.29498596615377      0.08003844864938
