12
Coordinates from ORCA-job run
  C   -0.52473204488811     -0.55315392476731      0.54992154238994
  C   0.31484948857128     -0.57040512118659     -0.70193139190844
  F   0.23605696963074     -0.76070314099142      1.64608315824762
  H   -0.27944877666586     -0.26272767221823     -1.56170034842474
  H   -1.30750402218559     -1.31364234364141      0.49664592487306
  H   0.74059581665176     -1.55912240255346     -0.86304719088458
  N   -1.27305448588287      0.75833738217417      0.69738964820329
  O   -1.19519360371375      1.34994886176299      1.75861763071290
  O   -1.94212600189384      1.05919929328011     -0.28437397657046
  N   1.46458739855897      0.37952914520358     -0.59501424086186
  O   2.53175527588010      0.00887392733589     -1.06978207393975
  O   1.23321398593717      1.46586599560168     -0.07380868183699
