12
Coordinates from ORCA-job run
  C   -0.57332375135506     -0.45642864938365      0.58934812063154
  C   0.42394447696935     -0.68502239218956     -0.51762147950014
  F   0.04234295804990     -0.38310000738454      1.78887933082218
  H   0.90133617370787     -1.65699941917842     -0.40726502123054
  H   -1.31609959460422     -1.25768061966462      0.60602538708011
  H   -0.06269618550244     -0.60413274899482     -1.48906388570043
  N   -1.37799866293919      0.80863894944302      0.35819409487481
  O   -1.91877285893125      0.85723780487109     -0.74058845810672
  O   -1.46393160196631      1.61117352018470      1.26971618675852
  N   1.51599013345526      0.33555562607772     -0.48264580732781
  O   2.64644677448727     -0.05870491392649     -0.74394977226651
  O   1.18276213862882      1.48946285014556     -0.23202869603501
