13
Coordinates from ORCA-job run
  C   -0.63127456052406     -0.02003351854908      0.14466400402238
  C   0.73829348282342     -0.32578411341203     -0.42321458521972
  F   -1.56761916282374      0.00817375365301     -0.83731268056246
  H   0.68820138342029     -1.21942901133953     -1.04320791303857
  H   1.47230471180104     -0.47927098671279      0.36832801286853
  N   -1.04967586456285     -1.19983581303147      1.05123342217423
  O   -0.56207271233016     -2.29005940954871      0.77670927693381
  O   -1.89009647444529     -0.95367710328389      1.90396629148535
  C   -0.67497671214226      1.19617417061433      0.95522626574349
  N   -0.66785457186988      2.14970544780447      1.64113200250445
  N   1.24920561559106      0.78272624810396     -1.29395350471189
  O   2.36029451892631      0.58634763922585     -1.76872367883328
  O   0.53427034613612      1.76296269647585     -1.47484691336632
