13
Coordinates from ORCA-job run
  C   -0.57536971091934      0.16459674206382      0.26204256287842
  C   0.49959649979829     -0.35728731283899     -0.66791143007264
  F   -1.43664639167591      0.97755891304890     -0.39993517005583
  H   0.03836388095858     -0.77726127384765     -1.56045471800381
  H   1.10771682741402     -1.12146495798027     -0.18272785038969
  N   -1.43391673711350     -1.04093026984686      0.70760231148470
  O   -1.94248942215576     -0.97689891950595      1.81768972919728
  O   -1.58821785922794     -1.91750913690331     -0.13452207264216
  C   -0.04961241031335      0.81217895674909      1.46275473380109
  N   0.40450420249828      1.28873578192211      2.43557925453870
  N   1.43067892916099      0.72529089609183     -1.12405773901805
  O   2.34884806700472      0.34126612161483     -1.83661384925141
  O   1.19854412457093      1.87972445943244     -0.78044576246659
