13
Coordinates from ORCA-job run
  C   -0.62051253711941      0.08657870584375      0.18474913845763
  C   0.67568190042551     -0.35004849019471     -0.47065484443867
  F   -1.52072521957685      0.44828536439959     -0.74837783314469
  H   0.48091300608761     -1.18750319095156     -1.14158592182781
  H   1.41848713842138     -0.62990567154403      0.27637432324755
  N   -1.15440470080853     -1.18121388974643      0.89298653641902
  O   -2.19307090084074     -1.65542030934466      0.46979256154922
  O   -0.44127287024963     -1.58844646241406      1.79962987604812
  C   -0.48804808031901      1.11528743389534      1.21573792037983
  N   -0.42134257738304      1.93622348480551      2.05340572750618
  N   1.26569158657123      0.74112171091573     -1.30975184989960
  O   0.97428588830345      1.89826163113128     -1.02824888977511
  O   2.02431736648807      0.36777968320427     -2.19505674452171
