13
Coordinates from ORCA-job run
  C   -0.63621162381182      0.09075392399810      0.11957108564742
  C   0.71707583625539     -0.35344176872044     -0.40122893208245
  F   -1.43969807192332      0.44382739186719     -0.90111062563539
  H   1.38263735687170     -0.62478895113832      0.41825390138907
  H   0.58918331936135     -1.19765011185919     -1.07965323732770
  N   -1.24034365904831     -1.16885476852785      0.78503755762555
  O   -0.61735820130334     -1.57212570237168      1.75744142627014
  O   -2.23764656593151     -1.64159480065666      0.27037048758903
  C   -0.60087028080565      1.12899387477569      1.14900679233083
  N   -0.60268519518548      1.92818185426488      2.01008777423834
  N   1.38652225716602      0.72991870193561     -1.18913141350418
  O   2.22010737976938      0.34887480067326     -2.00080380790159
  O   1.07828744858561      1.88990555575938     -0.93884100863906
