13
Coordinates from ORCA-job run
  C   -0.76841756117478      0.18259850153233      0.16922706036629
  C   0.13184841590149      0.11181557843283     -1.04580870313310
  F   -2.05164195372321      0.27914187905427     -0.29041880535060
  H   -0.11496366631801     -0.77709815795266     -1.62592903157589
  H   0.00501341815734      1.00738081091772     -1.65375040566120
  N   -0.72747169467013     -1.13043348828354      0.96045227210840
  O   -0.82869716201965     -1.05051475458871      2.17495701667042
  O   -0.67973877097665     -2.14230333647526      0.27488761228639
  C   -0.47340284206574      1.30562542762073      1.05653216322843
  N   -0.25980737051306      2.26485676044826      1.70009188716707
  N   1.56948586774863      0.01565104786176     -0.66371528182355
  O   1.81783171613579     -0.28840796977945      0.50168904973593
  O   2.37896160351802      0.22068770121182     -1.55721483401861
