13
Coordinates from ORCA-job run
  C   -0.61652840058866      0.10450862164219      0.18971638894007
  C   0.65743880912023     -0.35144789082096     -0.49500079976256
  F   -1.50180628209376      0.55662894860198     -0.71804927341431
  H   0.42599407358483     -1.14109862892211     -1.21071173649330
  H   1.38913960092594     -0.70417574454097      0.23183192207102
  N   -1.20564973056466     -1.17498444622885      0.83007238696068
  O   -0.50713510957338     -1.66793110274865      1.70484869407237
  O   -2.27133099792105     -1.57075936385049      0.39344966221852
  C   -0.43355825459426      1.06751824638147      1.27511410395289
  N   -0.31102329362261      1.80635947874766      2.18023895772516
  N   1.29144643391065      0.75959526388500     -1.27391337134291
  O   2.02815644391406      0.40585742060713     -2.18542774639419
  O   1.05285670750265      1.90992919724649     -0.92316918853348
