13
Coordinates from ORCA-job run
  C   -0.60695098774021      0.11443705629387      0.21203714992350
  C   0.63526914560152     -0.36354270903364     -0.51511236188288
  F   -1.51940921722489      0.56995437206988     -0.66679330718336
  H   0.36682558797458     -1.15688767294703     -1.21360357585418
  H   1.38990145456000     -0.71781267079154      0.18707792907616
  N   -1.18752100544816     -1.15212298010607      0.88493121320072
  O   -2.27342719689157     -1.53843510530511      0.49201639782092
  O   -0.46199994190039     -1.64694125504548      1.73639284044466
  C   -0.37289536281675      1.08414282565965      1.28141955592516
  N   -0.21322602038961      1.82902412509431      2.17573198444428
  N   1.25226306234440      0.73177800484680     -1.32903196878298
  O   1.04506835954865      1.88829591960444     -0.97865737398412
  O   1.94510212238245      0.36011008965993     -2.26740848314788
