13
Coordinates from ORCA-job run
  C   -0.69596639756493      0.14265801394983      0.08469143201304
  C   0.69151143637691      0.61310470595618     -0.30402748888099
  F   -1.44383481048278     -0.10393061973458     -1.00926844426099
  H   1.33185503419909      0.67231066147398      0.57599499370413
  H   0.63318393331715      1.57792377368353     -0.80577895563655
  N   -0.61874570820907     -1.15010334488998      0.92505813631875
  O   0.14276600636514     -1.07605424838982      1.87756582891122
  O   -1.33454394268393     -2.07153818773451      0.58799354812474
  C   -1.34386798700570      1.14489902265425      0.93639775643524
  N   -1.84409834135371      1.97193231592435      1.60458447544330
  N   1.32781112148113     -0.34116514521330     -1.26425052709976
  O   2.02878225407092      0.15463960668513     -2.13703746220309
  O   1.12514740148977     -1.53567655436505     -1.07192329286904
