13
Coordinates from ORCA-job run
  C   -0.81269813425981      0.15812229020342      0.13042668775105
  C   0.15317208429557      0.23446953067546     -1.04191390423164
  F   -2.06925017892725      0.23797099876610     -0.37151732636581
  H   0.05512043167221      1.20466967792158     -1.52646782610700
  H   -0.06696492887841     -0.58870824559344     -1.72102203309105
  N   -0.66579702688603     -1.22795432847385      0.78100854703191
  O   -1.20493939819242     -2.13822829698302      0.17371312823032
  O   0.00676163857430     -1.28349064549731      1.80073621034628
  C   -0.60555894761210      1.18848614817241      1.14552856627484
  N   -0.47944583700970      2.05972742351528      1.92374618810231
  N   1.55556361743967      0.08985331082542     -0.55779038173775
  O   1.98248365812832     -1.05851870095874     -0.46430196113314
  O   2.15055302165563      1.12560083742665     -0.27314589507029
