13
Coordinates from ORCA-job run
  C   -0.76912636088556      0.13347807581562      0.20692267276911
  C   0.12106309656478      0.31860129303515     -1.00338993011996
  F   -2.05769290035943      0.30024123017518     -0.21654488505698
  H   -0.11863805223947     -0.44134116927176     -1.74678659658605
  H   -0.02353837186569      1.31483817517060     -1.42085811718421
  N   -0.70420009630639     -1.30931730565989      0.72179154431759
  O   -0.64620623297080     -2.16482483888564     -0.15050141485328
  O   -0.79929421023119     -1.47277000888188      1.92842851747468
  C   -0.48087236836075      1.06264449925114      1.29744369735918
  N   -0.27138775668174      1.88156337846649      2.11313245278803
  N   1.56316216961353      0.17033868736411     -0.65663252328571
  O   1.82601934479881     -0.35595451986927      0.42325863530210
  O   2.36171173892394      0.56150250329021     -1.49626405292448
