13
Coordinates from ORCA-job run
  C   -0.68758909514083      0.01615225307864      0.20121258727481
  C   0.42293905302652      0.54509532592368     -0.68465586013559
  F   -1.47943393113840     -0.83672036388301     -0.47898350495621
  H   0.00480730290104      1.15340767791876     -1.48540839305913
  H   1.13787915196581      1.11875796694126     -0.09503655300470
  N   -0.10518137425877     -0.72701818939323      1.42263576674786
  O   -0.55477582756754     -1.82880522912130      1.66502421164018
  O   0.73189779625470     -0.08490226059241      2.03888532785287
  C   -1.47219649325423      1.13211156435406      0.73834691987503
  N   -2.08057050400738      2.05264452064582      1.14233766594314
  N   1.16759540076537     -0.57848013979034     -1.33327128358878
  O   1.55433682374748     -0.38284876378156     -2.47827461667433
  O   1.35929169670623     -1.58039436230041     -0.65181226791519
