13
Coordinates from ORCA-job run
  C   -0.77040074770966      0.13005118571821      0.20703823818938
  C   0.11648001718465      0.31140295248371     -1.00630320434599
  F   -2.06076732079821      0.28322681530812     -0.21550794636078
  H   -0.11909320284485     -0.45672767905826     -1.74261389465259
  H   -0.03534667790561      1.30287046255914     -1.43243280506361
  N   -0.69321109547464     -1.30813367874645      0.73403131098645
  O   -0.63471693342849     -2.16993102487577     -0.13208384404466
  O   -0.77987289325141     -1.46282603424511      1.94235438669033
  C   -0.48705494067089      1.07046976591973      1.28914483452561
  N   -0.27895386627881      1.89538372906594      2.09916197980891
  N   1.56035203002903      0.17626219595186     -0.66096892382553
  O   2.35445228112839      0.56802213820517     -1.50456692175138
  O   1.82913335002047     -0.34107082828625      0.42174678984388
