18

C	-0.402919	-0.0058	-1.437365
C	0.0	0.0	0.0
F	0.21614	-0.966631	-2.142538
H	1.095717	0.0	0.0
N	-1.904092	-0.198178	-1.711213
O	-2.682086	0.127328	-0.820305
O	-2.216547	-0.661644	-2.804804
N	-0.091161	1.325734	-2.110412
O	1.07709	1.496328	-2.414816
O	-1.021217	2.10595	-2.279189
C	-0.428978	-1.282592	0.699705
H	-0.151307	-2.159697	0.107747
H	0.122773	-1.344146	1.641973
H	-1.50517	-1.315483	0.909763
N	-0.401343	1.247479	0.623598
H	0.34199	1.521463	1.254539
H	-1.276588	1.162719	1.126809
F	2.573993	0.0	0.0
