18

C	-0.405768	-0.020313	-1.444239
C	0.0	0.0	0.0
F	0.073325	1.045904	-2.094571
H	1.099246	0.0	0.0
N	0.045576	-1.233178	-2.255635
O	-0.109886	-1.121251	-3.471235
O	0.507137	-2.203802	-1.671127
N	-1.916111	-0.018775	-1.651397
O	-2.455611	1.022183	-1.997329
O	-2.477674	-1.082444	-1.387727
C	-0.55892	-1.09962	0.878424
H	-0.007459	-1.058226	1.821672
H	-0.416516	-2.088272	0.452818
H	-1.626831	-0.956129	1.082327
N	-0.433871	1.327226	0.487011
H	-0.798647	1.225385	1.428126
H	0.409481	1.888638	0.554502
F	2.591312	0.0	0.0
