18

C	-0.324019	0.059843	-1.466223
C	0.0	0.0	0.0
F	0.16826	-0.989188	-2.138964
H	1.094892	0.0	0.0
N	-1.825471	0.073479	-1.724329
O	-2.394327	1.143488	-1.502059
O	-2.367271	-0.985171	-2.019681
N	0.164514	1.297403	-2.218406
O	0.698538	2.207398	-1.601632
O	-0.025055	1.254064	-3.431789
C	-0.509783	-1.310753	0.579041
H	-1.602352	-1.328269	0.687885
H	-0.199652	-2.16772	-0.020978
H	-0.065016	-1.403909	1.570464
N	-0.45057	1.126841	0.799012
H	0.23302	1.86351	0.693415
H	-1.351345	1.481846	0.498948
F	2.571609	0.0	0.0
