18

C	-0.599375	-0.034274	-1.365505
C	0.0	0.0	0.0
F	-1.952078	-0.024276	-1.366321
H	1.093479	0.0	0.0
N	-0.17094	1.130102	-2.253233
O	0.826057	1.760288	-1.942936
O	-0.880076	1.308711	-3.243163
N	-0.17621	-1.268089	-2.147687
O	-0.950876	-2.220009	-2.131879
O	0.91884	-1.220877	-2.693605
C	-0.422506	-1.218615	0.808243
H	-0.05555	-2.145115	0.362409
H	0.050444	-1.128215	1.788554
H	-1.509312	-1.296723	0.934092
N	-0.442327	1.27216	0.587701
H	0.390035	1.706294	0.967216
H	-1.103617	1.112272	1.339925
F	2.584602	0.0	0.0
