15

C	-0.496349	-0.010021	-1.449489
C	0.0	0.0	0.0
Cl	-2.276588	0.27864	-1.545299
H	1.090898	0.0	0.0
C	0.154797	1.040874	-2.243542
N	0.6895	1.820785	-2.942024
C	-0.188867	-1.293094	-2.090334
N	0.087689	-2.302635	-2.62476
N	-0.4476	-1.187074	0.780432
O	0.076291	-1.301015	1.880692
O	-1.274564	-1.94858	0.281546
N	-0.487584	1.234327	0.691208
O	-1.22646	1.115311	1.661349
O	-0.102759	2.283112	0.188177
Br	3.221628	0.0	0.0
