15

C	-0.543489	0.002963	-1.424557
C	0.0	0.0	0.0
Cl	0.052837	-1.500396	-2.208558
H	1.09012	0.0	0.0
C	-2.004591	0.021285	-1.531072
N	-3.16963	0.02196	-1.688379
C	0.03053	1.146421	-2.142198
N	0.531345	2.040939	-2.71758
N	-0.465249	-1.205663	0.757365
O	0.395204	-2.000022	1.115085
O	-1.675271	-1.279894	0.972224
N	-0.491311	1.163013	0.784922
O	-0.05478	1.225344	1.932022
O	-1.15614	2.025063	0.201786
Br	2.743758	0.0	0.0
