15

C	-0.504552	-0.003794	-1.437766
C	0.0	0.0	0.0
Cl	-2.271603	0.37845	-1.536641
H	1.090915	0.0	0.0
C	0.193017	1.008841	-2.237751
N	0.763161	1.77964	-2.917704
C	-0.275235	-1.312492	-2.05658
N	-0.056947	-2.347304	-2.569205
N	-0.454259	-1.176277	0.783018
O	-1.346432	-1.890686	0.324331
O	0.154624	-1.35757	1.832016
N	-0.454978	1.235751	0.694277
O	-1.267609	1.129959	1.607803
O	0.00375	2.279234	0.241831
Br	3.127974	0.0	0.0
