17

C	0.0	0.0	0.0
C	-0.42715	0.034001	-1.466617
F	1.401723	0.0	0.0
H	-0.003795	0.938268	-1.922221
H	-1.521282	0.123718	-1.444238
C	-0.454692	1.258631	0.710777
H	-1.55049	1.282374	0.672143
H	-0.037271	2.139455	0.214533
H	-0.114034	1.227255	1.748034
N	-0.49523	-1.133783	0.737655
H	-1.521397	-1.000397	0.727589
H	-0.31515	-1.981314	0.20734
C	0.006274	-1.192363	-2.263639
H	-0.203422	-1.052428	-3.328377
H	1.077767	-1.383254	-2.148845
H	-0.542124	-2.084801	-1.949857
H	-3.238454	0.0	0.0
