17

C	0.0	0.0	0.0
C	-0.432595	0.027007	-1.463258
F	1.405664	0.0	0.0
H	-0.055386	-0.896741	-1.923042
H	-1.528524	-0.029413	-1.434312
C	-0.45313	1.22885	0.757442
H	-0.153065	1.124365	1.802517
H	-1.545783	1.276772	0.684095
H	0.002388	2.13044	0.341629
N	-0.487629	-1.159563	0.697882
H	-1.506152	-1.00017	0.736309
H	-0.3561	-1.96968	0.098064
C	0.046014	1.235518	-2.260634
H	-0.454747	2.147624	-1.928438
H	-0.180461	1.111464	-3.32453
H	1.125008	1.376714	-2.156868
H	-3.26822	0.0	0.0
