17

C	0.0	0.0	0.0
C	-0.460069	-0.054152	-1.447901
F	1.406135	0.0	0.0
H	-1.557656	-0.067367	-1.40926
H	-0.116045	-1.01711	-1.840781
C	-0.419405	1.280565	0.702364
H	-1.514411	1.315918	0.677856
H	-0.073728	1.247901	1.741765
H	0.011936	2.166193	0.22743
N	-0.485716	-1.185832	0.655446
H	-0.337166	-1.074188	1.655594
H	-1.509516	-1.132554	0.520141
C	0.052823	1.089152	-2.3155
H	-0.409372	2.039517	-2.037461
H	1.137689	1.194819	-2.230093
H	-0.188563	0.907159	-3.367426
H	-3.25636	0.0	0.0
