15

C	-0.373594	0.017525	-1.470047
C	0.0	0.0	0.0
F	-0.019585	1.168355	-2.03522
H	1.100201	0.0	0.0
N	0.280513	-1.128721	-2.227148
O	-0.064586	-2.237227	-1.836807
O	1.037808	-0.842199	-3.135879
N	-1.867744	-0.156098	-1.747661
O	-2.15869	-0.277124	-2.931547
O	-2.63195	-0.106703	-0.792581
C	-0.469261	-1.169106	0.734159
N	-0.817186	-2.080665	1.388057
C	-0.455903	1.232787	0.637423
N	-0.79902	2.22395	1.167348
Br	3.23262	0.0	0.0
