15

C	-0.557537	-0.002154	-1.414874
C	0.0	0.0	0.0
F	-1.894528	-0.048262	-1.431542
H	1.094787	0.0	0.0
N	-0.140226	1.22156	-2.213306
O	0.686323	1.970763	-1.713161
O	-0.702484	1.323757	-3.297309
N	-0.030493	-1.197633	-2.193836
O	1.079104	-1.058709	-2.688871
O	-0.759419	-2.180732	-2.214043
C	-0.45197	-1.218922	0.677012
N	-0.804288	-2.195785	1.226244
C	-0.50885	1.173057	0.709978
N	-0.96356	2.091705	1.281563
Br	3.257793	0.0	0.0
