15

C	-0.563488	-0.032146	-1.409132
C	0.0	0.0	0.0
F	-1.901679	-0.104951	-1.419432
H	1.094844	0.0	0.0
N	-0.148021	1.213538	-2.180443
O	0.999679	1.205065	-2.598606
O	-0.9938	2.091109	-2.280595
N	-0.054874	-1.204161	-2.228109
O	0.68969	-2.004595	-1.680838
O	-0.487421	-1.23279	-3.375057
C	-0.480763	-1.166424	0.741831
N	-0.875469	-2.096836	1.339861
C	-0.459172	1.225951	0.657108
N	-0.816316	2.212295	1.185612
Br	3.260217	0.0	0.0
