15

C	-0.486077	0.223252	-1.42475
C	0.0	0.0	0.0
F	-1.758161	0.645169	-1.487277
H	1.103827	0.0	0.0
N	0.341763	1.285521	-2.13849
O	0.609973	1.083986	-3.315446
O	0.573493	2.283259	-1.47193
N	-0.359965	-1.05162	-2.241037
O	0.739867	-1.581649	-2.19147
O	-1.351898	-1.409796	-2.859768
C	-0.498692	-1.28253	0.492686
N	-0.926816	-2.304624	0.882834
C	-0.473669	1.070606	0.875601
N	-0.883384	1.896805	1.602345
Br	3.24867	0.0	0.0
