15

C	-0.366702	-0.003718	-1.475199
C	0.0	0.0	0.0
F	0.078338	1.097917	-2.07104
H	1.100226	0.0	0.0
N	0.2188	-1.219562	-2.181363
O	1.155033	-1.024868	-2.936097
O	-0.340523	-2.27596	-1.906272
N	-1.865511	-0.08868	-1.764281
O	-2.635308	-0.132086	-0.811543
O	-2.153293	-0.080732	-2.955597
C	-0.459792	-1.169888	0.740067
N	-0.787892	-2.096137	1.383516
C	-0.462945	1.23731	0.617248
N	-0.811376	2.242274	1.113945
Br	3.233333	0.0	0.0
