15

C	-0.396872	-0.019346	-1.465093
C	0.0	0.0	0.0
F	0.206643	-1.013646	-2.100967
H	1.09861	0.0	0.0
N	-1.899222	-0.177834	-1.705052
O	-2.208544	-0.41893	-2.865894
O	-2.645627	-0.04886	-0.744021
N	-0.056548	1.295648	-2.161221
O	-0.832083	2.213183	-1.920537
O	0.930869	1.303997	-2.873879
C	-0.430648	-1.250416	0.62321
N	-0.753897	-2.269125	1.109283
C	-0.483543	1.159915	0.738192
N	-0.819546	2.105726	1.347972
Br	3.248342	0.0	0.0
