15

C	0.0	0.0	0.0
C	-0.522833	0.052455	-1.422886
F	1.369016	0.0	0.0
H	-0.128043	-0.780717	-1.993544
H	-1.619204	0.072618	-1.319439
N	-0.563719	0.957232	0.809342
H	-0.318956	0.766675	1.773985
H	-1.606711	0.791088	0.643981
N	-0.277182	-1.471885	0.524183
O	-0.295811	-2.398454	-0.27988
O	-0.368136	-1.593589	1.741355
N	-0.019692	1.28801	-2.072588
O	-0.688834	2.313945	-1.973009
O	1.046999	1.205174	-2.689835
F	-2.790824	0.0	0.0
