15

C	0.0	0.0	0.0
C	-0.52987	0.003736	-1.429621
F	1.353444	0.0	0.0
H	-0.235763	-0.883778	-1.978546
H	-1.634821	0.079458	-1.271874
N	-0.515167	0.947865	0.893258
H	-1.545631	0.772211	0.804279
H	-0.310926	1.856034	0.493412
N	-0.357005	-1.409301	0.558495
O	-0.738896	-1.507897	1.712092
O	-0.115702	-2.354605	-0.193559
N	-0.021933	1.154593	-2.208419
O	0.121128	2.24798	-1.656575
O	0.196906	0.963043	-3.406424
F	-2.758139	0.0	0.0
