15

C	0.0	0.0	0.0
C	-0.539325	-0.033114	-1.418369
F	1.350604	0.0	0.0
H	-0.502954	0.9767	-1.828244
H	-1.601723	-0.323819	-1.298369
N	-0.557799	1.033333	0.776154
H	-0.315764	1.917787	0.340641
H	-1.594893	0.842826	0.641695
N	-0.351993	-1.327386	0.719076
O	-0.928208	-2.20928	0.097429
O	0.046862	-1.409884	1.876155
N	0.195411	-0.876594	-2.394704
O	0.093457	-0.541731	-3.579537
O	0.841588	-1.846312	-2.003845
F	-2.778475	0.0	0.0
