15

C	0.0	0.0	0.0
C	-0.268685	-0.113946	-1.501431
F	1.35861	0.0	0.0
H	0.329331	0.674132	-1.955116
H	0.097985	-1.089437	-1.806094
N	-0.492237	1.092444	0.678962
H	-1.537437	0.90509	0.587086
H	-0.20702	1.005274	1.64778
N	-0.318204	-1.369831	0.704704
O	-0.455444	-1.329726	1.921026
O	-0.300175	-2.393175	0.02785
N	-1.612139	0.036189	-2.112123
O	-1.948509	1.181679	-2.402815
O	-2.198451	-0.987188	-2.436713
F	-2.576158	0.0	0.0
