15

C	0.0	0.0	0.0
C	-0.561492	-0.10576	-1.412582
F	1.356592	0.0	0.0
H	-0.363029	0.854972	-1.88952
H	-1.638393	-0.283111	-1.289804
N	-0.586746	1.078309	0.638704
H	-1.629562	0.8613	0.499574
H	-0.362142	1.026874	1.626565
N	-0.277937	-1.350067	0.753136
O	-0.332845	-1.288751	1.977813
O	-0.332358	-2.380484	0.091131
N	0.056379	-1.130347	-2.294457
O	1.273215	-1.08238	-2.479738
O	-0.699481	-1.9252	-2.850854
F	-2.819174	0.0	0.0
