15

C	0.0	0.0	0.0
C	-0.529687	0.149063	-1.422618
F	1.353407	0.0	0.0
H	-0.228705	-0.671979	-2.062583
H	-1.633973	0.198766	-1.257452
N	-0.515916	0.853831	0.982969
H	-1.546364	0.682966	0.875767
H	-0.31766	1.798081	0.672559
N	-0.360113	-1.458247	0.415959
O	-0.179586	-2.320116	-0.443721
O	-0.680273	-1.675038	1.571575
N	-0.034113	1.379654	-2.075601
O	0.217142	1.308131	-3.280623
O	0.070603	2.418373	-1.42018
F	-2.758155	0.0	0.0
