15

C	0.0	0.0	0.0
C	-0.557964	-0.159663	-1.393429
F	1.388057	0.0	0.0
H	-1.656391	-0.167088	-1.248857
H	-0.193565	-1.068138	-1.864261
N	-0.578832	1.031519	0.695134
H	-1.619046	0.840581	0.558285
H	-0.331629	0.971095	1.674895
N	-0.236152	-1.409555	0.708441
O	0.008622	-2.425881	0.063964
O	-0.548299	-1.386109	1.892658
N	-0.198396	0.949296	-2.316216
O	-0.75449	0.903912	-3.414727
O	0.614254	1.805907	-1.98441
F	-2.823483	0.0	0.0
