15
Coordinates from ORCA-job run
  C   -0.67882899603779     -0.23498193753751      0.36294396877563
  C   0.54512093416031      0.68507155485378      0.30941329323729
  H   -1.09138628414368     -0.35360830408417      1.36444549325635
  H   0.16113549016245      1.71153074184941      0.40856292118053
  N   -0.29391517233406     -1.60506867453662     -0.13057959859256
  O   -0.65922971371370     -1.93405262145161     -1.24837371283981
  O   0.39437625869779     -2.23965257604843      0.65557631033966
  N   -1.78792039583989      0.26461736502433     -0.51032348473054
  O   -1.51437421190458      1.10117324854989     -1.36777685536744
  O   -2.88742189623776     -0.23065544345309     -0.29320361935484
  N   1.29160482743234      0.43768041378352     -0.91230884629877
  H   0.81500195893521      0.87554347392461     -1.69059573676201
  H   2.22826453380520      0.81294219018278     -0.84180016468980
  C   1.39307464230707      0.42721414617194      1.47839906570423
  N   2.08449802471108      0.28124642277119      2.41562096614207
