15
Coordinates from ORCA-job run
  C   -0.67032932442654     -0.14355662356047     -0.40704457918546
  C   0.53688910096741      0.73404664866679     -0.07116730180340
  H   -1.00525161534629      0.03078537555537     -1.42961629512235
  H   0.24334639054137      1.76455428984496     -0.29626299922808
  N   -1.83841480534335      0.14281363070864      0.49558922237721
  O   -2.49695220830920     -0.80212855654664      0.90623353076539
  O   -2.04427771354394      1.33626836997278      0.69260101257388
  N   -0.32866509964069     -1.59214480990255     -0.31003431742192
  O   -0.66733235325667     -2.29167455917845     -1.25823182792196
  O   0.25764745819071     -1.94804986524481      0.70485388215394
  N   1.64359749997872      0.27428969181781     -0.90295726082516
  H   1.86324323141675      0.95341940443432     -1.61814799452847
  H   2.47362970609284      0.08962129203166     -0.35727011908684
  C   0.86182260382626      0.70447744145916      1.35950211376892
  N   1.16904712885262      0.74727826994143      2.49195293348431
