15
Coordinates from ORCA-job run
  C   -0.65578541750140     -0.15446953374013     -0.36556646525784
  C   0.58206885369237      0.67685466864707     -0.02225374460358
  H   -0.89593027240030     -0.04441494285227     -1.42209190365938
  H   0.24008770603323      1.71926852172434      0.04734595229037
  N   -1.84677225274001      0.27803078921640      0.42155496096625
  O   -1.73727471641038      0.19769122036687      1.64192646268283
  O   -2.80846877147671      0.70117482265656     -0.21256580727787
  N   -0.47834627249794     -1.63113545443949     -0.11668763051552
  O   -1.51107766127466     -2.28949975468793     -0.14488505834393
  O   0.66230564203496     -2.04450289865792      0.04096594384247
  N   1.55064066928601      0.49217955495843     -1.09974789035963
  H   2.46231226538248      0.24163979523646     -0.74454238163674
  H   1.63205762185412      1.33801689026872     -1.64773369182338
  C   1.14937080445209      0.35026573900375      1.29025907049512
  N   1.65481180156615      0.16790058229914      2.33402218320083
