13

C	-0.464869	0.013891	-1.450067
C	0.0	0.0	0.0
Br	-2.574477	-0.12492	-1.395007
H	1.094451	0.0	0.0
H	-0.331366	-0.937667	0.457606
C	-0.26492	1.29436	-2.121739
N	-0.091522	2.321071	-2.66654
N	0.109287	-1.02073	-2.173258
H	0.090027	-1.916253	-1.707222
H	-0.167694	-1.071263	-3.142245
C	-0.517295	1.117595	0.774114
N	-0.918549	2.021134	1.406898
Br	3.446742	0.0	0.0
