13

C	-0.339787	0.234515	-1.477629
C	0.0	0.0	0.0
Br	-0.098083	-1.534963	-2.473175
H	1.092397	0.0	0.0
H	-0.315027	0.896268	0.545278
C	-1.749485	0.55977	-1.707989
N	-2.87816	0.849478	-1.864391
N	0.505574	1.259538	-1.939801
H	1.475862	1.073901	-1.675654
H	0.423122	1.419319	-2.934839
C	-0.596815	-1.174875	0.606049
N	-1.101102	-2.09132	1.139365
Br	3.442474	0.0	0.0
