13

C	-0.320947	0.061189	-1.500552
C	0.0	0.0	0.0
Br	-0.074445	-1.881506	-2.186321
H	1.094189	0.0	0.0
H	-0.383835	-0.908722	0.460883
C	-1.726166	0.324894	-1.814015
N	-2.853623	0.554747	-2.055062
N	0.532661	0.984966	-2.10229
H	0.451439	1.031097	-3.108224
H	1.50025	0.857866	-1.797687
C	-0.50492	1.1826	0.687418
N	-0.913233	2.122632	1.260697
Br	3.443813	0.0	0.0
