13

C	-0.300275	-0.074356	-1.499963
C	0.0	0.0	0.0
Br	-2.224849	-0.47416	-1.851211
H	1.096696	0.0	0.0
H	-0.376508	0.923591	0.442041
C	-0.106405	1.256338	-2.103594
N	0.067666	2.300618	-2.615918
N	0.49844	-1.114978	-2.063894
H	0.489803	-1.083986	-3.076019
H	1.457975	-1.023167	-1.718155
C	-0.492844	-1.158239	0.729296
N	-0.882529	-2.073379	1.352811
Br	3.422788	0.0	0.0
