13

C	-0.342871	0.049626	-1.505484
C	0.0	0.0	0.0
Br	0.02679	-1.753066	-2.224395
H	1.093742	0.0	0.0
H	-0.392688	-0.888563	0.496098
C	-1.768519	0.302215	-1.741792
N	-2.913955	0.519131	-1.89077
N	0.456494	0.994547	-2.243751
H	1.432925	0.85034	-1.976132
H	0.189849	1.934585	-1.963744
C	-0.480908	1.214301	0.648994
N	-0.88028	2.204815	1.138519
Br	3.443157	0.0	0.0
