11
Coordinates from ORCA-job run
  C   0.70910036829063     -0.41583027495554      0.63560271245594
  C   -0.40777023905533     -0.62435759027551     -0.37542039332568
  H   1.30367001535874     -1.33108251870516      0.70419876174742
  H   -0.04072462530880     -0.76133119294428     -1.39054758117153
  H   0.28513060895298     -0.21263077217507      1.61983868883554
  H   -1.03431702061730     -1.47201038463180     -0.09025855115267
  C   1.58164152428089      0.69239945318972      0.24885274572876
  N   2.27495737761864      1.57805711734315     -0.08440879532969
  N   -1.32072037981931      0.56443256636192     -0.41526125145209
  O   -1.78257725354093      0.87042758819109     -1.50904762649295
  O   -1.56839037616021      1.11192600860149      0.65545129015694
