11
Coordinates from ORCA-job run
  C   0.65557017937644     -0.18043270161818      0.59143556367559
  C   -0.28860309723130      0.22467354975773     -0.53487660249803
  H   0.33716997942010      0.27684125326242      1.52913206509863
  H   -0.02634813039945     -0.22859832706277     -1.48859593136858
  H   0.63480649548257     -1.26476627355366      0.73034842038678
  H   -0.33417780666996      1.30966272882134     -0.64642294468320
  C   2.01889939866751      0.23790638782467      0.27263523973838
  N   3.10430232827083      0.58600094107391     -0.00479993235994
  N   -1.68404079368715     -0.22072128552325     -0.22443790825826
  O   -2.05121909070331     -0.13473983675764      0.94473953273800
  O   -2.36635946252628     -0.60582643622458     -1.16815750246937
