14

C	-0.553446	-0.092324	-1.411643
C	0.0	0.0	0.0
Cl	0.163036	1.145319	-2.460211
H	1.089437	0.0	0.0
H	-0.322726	0.971621	0.387294
N	-0.225345	-1.454174	-2.039767
O	-0.905336	-1.772504	-3.010164
O	0.695658	-2.086318	-1.549891
C	-2.009958	0.039343	-1.427309
N	-3.170986	0.210973	-1.38589
N	-0.577078	-1.101116	0.767841
H	0.16524	-1.752032	0.992069
H	-0.965049	-0.75831	1.634946
Cl	3.427227	0.0	0.0
