14

C	-0.498848	0.277227	-1.419644
C	0.0	0.0	0.0
Cl	0.229256	-0.813006	-2.585539
H	1.101306	0.0	0.0
H	-0.357879	0.818921	0.62819
N	-2.033781	0.0737	-1.395117
O	-2.546055	-0.783392	-2.09157
O	-2.611685	0.820885	-0.612492
C	-0.288237	1.662824	-1.829667
N	-0.148082	2.785648	-2.146648
N	-0.529575	-1.289281	0.4272
H	-1.010838	-1.198166	1.310609
H	0.243724	-1.929713	0.554283
Cl	3.383006	0.0	0.0
