14

C	-0.440137	-0.023009	-1.465064
C	0.0	0.0	0.0
Cl	0.124872	-1.492695	-2.277004
H	1.093047	0.0	0.0
H	-0.358823	-0.924127	0.456523
N	-1.981359	-0.057352	-1.528616
O	-2.527588	-0.877798	-0.802193
O	-2.54739	0.729989	-2.28142
C	0.001343	1.160056	-2.193504
N	0.371719	2.126849	-2.74863
N	-0.471452	1.155401	0.727213
H	0.082212	1.970672	0.505686
H	-1.455025	1.35099	0.60114
Cl	3.375929	0.0	0.0
