18

C	-0.630119	0.017386	-1.407587
C	0.0	0.0	0.0
Br	-0.124842	1.690065	-2.361922
H	1.089163	0.0	0.0
N	-0.063998	-1.087254	-2.117711
H	0.082223	-1.852785	-1.467812
H	-0.666913	-1.376648	-2.87706
C	-2.155892	0.006069	-1.37468
H	-2.531048	-0.024316	-2.400124
H	-2.575555	0.881633	-0.881041
H	-2.489681	-0.898076	-0.857755
N	-0.398311	-1.213711	0.668582
H	0.323345	-1.453676	1.337893
H	-1.277844	-1.080661	1.151786
N	-0.457044	1.216559	0.786024
O	-1.525551	1.112404	1.405326
O	0.242412	2.220171	0.766411
Cl	3.338902	0.0	0.0
