18

C	-0.309305	-0.005936	-1.509041
C	0.0	0.0	0.0
Br	-2.423277	-0.08018	-1.658153
H	1.094409	0.0	0.0
N	0.186335	1.085071	-2.207927
H	0.523926	1.840122	-1.62798
H	0.807533	0.84569	-2.963327
C	0.152991	-1.315265	-2.118114
H	1.230215	-1.395866	-1.933424
H	-0.042519	-1.304345	-3.192994
H	-0.361788	-2.170324	-1.685706
N	-0.467125	-1.089856	0.774841
H	-1.384801	-1.408406	0.496052
H	0.214747	-1.833057	0.776385
N	-0.482672	1.295316	0.617514
O	0.088189	2.33079	0.263706
O	-1.414571	1.253926	1.410334
Cl	3.299806	0.0	0.0
