18

C	-0.474779	0.058854	-1.461856
C	0.0	0.0	0.0
Br	0.313765	-1.53443	-2.332418
H	1.091247	0.0	0.0
N	-1.909722	-0.126717	-1.554074
H	-2.349804	0.665586	-1.097284
H	-2.184321	-0.157595	-2.529144
C	0.107515	1.281481	-2.157313
H	-0.107776	1.247546	-3.227534
H	-0.350525	2.181671	-1.737974
H	1.189236	1.320864	-2.004711
N	-0.541854	-1.062852	0.786323
H	0.148193	-1.799406	0.8549
H	-1.383923	-1.413069	0.339862
N	-0.412085	1.292913	0.695116
O	-1.567088	1.704931	0.523205
O	0.401265	1.822338	1.438558
Cl	3.425983	0.0	0.0
