18

C	-0.339746	0.080545	-1.500197
C	0.0	0.0	0.0
Br	-2.31418	0.377562	-1.667236
H	1.101819	0.0	0.0
N	0.325748	1.124856	-2.231308
H	1.318642	0.889559	-2.212816
H	0.238826	1.995057	-1.719816
C	-0.005073	-1.251218	-2.145498
H	-0.591981	-2.060535	-1.721037
H	1.054593	-1.453779	-1.954313
H	-0.17625	-1.167193	-3.219829
N	-0.493815	-1.16761	0.636657
H	0.043839	-1.341167	1.475988
H	-1.466534	-1.049396	0.891521
N	-0.428764	1.273441	0.72851
O	-1.164636	1.15062	1.708169
O	-0.017693	2.354515	0.309254
Cl	3.286693	0.0	0.0
