17

C	0.0	0.0	0.0
C	-0.553844	-0.119008	-1.438965
Cl	1.792829	0.0	0.0
H	-1.658483	-0.105425	-1.300657
C	-0.471867	1.310997	0.608601
H	-0.099845	2.165859	0.040464
H	-1.564445	1.312398	0.618036
H	-0.099399	1.388208	1.632345
C	-0.47385	-1.192722	0.814816
H	-1.566603	-1.208447	0.800104
H	-0.127855	-1.086576	1.845415
H	-0.078045	-2.127409	0.41201
C	-0.171087	-1.374658	-2.086802
N	0.130069	-2.378224	-2.617278
C	-0.166374	1.009747	-2.287467
N	0.131981	1.913554	-2.975732
Cl	-3.709125	0.0	0.0
