17

C	0.0	0.0	0.0
C	-0.401517	-0.313732	-1.489521
Cl	1.797071	0.0	0.0
H	0.474431	-0.060013	-2.098762
C	-0.46323	1.397271	0.375379
H	-0.097986	2.143322	-0.33522
H	-1.557613	1.397316	0.386909
H	-0.082932	1.647709	1.368118
C	-0.50008	-1.036103	0.98477
H	-0.089816	-2.023779	0.768947
H	-0.198176	-0.743963	1.99319
H	-1.593018	-1.059149	0.923822
C	-1.46096	0.521427	-2.077473
N	-2.033468	1.284553	-2.765924
C	-0.634711	-1.741818	-1.724469
N	-0.732452	-2.893444	-1.932481
Cl	-3.689578	0.0	0.0
