17

C	0.0	0.0	0.0
C	-0.276672	-0.098408	-1.543864
Br	1.9114	0.0	0.0
H	0.284103	0.738408	-1.960756
N	-0.409546	1.361754	0.568889
O	-0.808499	1.456937	1.710962
O	-0.194359	2.286798	-0.204729
N	-0.431897	-1.178756	0.844043
O	-0.780677	-2.195026	0.261136
O	-0.263613	-1.071945	2.049804
N	-1.689224	0.20067	-2.08643
O	-1.961112	1.378525	-2.273807
O	-2.328806	-0.746919	-2.524759
N	0.21547	-1.32557	-2.079724
H	-0.436793	-2.060009	-1.834958
H	0.241464	-1.243297	-3.087024
F	-2.230968	0.0	0.0
