17

C	0.0	0.0	0.0
C	-0.628014	0.030129	-1.487841
Br	1.88943	0.0	0.0
H	-1.67864	0.343815	-1.45001
N	-0.399481	1.291124	0.751338
O	-0.508799	1.209466	1.96243
O	-0.646043	2.277405	0.063496
N	-0.52761	-1.239787	0.924762
O	0.277901	-1.907362	1.55514
O	-1.803032	-1.570356	0.944897
N	-0.744174	-1.408556	-1.920604
O	0.088639	-2.233177	-1.56087
O	-1.701133	-1.639595	-2.671557
N	0.151915	0.743886	-2.428246
H	-0.367913	0.624414	-3.288388
H	0.046012	1.712726	-2.134127
F	-1.846483	0.0	0.0
