18

C	-0.355904	0.011707	-1.479401
C	0.0	0.0	0.0
Br	-2.624355	-0.096957	-1.468295
H	1.094119	0.0	0.0
C	-0.134971	1.364835	-2.10815
H	-0.394851	1.314789	-3.168265
H	0.928668	1.591111	-1.98127
H	-0.74954	2.131902	-1.642469
N	0.146225	-1.003539	-2.204166
H	0.421546	-0.853753	-3.157196
H	0.447108	-1.845529	-1.733248
N	-0.411556	-1.347527	0.529543
O	-1.21185	-1.386639	1.486254
O	0.307157	-2.304914	0.240501
N	-0.51245	1.016179	0.846725
H	-1.495882	1.203047	0.68826
H	0.055434	1.847053	0.769803
Br	3.190468	0.0	0.0
