18

C	-0.540001	-0.043629	-1.437711
C	0.0	0.0	0.0
Br	0.055051	1.611683	-2.317888
H	1.090868	0.0	0.0
C	0.06623	-1.197528	-2.226775
H	-0.212496	-1.109089	-3.279331
H	-0.314215	-2.14952	-1.845245
H	1.154869	-1.192394	-2.130987
N	-1.994436	0.009952	-1.413912
H	-2.340233	0.058059	-2.365772
H	-2.347398	-0.840299	-0.983583
N	-0.400327	-1.364285	0.61479
O	0.394267	-2.296633	0.537889
O	-1.519647	-1.439031	1.140642
N	-0.51377	1.082675	0.742455
H	-1.516453	1.020957	0.847577
H	-0.044378	1.161084	1.633825
Br	3.55161	0.0	0.0
