18

C	-0.528939	0.01019	-1.444906
C	0.0	0.0	0.0
Br	0.288021	1.588169	-2.311429
H	1.089236	0.0	0.0
C	-0.054291	-1.213837	-2.214459
H	-0.31662	-1.118596	-3.271006
H	1.027949	-1.328805	-2.114692
H	-0.546619	-2.10682	-1.816001
N	-1.957612	0.25328	-1.447494
H	-2.305956	0.247499	-2.39962
H	-2.413145	-0.477539	-0.908765
N	-0.446707	-1.333771	0.587478
O	0.393857	-2.210676	0.750171
O	-1.650232	-1.463346	0.839566
N	-0.496941	1.045592	0.831931
H	-1.301732	1.486927	0.406153
H	0.242298	1.716077	0.986798
Br	3.519667	0.0	0.0
