18

C	-0.578743	-0.03019	-1.423569
C	0.0	0.0	0.0
Br	0.404177	1.456606	-2.39934
H	1.087627	0.0	0.0
C	-0.285727	-1.292415	-2.207784
H	-0.568857	-1.147759	-3.253171
H	0.775546	-1.531771	-2.151551
H	-0.866496	-2.119603	-1.796095
N	-1.971842	0.24157	-1.362989
H	-2.105659	1.140745	-0.912634
H	-2.360249	0.287472	-2.296791
N	-0.413782	-1.303964	0.688325
O	0.225091	-2.311173	0.405632
O	-1.358184	-1.274817	1.481241
N	-0.492198	1.129746	0.732329
H	0.234618	1.452032	1.357721
H	-1.297022	0.845451	1.277556
Br	3.516973	0.0	0.0
