13

C	-0.470564	-0.060894	-1.429241
C	0.0	0.0	0.0
Cl	-2.197721	-0.534006	-1.614679
H	1.091565	0.0	0.0
H	0.121422	-0.774445	-1.998423
H	-0.319747	-0.943438	0.466682
N	-0.260351	1.268558	-2.11065
O	0.87417	1.435747	-2.545283
O	-1.172006	2.084151	-2.149822
N	-0.474749	1.195974	0.677412
H	-1.297572	1.024226	1.237982
H	0.274345	1.514287	1.2764
F	2.637264	0.0	0.0
