13

C	-0.32613	-0.072329	-1.477244
C	0.0	0.0	0.0
Cl	0.058118	-1.656672	-2.163581
H	1.093076	0.0	0.0
H	0.218484	0.685843	-2.034911
H	-0.443878	-0.862014	0.506518
N	-1.785669	0.215796	-1.723265
O	-2.619139	-0.63816	-1.438131
O	-2.050401	1.365512	-2.090118
N	-0.396272	1.258283	0.622885
H	0.363685	1.914478	0.49118
H	-1.244312	1.661857	0.244137
F	2.633375	0.0	0.0
