13

C	-0.268299	-0.080951	-1.46883
C	0.0	0.0	0.0
Cl	-2.021103	-0.249848	-1.935458
H	1.094972	0.0	0.0
H	0.250139	-0.917686	-1.929617
H	-0.43045	0.912312	0.414363
N	0.225131	1.139569	-2.193625
O	0.8516	0.954598	-3.233888
O	-0.049377	2.232663	-1.711488
N	-0.42357	-1.187021	0.731747
H	0.297824	-1.890433	0.629137
H	-1.30025	-1.556577	0.38365
F	2.615373	0.0	0.0
