13

C	-0.470822	-0.066001	-1.428567
C	0.0	0.0	0.0
Cl	-2.195418	-0.542767	-1.608263
H	1.091569	0.0	0.0
H	0.119931	-0.781465	-1.995021
H	-0.321288	-0.940249	0.471873
N	-0.263046	1.258232	-2.117394
O	-1.177655	2.069147	-2.166368
O	0.871992	1.427916	-2.550947
N	-0.474247	1.200958	0.670477
H	0.271872	1.51603	1.275049
H	-1.304054	1.035747	1.222965
F	2.638515	0.0	0.0
