13

C	-0.554389	-0.00751	-1.400671
C	0.0	0.0	0.0
Cl	0.049291	1.364453	-2.364741
H	1.09086	0.0	0.0
H	-1.641626	0.006077	-1.467031
H	-0.351883	0.923178	0.479142
N	-0.178184	-1.278396	-2.127436
O	-1.072844	-1.79289	-2.80515
O	0.9627	-1.69733	-2.013417
N	-0.492068	-1.219201	0.659545
H	0.321985	-1.667671	1.061629
H	-1.132534	-1.000072	1.411529
F	2.652466	0.0	0.0
