16

C	-0.384443	0.0681	-1.472792
C	0.0	0.0	0.0
Cl	-0.083687	-1.639691	-2.176545
H	1.087113	0.0	0.0
H	-0.392532	0.901433	0.481937
N	-1.724274	0.485405	-1.712806
H	-1.931962	0.440291	-2.703306
H	-2.355898	-0.124063	-1.206517
C	0.643696	0.962631	-2.145571
H	0.568633	0.897906	-3.233859
H	0.447862	1.994064	-1.835276
H	1.635026	0.665322	-1.783997
N	-0.632045	-1.132376	0.714213
O	0.057966	-1.828948	1.44966
O	-1.850992	-1.298871	0.560627
F	2.649377	0.0	0.0
