16

C	-0.084771	0.011819	-1.525637
C	0.0	0.0	0.0
Cl	-1.782148	0.311053	-2.117789
H	1.092711	0.0	0.0
H	-0.454562	-0.872811	0.46135
N	0.803511	0.985653	-2.131342
H	0.509105	1.899109	-1.802743
H	1.696469	0.803553	-1.647611
C	0.363175	-1.367289	-1.978022
H	1.361036	-1.509357	-1.552566
H	-0.31097	-2.149096	-1.622128
H	0.414168	-1.384904	-3.066707
N	-0.53896	1.175339	0.681985
O	-1.131912	0.990117	1.749193
O	-0.36019	2.293258	0.191439
F	2.619311	0.0	0.0
