16

C	-0.381987	0.059856	-1.472795
C	0.0	0.0	0.0
Cl	-0.055274	-1.64673	-2.170362
H	1.087138	0.0	0.0
H	-0.387709	0.906369	0.47744
N	-1.724464	0.460175	-1.721889
H	-1.922546	0.417848	-2.71473
H	-2.351807	-0.160491	-1.224894
C	0.638883	0.9625	-2.145284
H	1.632642	0.674011	-1.783858
H	0.563654	0.896304	-3.233993
H	0.434119	1.992285	-1.835919
N	-0.629453	-1.124361	0.729528
O	0.049462	-1.764388	1.525297
O	-1.835138	-1.336964	0.532773
F	2.648301	0.0	0.0
