16

C	-0.205215	-0.059807	-1.530335
C	0.0	0.0	0.0
Cl	-0.129527	1.701273	-2.027009
H	1.08675	0.0	0.0
H	-0.469291	0.841268	0.500331
N	0.893966	-0.727214	-2.185803
H	0.75023	-1.71807	-2.015976
H	1.737692	-0.480121	-1.63863
C	-1.543823	-0.583316	-2.015439
H	-1.65004	-1.634588	-1.740769
H	-2.365364	-0.01467	-1.572915
H	-1.587102	-0.493309	-3.10234
N	-0.454052	-1.21648	0.678143
O	-0.275999	-2.308829	0.126408
O	-0.954124	-1.098682	1.800641
F	2.60574	0.0	0.0
