16

C	-0.389179	0.087503	-1.482885
C	0.0	0.0	0.0
Cl	-0.246714	-1.63429	-2.057764
H	1.092029	0.0	0.0
H	-0.406476	-0.875828	0.501944
N	-1.742915	0.502882	-1.807599
H	-1.822523	1.471547	-1.515319
H	-2.393476	-0.040983	-1.247869
C	0.637269	0.905227	-2.246179
H	1.627326	0.601064	-1.894132
H	0.512325	0.764411	-3.321494
H	0.497465	1.958965	-1.995632
N	-0.441252	1.158323	0.784017
O	-0.588498	0.997763	1.995923
O	-0.60115	2.250741	0.223637
F	2.58478	0.0	0.0
