16

C	-0.605568	0.040177	-1.390966
C	0.0	0.0	0.0
Cl	0.365866	1.07685	-2.506215
H	1.090347	0.0	0.0
H	-0.335088	-0.912091	0.497865
N	-0.496805	-1.31582	-1.918306
H	-1.075908	-1.925162	-1.34929
H	-0.856829	-1.328737	-2.865021
C	-2.036406	0.574117	-1.434831
H	-2.431047	0.486789	-2.45087
H	-2.087599	1.616984	-1.127343
H	-2.657934	-0.027734	-0.76075
N	-0.447605	1.092184	0.864992
O	-0.411041	2.244623	0.42719
O	-0.789721	0.814504	2.021432
F	2.524405	0.0	0.0
