16

C	-0.261551	0.243557	-1.506454
C	0.0	0.0	0.0
Cl	-0.39602	2.047967	-1.798761
H	1.088477	0.0	0.0
H	-0.390877	-0.99348	0.239337
N	0.885589	-0.232214	-2.23129
H	0.763002	-1.215472	-2.434917
H	1.720744	-0.125031	-1.623687
C	-1.551948	-0.359758	-2.023704
H	-1.527729	-1.444121	-1.864848
H	-1.662179	-0.157144	-3.090314
H	-2.405363	0.045248	-1.479757
N	-0.681506	0.92923	0.911813
O	-0.064048	1.894716	1.351188
O	-1.868171	0.688461	1.175555
F	2.654781	0.0	0.0
