16

C	-0.107293	0.105365	-1.514894
C	0.0	0.0	0.0
Cl	-1.818332	0.461306	-2.084793
H	1.091535	0.0	0.0
H	-0.477581	-0.898196	0.37984
N	0.771467	1.150392	-1.963239
H	1.635857	1.023157	-1.416105
H	0.978369	1.008879	-2.946001
C	0.279413	-1.267683	-2.055708
H	0.306811	-1.243995	-3.148271
H	1.283129	-1.457539	-1.663647
H	-0.410616	-2.052422	-1.736432
N	-0.561384	1.133456	0.743159
O	-1.499516	0.890931	1.514773
O	-0.07257	2.249311	0.584282
F	2.636279	0.0	0.0
