14

C	-0.421168	0.035156	-1.461336
C	0.0	0.0	0.0
Br	0.00938	-1.812528	-2.243105
H	1.101859	0.0	0.0
H	-0.376102	-0.908607	0.470852
C	-1.871782	0.142982	-1.64411
N	-3.032457	0.227788	-1.804412
N	0.26561	1.078675	-2.11177
H	0.069207	1.12819	-3.101789
H	1.266651	0.993175	-1.942354
N	-0.580742	1.171462	0.665591
H	-0.391244	1.079841	1.657484
H	-0.063913	1.984524	0.349761
Br	3.601097	0.0	0.0
