14

C	-0.453934	-0.058415	-1.451465
C	0.0	0.0	0.0
Br	-2.536527	-0.683716	-1.317666
H	1.0939	0.0	0.0
H	-0.304313	-0.949415	0.458451
C	-0.636539	1.236005	-2.100168
N	-0.7438	2.248665	-2.687097
N	0.303	-0.913386	-2.205122
H	0.034228	-1.086941	-3.158498
H	0.75262	-1.673611	-1.720291
N	-0.519795	1.17057	0.67425
H	0.209451	1.574807	1.244901
H	-1.313919	0.94134	1.25382
Br	3.558151	0.0	0.0
