14

C	-0.372826	-0.03559	-1.484275
C	0.0	0.0	0.0
Br	-0.089945	-1.87385	-2.166984
H	1.093509	0.0	0.0
H	-0.321272	0.989273	0.351023
C	-1.78996	0.269603	-1.69924
N	-2.908448	0.595952	-1.849835
N	0.449271	0.844862	-2.285131
H	1.421556	0.686249	-2.011818
H	0.217804	1.803901	-2.040309
N	-0.668206	-1.018381	0.796161
H	-0.135991	-1.877817	0.721393
H	-0.626323	-0.738417	1.768416
Br	3.59734	0.0	0.0
