14

C	-0.378424	0.021315	-1.482296
C	0.0	0.0	0.0
Br	-0.065711	-1.782907	-2.24152
H	1.101242	0.0	0.0
H	-0.32256	0.973714	0.391795
C	-1.80372	0.305593	-1.676666
N	-2.933121	0.598236	-1.818446
N	0.423695	0.946258	-2.250382
H	1.398978	0.790314	-1.990322
H	0.179416	1.889665	-1.965083
N	-0.663305	-1.0516	0.75648
H	-0.589818	-0.824988	1.741199
H	-0.141042	-1.91012	0.621993
Br	3.596887	0.0	0.0
