14

C	-0.334514	-0.065195	-1.491508
C	0.0	0.0	0.0
Br	-2.320765	-0.287839	-1.688928
H	1.095028	0.0	0.0
H	-0.392948	0.917655	0.452529
C	-0.032451	1.205064	-2.153656
N	0.201501	2.234485	-2.669402
N	0.308978	-1.157714	-2.170033
H	1.308197	-0.943953	-2.169257
H	0.18848	-1.957583	-1.551079
N	-0.410789	-1.241577	0.640674
H	-1.312355	-1.146237	1.087088
H	0.280307	-1.489851	1.336167
Br	3.529356	0.0	0.0
