14

C	-0.568047	0.02637	-1.415963
C	0.0	0.0	0.0
Br	-0.062781	1.663429	-2.35387
H	1.092521	0.0	0.0
H	-0.315001	-0.974112	0.417404
C	-0.042622	-1.094404	-2.214003
N	0.245754	-2.045187	-2.843521
N	-2.025327	-0.006154	-1.354382
H	-2.404562	0.042598	-2.293872
H	-2.294364	-0.903966	-0.960709
N	-0.461718	1.14481	0.758095
H	0.249148	1.394854	1.431401
H	-1.338365	0.966091	1.226597
Br	3.604828	0.0	0.0
