14

C	-0.400117	0.061694	-1.480101
C	0.0	0.0	0.0
Br	-0.045574	-1.695782	-2.292013
H	1.093218	0.0	0.0
H	-0.392255	-0.901917	0.481515
C	-1.843009	0.301048	-1.609237
N	-2.998447	0.511554	-1.648746
N	0.332242	1.062144	-2.226415
H	1.323202	0.844885	-2.102109
H	0.16825	1.932718	-1.722949
N	-0.428562	1.258198	0.610129
H	-1.287294	1.145657	1.131122
H	0.295927	1.584008	1.23595
Br	3.557574	0.0	0.0
