14

C	-0.625227	0.095791	-1.392383
C	0.0	0.0	0.0
Br	0.250902	1.679264	-2.343012
H	1.09557	0.0	0.0
H	-0.345174	-0.960095	0.404297
C	-0.286998	-1.057827	-2.222772
N	-0.125792	-2.01799	-2.880094
N	-2.01788	0.267227	-1.319446
H	-2.317323	0.52164	-0.390577
H	-2.592883	-0.36324	-1.850565
N	-0.577029	1.067371	0.831794
H	-0.292419	0.885335	1.786857
H	-0.112448	1.930069	0.566819
Br	3.623178	0.0	0.0
