14

C	-0.376387	-0.018748	-1.484062
C	0.0	0.0	0.0
Br	-0.086011	-1.844508	-2.190238
H	1.093643	0.0	0.0
H	-0.324188	0.983102	0.364887
C	-1.796752	0.27969	-1.6898
N	-2.924831	0.582738	-1.821697
N	0.439574	0.876967	-2.274576
H	1.412662	0.711436	-2.010986
H	0.213366	1.82993	-2.005128
N	-0.658257	-1.034114	0.787573
H	-0.106819	-1.881419	0.708693
H	-0.614569	-0.759782	1.761505
Br	3.593724	0.0	0.0
