14

C	-0.344072	0.031523	-1.487956
C	0.0	0.0	0.0
Br	-0.10119	-1.88811	-2.228422
H	1.101042	0.0	0.0
H	-0.330018	0.9689	0.390053
C	-1.755423	0.298185	-1.768908
N	-2.878116	0.557439	-2.002153
N	0.499106	0.957887	-2.115028
H	1.467947	0.818837	-1.825714
H	0.412824	0.966113	-3.121446
N	-0.670214	-1.061447	0.731725
H	-0.603355	-0.844705	1.718849
H	-0.152213	-1.920622	0.58847
Br	3.594303	0.0	0.0
