14

C	-0.582033	0.070104	-1.410438
C	0.0	0.0	0.0
Br	0.017091	1.731276	-2.270331
H	1.090755	0.0	0.0
H	-0.370428	0.883762	0.524938
C	-0.085701	-1.03757	-2.244834
N	0.190296	-1.968968	-2.907368
N	-2.022486	0.081707	-1.320476
H	-2.437864	-0.087055	-2.229645
H	-2.254174	-0.684007	-0.690363
N	-0.540331	-1.21902	0.632834
H	0.162399	-1.946391	0.538869
H	-0.632535	-1.04833	1.626544
Br	3.609612	0.0	0.0
