14

C	-0.540496	-0.007004	-1.432694
C	0.0	0.0	0.0
Br	-0.055519	-1.671696	-2.358121
H	1.090065	0.0	0.0
H	-0.311656	0.975489	0.413117
C	-2.017589	-0.005671	-1.384244
N	-3.186629	0.112244	-1.316411
N	0.003394	1.089502	-2.179163
H	-0.492279	1.23815	-3.04711
H	0.018631	1.934352	-1.625982
N	-0.509407	-1.120205	0.768796
H	-1.333949	-0.865493	1.295306
H	0.209106	-1.430496	1.410777
Br	3.711139	0.0	0.0
