14

C	-0.39378	0.044539	-1.482751
C	0.0	0.0	0.0
Br	-0.05348	-1.730545	-2.266717
H	1.091661	0.0	0.0
H	-0.394066	-0.895699	0.491335
C	-1.834622	0.294449	-1.621472
N	-2.991348	0.500391	-1.660971
N	0.353461	1.025707	-2.239295
H	0.188989	1.908714	-1.758235
H	1.340903	0.805686	-2.09648
N	-0.427274	1.266426	0.593537
H	0.296697	1.600376	1.216101
H	-1.286718	1.161297	1.11603
Br	3.562111	0.0	0.0
