14

C	-0.597943	-0.029335	-1.405684
C	0.0	0.0	0.0
Br	0.193287	1.536964	-2.445037
H	1.094812	0.0	0.0
H	-0.355988	-0.914779	0.485687
C	-0.189823	-1.212826	-2.159506
N	0.107116	-2.194246	-2.732795
N	-2.008473	0.049143	-1.320968
H	-2.219225	0.796116	-0.664585
H	-2.436575	0.219235	-2.221008
N	-0.555291	1.163903	0.707898
H	0.098539	1.929394	0.582428
H	-0.561773	0.955086	1.698465
Br	3.60653	0.0	0.0
