17

C	0.0	0.0	0.0
C	-0.607062	0.039974	-1.395091
F	1.389159	0.0	0.0
H	-1.712387	0.166925	-1.136982
C	-0.363547	1.250192	0.713197
N	-0.535219	2.271889	1.266274
C	-0.485533	-1.196611	0.78893
H	-1.584899	-1.160673	0.765162
H	-0.118603	-1.128355	1.815592
H	-0.105136	-2.114656	0.33651
C	-0.415139	-1.256145	-2.183109
H	-1.054887	-2.035954	-1.766569
H	-0.709019	-1.103507	-3.223742
H	0.627097	-1.587705	-2.165689
C	-0.103392	1.181249	-2.146694
N	0.308613	2.076942	-2.788274
H	-3.082245	0.0	0.0
