17

C	0.0	0.0	0.0
C	-0.581999	0.035642	-1.407643
F	1.389311	0.0	0.0
H	-1.689666	0.148711	-1.179977
C	-0.369925	1.251626	0.704954
N	-0.54404	2.277973	1.248576
C	-0.489506	-1.196842	0.784639
H	-0.10192	-2.114298	0.337243
H	-1.588855	-1.161823	0.750239
H	-0.133125	-1.12667	1.814933
C	-0.330805	-1.252192	-2.194429
H	0.721894	-1.545973	-2.149057
H	-0.600386	-1.106754	-3.24262
H	-0.95191	-2.055975	-1.796916
C	-0.073584	1.186834	-2.143586
N	0.342614	2.086508	-2.7765
H	-3.085837	0.0	0.0
