14
Coordinates from ORCA-job run
  C   0.79732465031651      0.02286874485184     -0.32615984768126
  C   -0.64174014502255     -0.42380426574797     -0.58047350066766
  Br  1.88000936226442     -0.56726550164629     -1.95216430561762
  H   -0.63554513873798     -1.51747623265883     -0.64195028549840
  H   -0.94596231100820     -0.05351868129716     -1.56149839872592
  C   0.91288018114156      1.48187579202702     -0.32324350687526
  N   0.97250885120467      2.65522294703907     -0.30150454537747
  N   1.30040173682991     -0.50036705611834      0.88618961673749
  H   2.24771307380748     -0.20053650549940      1.07819185950173
  H   1.25151273209535     -1.51193288568975      0.89678709473713
  C   -1.59854881178768      0.06103208335569      0.50511259773482
  H   -2.61102204728090     -0.28351559183451      0.28310306105909
  H   -1.61901827694782      1.15203052033833      0.55201863865089
  H   -1.30951385687477     -0.31661336711970      1.48559152202242
