14
Coordinates from ORCA-job run
  C   0.68171816325077      0.14979327089470     -0.40896533559214
  C   -0.64333363077460      0.55410508337148      0.24176015602178
  Br  0.42323115466328     -0.19386908012302     -2.33140794221479
  H   -0.99784160050104      1.46416997403090     -0.24888867872345
  H   -0.40303492035169      0.82861504127538      1.27765492984839
  C   1.62589407571700      1.27845136632962     -0.33687829787894
  N   2.39436853269719      2.15849642903700     -0.20134740990599
  N   1.18895774957962     -1.06530910200495      0.18248510892629
  H   2.08468728923819     -1.31506598517380     -0.22094462278520
  H   1.31165792583718     -0.92396200314650      1.18084718526388
  C   -1.71039404134724     -0.53234565180875      0.21949677177562
  H   -1.35402224822294     -1.44588449555564      0.69407793309256
  H   -2.59694076916692     -0.18364581268553      0.75379420507228
  H   -2.00394768061880     -0.77254903444089     -0.80268400290027
