14
Coordinates from ORCA-job run
  C   0.83476327022083     -0.02042148822878     -0.48794015128219
  C   -0.64653688980515     -0.41626613351045     -0.56727609525806
  Br  1.70343949834164     -0.69753725119680     -2.13526286167416
  H   -1.06586509540431     -0.02481838515607     -1.49793881693433
  H   -0.68275820241989     -1.50886202830569     -0.63285269139756
  C   0.96487424160135      1.43928080299200     -0.50709972348548
  N   1.00911520845048      2.61323430621455     -0.48132387397149
  N   1.57792820930502     -0.53285769133027      0.63397361780515
  H   1.34613945108117     -0.02960007853627      1.48200476160291
  H   1.39499198655879     -1.52194037725768      0.75762454971668
  C   -1.44728375689877      0.08224372931827      0.63166583211481
  H   -1.07434110220928     -0.33680900545266      1.56850610263150
  H   -2.49178505150799     -0.21970194324503      0.53125033564742
  H   -1.42168176731388      1.17205554369487      0.70366901448478
