14
Coordinates from ORCA-job run
  C   0.78429026915384     -0.02643866939350     -0.33952758641615
  C   -0.48208690970452     -0.46723764572747      0.40646627501873
  Br  0.62114554582013     -0.57035060991940     -2.23219716225215
  H   -0.29395907670647     -0.24002049437347      1.46368291723659
  H   -0.54115071655978     -1.55713502673589      0.31539579706553
  C   0.89920647235506      1.43484104427028     -0.31766425129209
  N   0.96202379397943      2.60498425463707     -0.23145251337796
  N   2.02128294553518     -0.59062477096167      0.15029535168902
  H   2.22007525999572     -0.22550362877080      1.07625541944432
  H   1.93859995569493     -1.60007040078318      0.20211919762640
  C   -1.78150908660032      0.18681721548732     -0.04311475615657
  H   -2.60690068910788     -0.15978141599347      0.58241199013651
  H   -2.01311171817646     -0.06349503098046     -1.07864045387267
  H   -1.72790604567888      1.27401517924465      0.04596977515051
