14
Coordinates from ORCA-job run
  C   0.74702781957501      0.24542446164511     -0.42620862696411
  C   -0.62213534182686      0.53414794547357      0.21338098559725
  Br  0.48838699613726     -0.07430968861692     -2.35870462708744
  H   -1.06922685499584      1.39112805375702     -0.29787979287285
  H   -0.41147744522139      0.84909941768369      1.24342740023532
  C   1.58405969468263      1.44412502962424     -0.30791636703643
  N   2.22136975624065      2.41793982372584     -0.14650423061101
  N   1.48977210368385     -0.87919986341744      0.09298882436415
  H   0.94816297933441     -1.73028685643652      0.00558386217160
  H   1.71664639621354     -0.72098435685123      1.06956878073475
  C   -1.58205115109873     -0.64760361903950      0.22044745865893
  H   -2.52464355725915     -0.35132339883122      0.68489300912740
  H   -1.80013784163488     -0.99182773360686     -0.79122683312435
  H   -1.18775355383050     -1.48632921510977      0.79815015680679
