14
Coordinates from ORCA-job run
  C   0.79617389218502     -0.01115043471449     -0.30543766998011
  C   -0.49656012428081     -0.48258830319738      0.37352386681558
  Br  0.72156140797078     -0.51342960274809     -2.21560212647983
  H   -0.53985965802371     -1.57055240284586      0.25498349774094
  H   -0.35732732492924     -0.27834822598145      1.44294041930743
  C   0.89455696115636      1.45022202275246     -0.24498226868161
  N   0.96861839300932      2.61693974785026     -0.12719235533010
  N   2.01713332783762     -0.57274597268480      0.22532036603152
  H   1.94239174568733     -1.58364036618053      0.25646007630443
  H   2.17490983211049     -0.22152189301092      1.16440261680343
  C   -1.78174952061896      0.16934597000787     -0.11799633596021
  H   -1.74280980002881      1.25488284880121     -0.00391394512105
  H   -1.96624274160877     -0.06071036424873     -1.16755814762643
  H   -2.62979639046662     -0.19770302379956      0.46405200617601
