14
Coordinates from ORCA-job run
  C   0.72368298023556     -0.14161213496907     -0.31122377285104
  C   -0.55525372399491     -0.48666859770962      0.44863973606560
  Br  0.57306811740245     -0.72357385116725     -2.18550582598847
  H   -0.36377463229655     -0.23360586048954      1.49991996624475
  H   -0.66310429136453     -1.57277731732162      0.39037166831953
  C   0.92114024500108      1.31732513334128     -0.35406158985445
  N   1.10648347603872      2.47803237207627     -0.31080551154572
  N   1.83684521177684     -0.86183738304026      0.26239248761328
  H   2.69996829759745     -0.63021516538905     -0.21674591167016
  H   1.93152899295100     -0.60531580678729      1.24028977007048
  C   -1.80911270465960      0.23118409867513     -0.02996249296730
  H   -1.70046449512097      1.31562748716307      0.04125336121047
  H   -2.65995237463394     -0.06137349273681      0.58870371839898
  H   -2.04105509893262     -0.02518948164525     -1.06426560304593
