14
Coordinates from ORCA-job run
  C   0.73108206728914      0.27001461125537     -0.26966614450716
  C   -0.69350596018534      0.55198712719401      0.21127283891464
  Br  0.64563928894745     -0.03680211460712     -2.29350717716926
  H   -0.59236943134804      0.92817923677536      1.23510498827387
  H   -1.10272609130414      1.35817165849107     -0.40062187254514
  C   1.56212409414688      1.46682931955204     -0.13644738714880
  N   2.21331069160671      2.43435299824487      0.00638630502763
  N   1.32727106997897     -0.80524678658317      0.42364140358904
  H   0.80779877418748     -1.66399962293507      0.29754746638700
  H   2.29234671500350     -0.95002851315248      0.15541405027050
  C   -1.61235097611829     -0.66286582344159      0.19155352853582
  H   -2.62664161154679     -0.35841575781103      0.45639162818769
  H   -1.30330020779802     -1.41311454173428      0.92260365838829
  H   -1.64867842285951     -1.12006179124799     -0.79867328620414
