14
Coordinates from ORCA-job run
  C   0.77256317995061     -0.00422774033313     -0.15385679893489
  C   -0.55168139944970     -0.47443639677144      0.44748395939492
  Br  0.78567003829871     -0.54353008688782     -2.12135405475869
  H   -0.47795522715720     -0.24130675668282      1.51515010145635
  H   -0.58230560330649     -1.56487572410724      0.34953630896355
  C   0.86323390729031      1.45601690655249     -0.17721110621894
  N   0.91752818926361      2.62977497878850     -0.16172245807558
  N   1.86982393211050     -0.54178952975228      0.55881397951407
  H   2.76048065467738     -0.25293869892088      0.17394000844116
  H   1.82402982868598     -1.55306636604220      0.58930421429522
  C   -1.80231352253844      0.15436427696800     -0.14860704949989
  H   -2.68289200256480     -0.20353201533634      0.38886274550219
  H   -1.77743551238899      1.24260693332253     -0.06029468300114
  H   -1.91874646287148     -0.10405978079738     -1.20104516707832
