14
Coordinates from ORCA-job run
  C   0.82247492535409     -0.14593023947586     -0.48741016419229
  C   -0.60555900758485     -0.67683244276083     -0.29812437162315
  Br  1.73097798563585     -1.37011955782524     -1.75422491154452
  H   -1.08385083885133     -0.75680259328648     -1.27788804376691
  H   -0.51887956194544     -1.69297880509152      0.10095949051381
  C   0.78592237432363      1.17399014495776     -1.12354489045538
  N   0.69616617949005      2.24692570714906     -1.59399274254579
  N   1.63903017273963     -0.06301193801353      0.69538091820898
  H   1.37410130822517      0.73228183320265      1.26389331965376
  H   1.56546211309706     -0.91606045571115      1.23736267291860
  C   -1.43470716836419      0.20283573957786      0.63237584353368
  H   -1.52890393547139      1.21899296654792      0.24242026091555
  H   -2.44089176324008     -0.20902978222795      0.73291535222345
  H   -1.00034278340819      0.25373942295729      1.63287726616020
