14
Coordinates from ORCA-job run
  C   0.79462589011278     -0.01617390537958     -0.31600677600032
  C   -0.48656871487865     -0.47278986787769      0.39422059541313
  Br  0.69512110319433     -0.57026789311905     -2.21018669790863
  H   -0.52733381221498     -1.56379227252730      0.30558407944801
  H   -0.33343940351361     -0.23936092308762      1.45579046476717
  C   0.88704256643650      1.44667749798177     -0.29798382605831
  N   0.92732052323448      2.61807969982566     -0.21596560801045
  N   2.02492955827889     -0.55992120930312      0.21238071163290
  H   2.18926288797593     -0.19007097643260      1.14329126863613
  H   1.95595980424673     -1.57042394348326      0.26444791777528
  C   -1.78160546269234      0.16062523275681     -0.09611035356389
  H   -1.74554287314365      1.24893422189970     -0.01225838827088
  H   -1.98028941088159     -0.09876108788648     -1.13619723591398
  H   -2.61948265615481     -0.19375457336724      0.50799384805382
