19
Coordinates from ORCA-job run
  C   -0.68340282665846      0.39198911563764     -0.21079940789661
  C   0.84998440413729      0.39145642666149     -0.08645721654274
  Br  -1.15148166617037      1.75476036781452     -1.56249624673406
  H   1.16882360337449      1.40131744432033      0.17821626702172
  C   -1.28603551784576      0.85885660028223      1.11077559023634
  H   -1.14343904240674      0.09595477331553      1.88077291670271
  H   -0.83515063380434      1.79485038908479      1.44787858598424
  H   -2.35850502458723      1.02002176021747      0.99210657944873
  C   -1.30599983019575     -0.92497987173545     -0.64917734533699
  H   -2.39054853424057     -0.80991671057482     -0.69624774820071
  H   -0.94403450689157     -1.24525444789050     -1.62360192701471
  H   -1.07830011740250     -1.70668679849171      0.08113217163218
  N   1.51934733848443      0.14213916704805     -1.40801655812399
  O   2.16605797899008      1.06659714283280     -1.89367771951751
  O   1.39973013132032     -0.98068838922611     -1.89658807552484
  C   1.40399157494879     -0.62724778770405      0.90012023066419
  H   1.14341257075210     -1.64300820993605      0.60579107746411
  H   1.03415924864781     -0.43251563131352      1.90684152219578
  H   2.49339084954798     -0.54864534034267      0.92442730354216
