19
Coordinates from ORCA-job run
  C   -0.69302208963391     -0.01386813759429     -0.18325709322931
  C   0.80705866974275      0.00240951103442      0.16837725715202
  Br  -0.97115501913461     -0.51529367518491     -2.06745396439332
  H   0.85328851006767      0.15747692129754      1.25039549370767
  C   -1.33159700286224      1.35342040319315      0.02475380362851
  H   -0.92608211535232      2.10051238103282     -0.65787526008618
  H   -2.40740057128360      1.28631037909800     -0.14490978591982
  H   -1.15402973774252      1.69223460836967      1.05010657530775
  C   -1.39426789080808     -1.06467410949984      0.67151873754346
  H   -1.00220023395481     -2.06653557417643      0.49642379441760
  H   -2.46058054877620     -1.07682398885860      0.44047639803481
  H   -1.27340451402364     -0.81488893269074      1.73102083836366
  N   1.44804487157070      1.24341885612704     -0.38366389839123
  O   1.81120359943171      1.22541945350946     -1.55688527693585
  O   1.54030477055801      2.20583436997083      0.37912177038805
  C   1.62960653507753     -1.20467784522589     -0.23541752878373
  H   2.65065226698858     -1.09197059972083      0.13632172810185
  H   1.21085143112989     -2.11351977775867      0.19793748224030
  H   1.66172906900511     -1.30578424292273     -1.31799107114625
