19
Coordinates from ORCA-job run
  C   -0.68828173358344      0.16657408851572      0.36582480939483
  C   0.84563768540721      0.32270363111369      0.28216168729729
  Br  -1.11620788882419      0.38916810278943      2.28479444505992
  H   1.12175112185674      1.25154407086254      0.78278449720348
  C   -1.20029896959562     -1.19829025091056     -0.06363624697122
  H   -0.79240256372274     -1.99907274285431      0.55320456868510
  H   -0.92422547302729     -1.38108897763037     -1.10478194910939
  H   -2.28813134302666     -1.22510871745310      0.02303514279344
  C   -1.39453913295590      1.28853955086033     -0.38301238564167
  H   -2.46587208187143      1.25762659354265     -0.17929643446364
  H   -1.01106387029269      2.26818400036188     -0.09226328937369
  H   -1.24914289967620      1.16370292894745     -1.46023392321854
  N   1.20623722122652      0.57651906496607     -1.15856894333062
  O   1.16845645356823     -0.37827732669593     -1.93405028294722
  O   1.49063034192603      1.73224618985007     -1.46876607120537
  C   1.66598061800299     -0.84596793446508      0.79116672400658
  H   1.50052139465298     -1.73336263634592      0.18210585266734
  H   1.40136851114567     -1.06072177824394      1.82684137300351
  H   2.72858260878979     -0.59591785721062      0.75269042614988
