19
Coordinates from ORCA-job run
  C   -0.71330905784147      0.32694716986080     -0.22407611887034
  C   0.81736627092154      0.44665695361079     -0.12471717612886
  Br  -1.29667165686649      1.56394407090287     -1.64961406897523
  H   1.06314170424440      1.49213425107463      0.07050182899135
  C   -1.33394646299877      0.83011545887672      1.07556877167173
  H   -2.41679263666551      0.90316009780646      0.96427938268745
  H   -1.12554541916389      0.13026895206539      1.88922565057540
  H   -0.95108469475155      1.81659600361512      1.34635154071071
  C   -1.24068800508952     -1.05742769828246     -0.57028444740350
  H   -0.86733514971868     -1.40998806151598     -1.52915053129988
  H   -0.94598719764226     -1.77268637208076      0.20289074184012
  H   -2.33130636861225     -1.02647959886711     -0.60634026585059
  N   1.48777827675685      0.16226725133570     -1.43814105199111
  O   1.44773107331577     -0.99586422184976     -1.85164207952291
  O   2.05755606704711      1.09844194669385     -1.99294783329861
  C   1.45665337887146     -0.46241884470734      0.91585590786718
  H   1.08626260883535     -0.22802063044885      1.91390073057463
  H   1.26756713700102     -1.51175528181785      0.69354760715118
  H   2.53761013235689     -0.30389144627219      0.91579141127128
