17
Coordinates from ORCA-job run
  C   -0.85716241366310     -0.24062479345284      0.17834317243653
  C   0.53650625413611     -0.29261939550158     -0.44963259985086
  Cl  -1.63379094205397     -1.84355675731615      0.18417394954431
  H   0.43233130671473     -0.78345333616073     -1.42168480580797
  N   -0.83021341205765      0.30439737127016      1.46660886197269
  H   -1.76457183236053      0.47028179604543      1.81797086233743
  H   -0.30883791361873      1.17460139589845      1.41981650517876
  N   -1.77064624406960      0.59331778663580     -0.78792793373322
  O   -1.53066019294260      0.53996298408787     -1.98962165317067
  O   -2.67552551697057      1.22955410154643     -0.26256973211831
  C   1.50048232340779     -1.07694055217158      0.42536689804327
  H   2.46124842596173     -1.17058184545978     -0.08796992843386
  H   1.65126850471571     -0.56654748641738      1.37730449599167
  H   1.12605295973341     -2.07913550768311      0.63055015820393
  N   0.97434039417010      1.10036696475270     -0.56085379466613
  H   0.70820409629043      1.48071792644400     -1.46069398425079
  H   1.98097420260674      1.16025934748229     -0.47918047167678
