17
Coordinates from ORCA-job run
  C   -0.94194402607899      0.13583957903002     -0.11920218595814
  C   0.52141620318724     -0.33553251714381      0.02085122858564
  Cl  -1.16960574014453      0.92718104341084     -1.68604741136089
  H   0.54599090153459     -0.82919839247243      0.99888728716799
  N   -1.93017529666527     -0.88254798115734      0.03499308665868
  H   -1.89803341907785     -1.21375287373858      0.99335306269576
  H   -1.65990123097545     -1.64252920482915     -0.58141623656865
  N   -1.17348325210027      1.14610308248070      1.00757003897038
  O   -1.22074404418122      0.63167152088594      2.12410373468826
  O   -1.22643534478622      2.34082973036800      0.76323264033635
  C   1.54283414291537      0.79531289609010      0.00739452980827
  H   1.50973779208201      1.33899097163634     -0.93885011138587
  H   2.54431302881086      0.37548236520860      0.12883548924757
  H   1.38091583392875      1.51038382987627      0.81720860254837
  N   0.72088321569419     -1.37074105895749     -0.98732047069854
  H   0.97504221292748     -0.94731751692341     -1.87254033635266
  H   1.47818902292933     -1.98117547376461     -0.70805294838250
