17
Coordinates from ORCA-job run
  C   -0.85606128458733      0.03681850836320     -0.18117634023543
  C   0.64065573055548     -0.28252080492726     -0.05034416785567
  Cl  -1.24631252653998      0.90161141468056     -1.65787885250503
  H   0.70984878605307     -0.83371767424076      0.90387996189384
  N   -1.61302188180745     -1.16564765607582     -0.11965818344239
  H   -2.58703686112703     -1.00021187407070     -0.34266462277242
  H   -1.54090343270328     -1.55846085011371      0.81212848876739
  N   -1.17830396547128      0.96916126303690      1.02974069798600
  O   -1.25097704743780      0.36713422286192      2.10091591159929
  O   -1.26637486568761      2.17751539004247      0.87704831812119
  C   1.51644179674886      0.95553860922053      0.03976353871705
  H   2.56525944722116      0.65035546421942      0.07739118528588
  H   1.31291361247772      1.54001838159332      0.93829270552380
  H   1.37559415632965      1.58391692711705     -0.84005678207472
  N   1.01820729258483     -1.07391575200115     -1.20743197407378
  H   0.42208046548561     -1.89018504170084     -1.27112554616309
  H   1.97899057790537     -1.37741052800514     -1.11082433877192
