17
Coordinates from ORCA-job run
  C   -0.93422346187755      0.13782269421513     -0.16723755567444
  C   0.51932748379842     -0.33662105198009      0.04546731539729
  Cl  -1.07940713134826      0.93981193224207     -1.73854243542277
  H   0.49243547997498     -0.83670776202923      1.02019587778856
  N   -1.93038629321623     -0.88028452407227     -0.07150912733049
  H   -1.62908056619327     -1.63600677791043     -0.67877004447931
  H   -1.94674735577870     -1.21887402752883      0.88471933046388
  N   -1.22339105251487      1.14107937247393      0.95259334755928
  O   -1.32968959242270      0.61931754618021      2.06158147326725
  O   -1.26214827771668      2.33736709047284      0.71361956500681
  C   1.54123008453703      0.79277898217815      0.09274898727492
  H   1.55904592028525      1.34221449580993     -0.85056456294087
  H   1.33718731371604      1.50310671479956      0.89720524642264
  H   2.53455954544933      0.37128249768164      0.26490039305022
  N   0.76950600012980     -1.36568878598808     -0.95777745867091
  H   1.51259954702271     -1.97714480774502     -0.64443673720457
  H   1.06818235615471     -0.93645358879951     -1.82619361450751
