17
Coordinates from ORCA-job run
  C   -0.85802802706224      0.16151409566581      0.02509573000095
  C   0.58593604062009     -0.35645385894603      0.07560499897371
  Cl  -1.03681765638189      1.28170978769356     -1.41656212770130
  H   0.65478544841798     -0.86547173964794      1.04077946925471
  N   -1.76574475606711     -0.89841973359404      0.04512766839897
  H   -1.45064192559712     -1.61798099763286     -0.59490222022922
  H   -2.71691091958352     -0.60081171174018     -0.12551015060970
  N   -1.21734951550799      1.02339983381216      1.23658473367550
  O   -0.38758829851025      1.12550794244916      2.13430346451129
  O   -2.35080029031948      1.48343297606990      1.24548158782302
  C   1.66619960362807      0.71448398268973     -0.01088896576973
  H   1.68785274398121      1.16281712237445     -1.00540318177496
  H   2.63644970527984      0.24589323276139      0.17236079633426
  H   1.52594870853727      1.50306498058610      0.72685972655460
  N   0.68368587432226     -1.38046754067352     -0.96709906082139
  H   0.92755037445833     -0.94523632246600     -1.84986955355435
  H   1.41647288978455     -2.03798204940169     -0.73396291506637
