17
Coordinates from ORCA-job run
  C   -0.95909082873399     -0.12420223105551      0.13332296144076
  C   0.44669006070180     -0.29470187577774     -0.47465988233772
  Cl  -1.85684226736856     -1.65084820895079      0.04644238313518
  H   0.31941874625795     -0.75358212373234     -1.46125773578697
  N   -1.03905336347190      0.39999471034051      1.44437254017079
  H   -0.40419385871620      1.18734153238687      1.51976926161185
  H   -0.81807938067817     -0.31023416602966      2.12825199965508
  N   -1.67429966759860      0.86949950394340     -0.81602335164918
  O   -1.70578210772860      0.54227203968784     -1.99875388318490
  O   -2.08230386934935      1.92003389857632     -0.34495793913679
  C   1.31999822845574     -1.17703694955675      0.39956945545144
  H   0.85798851303926     -2.14662843907200      0.58515537474332
  H   2.27781780492102     -1.35211262236941     -0.09674049310942
  H   1.51811309666995     -0.68662719569120      1.35548239960692
  N   1.01304176661277      1.05159162038381     -0.53280342183764
  H   2.02291130744620      1.01476935550298     -0.48253380820220
  H   0.76566581954068      1.50847115141368     -1.40263586057054
