17
Coordinates from ORCA-job run
  C   -0.86143743766177     -0.08999894389342      0.15967312550580
  C   0.48366969938279     -0.32279543989541     -0.52278472349374
  Cl  -1.74027620072841     -1.67483666344440      0.36453109628593
  H   0.28168265536588     -0.89146027859111     -1.43251816520635
  N   -0.72769810762243      0.65293830885662      1.34824118004054
  H   -0.41464738042212      0.06166285530145      2.10629846783887
  H   -1.59846246819735      1.10755432725499      1.59367919859026
  N   -1.74604970657483      0.70250831923437     -0.81046089820568
  O   -1.78363385479137      0.29660855728340     -1.95967137960945
  O   -2.36836059336491      1.65309811002055     -0.35200357619241
  C   1.44918668785736     -1.09426275763985      0.37270274248025
  H   1.05070426931966     -2.06185169441887      0.68407263104266
  H   1.69925448735423     -0.50716695630684      1.26072288288762
  H   2.37831616413937     -1.27118727318877     -0.17371199498627
  N   0.93850107180876      1.00252011781930     -0.91809031980144
  H   1.67163648423320      0.93394630621874     -1.61156325716708
  H   1.28861422990193      1.50372310538923     -0.11111701000950
