17
Coordinates from ORCA-job run
  C   -0.86627331377403     -0.06134772065771      0.16828009804972
  C   0.46684436565257     -0.29582966457166     -0.53828214741805
  Cl  -1.80297441350523     -1.63511065786326      0.26018773387992
  H   0.23960409610675     -0.81186553240525     -1.47245365932949
  N   -0.70681859648299      0.58569706852732      1.40211964617174
  H   -0.30275577870620     -0.03666560790944      2.08836785616391
  H   -1.58159367557457      0.96865568083374      1.73698148481301
  N   -1.74204030951430      0.81677691916467     -0.72762990619997
  O   -2.42636142228237      1.66715641405217     -0.17088844174425
  O   -1.72823866938676      0.56449834576136     -1.92104956398002
  C   1.41388734064032     -1.14649194780585      0.30359193416023
  H   1.73310922483609     -0.59687036924930      1.19390076714017
  H   2.31055531851459     -1.36593217211165     -0.27990566908510
  H   0.96748362062653     -2.09433215608282      0.61002942205674
  N   0.97088028495882      1.02923793026611     -0.86832741317706
  H   1.49442123560027      1.41835023679763     -0.09530874257053
  H   1.56027069229051      0.99507323325394     -1.68861339893099
