17
Coordinates from ORCA-job run
  C   -0.81306059301585      0.02321083816362     -0.17623738900254
  C   0.67310370923959     -0.35614041773837      0.03637015829561
  Cl  -1.07476859608485      0.84458347576365     -1.71334831138727
  H   0.67515072264617     -0.90279866615405      0.98838917319100
  N   -1.62214234751033     -1.14272470332024     -0.12581480892455
  H   -1.58841539301421     -1.53467340308328      0.80839397506844
  H   -2.58351150573524     -0.94052081235544     -0.37304448894021
  N   -1.16446073947219      1.01244004726628      0.97055850302179
  O   -1.21868601956969      2.21553719772934      0.76558273991087
  O   -1.28610505048880      0.45585967790535      2.06206578402753
  C   1.58310152139283      0.85324790692203      0.16676932958039
  H   1.34844542213741      1.45588781161952      1.04478378785906
  H   2.60984129187295      0.49725135580280      0.25768209106216
  H   1.51435636671069      1.49387254403980     -0.71562479669143
  N   1.16846728082687     -1.24951971168224     -0.98809526935237
  H   0.49219763521412     -1.98673124325288     -1.15162702870417
  H   1.28648629485054     -0.74078189762590     -1.85680344901432
