17
Coordinates from ORCA-job run
  C   -0.92926380408930     -0.17153999926068      0.00200343607106
  C   0.54610854600938     -0.45927569009056     -0.31877642159225
  Cl  -1.93981018782399     -0.98154373714031     -1.27621318378548
  H   0.60358129260028     -1.56093782964914     -0.35824692754576
  N   -1.27833569853676     -0.56507098732514      1.30576680494976
  H   -1.02003718003085     -1.53013829856229      1.46719015216492
  H   -2.26809291630431     -0.44850654684980      1.48505033608830
  N   -1.16984994374990      1.34683357181202     -0.12749951727128
  O   -1.69782252124831      1.78346457158769     -1.13652141391659
  O   -0.75100419038168      2.00428493919258      0.81865352298898
  C   1.50100502743112      0.03903429657100      0.75754279404344
  H   2.50441367500276     -0.33647177875463      0.53576596580327
  H   1.52727361345090      1.12784590733195      0.76395801683038
  H   1.21254583299707     -0.30638214705372      1.74871524389438
  N   0.87615685106882      0.18557196228591     -1.57797464440739
  H   0.40778868446511     -0.26238968884233     -2.35555304270379
  H   1.87434291913965      0.13522145474746     -1.73486112161195
