17
Coordinates from ORCA-job run
  C   -0.78783655383569     -0.19628905540698      0.10849375202843
  C   0.65159694780866     -0.34930822402888     -0.40706199449453
  Cl  -1.47557095768212     -1.84994160450931      0.50087997942111
  H   0.63202407114953     -1.12738210067343     -1.17155470253100
  N   -0.89087765704393      0.73809540150787      1.15005300842485
  H   -0.43323470371329      0.39989051551938      1.98565212502509
  H   -1.85619834287917      0.97138074722030      1.34647478722731
  N   -1.69758501746899      0.28236028073956     -1.02603977829950
  O   -1.42970862529259     -0.11351890166613     -2.15328421602269
  O   -2.64702225333324      0.99320254776244     -0.71746004431902
  C   1.58734028295173     -0.76047632463409      0.72291709192962
  H   1.23068101987474     -1.63856434340723      1.26304767477942
  H   1.72525789414520      0.06579263166465      1.42592604313095
  H   2.56431038798007     -0.98193165604897      0.29364893754568
  N   1.15022788066445      0.86902099212602     -1.01674821492028
  H   0.69433538505106      1.04240131104628     -1.90278489464024
  H   0.98326024162357      1.65726778278853     -0.40215955428521
