17
Coordinates from ORCA-job run
  C   -0.85292414324148     -0.17096874199985     -0.09529094319695
  C   0.65069021204286     -0.51321825668030     -0.25533732051060
  Cl  -1.75990114685019     -0.69890747023386     -1.60211645606209
  H   0.66965220701185     -1.60403890572591     -0.12708335395408
  N   -1.37385642124904     -0.71186126634146      1.08740871539729
  H   -1.27489486612574     -1.71798613510301      1.09994735113357
  H   -2.33712384348338     -0.44276574063895      1.24025280021403
  N   -1.11051882093323      1.33453390784631     -0.05266825655425
  O   -0.36557300906099      2.04960598000798     -0.71339372941741
  O   -2.06553725444809      1.71556706048770      0.61279666876941
  C   1.45623702279090      0.11897459318666      0.87677099873060
  H   2.46144514188054     -0.30285889210068      0.85562660110780
  H   1.00249526820380     -0.06813494563467      1.84922273108084
  H   1.54402818506369      1.19739033995965      0.72906703517496
  N   1.28824548397858     -0.23056810753533     -1.51933025145261
  H   1.24006596281080      0.76160252372848     -1.70991439869327
  H   0.82747002160912     -0.71836594322278     -2.27595819176723
