17
Coordinates from ORCA-job run
  C   -0.86050668481239     -0.17934112800807      0.05304528971112
  C   0.57145988903470     -0.25416056733058     -0.46904891418448
  Cl  -1.59234043705976     -1.84924016905105      0.11010006320946
  H   0.53552453276903     -0.80470897010607     -1.41104621155981
  N   -0.94254203545860      0.52757694056878      1.26811157896321
  H   -0.66235481438315     -0.05962868246541      2.04210384196546
  H   -1.87806830889542      0.88427461434051      1.41905636536584
  N   -1.70155410214323      0.55883059195731     -0.99524312219128
  O   -1.56348368023296      0.19481915619294     -2.15080502912455
  O   -2.46661046547689      1.42597954701178     -0.59043810526228
  C   1.49936426201765     -0.96086782347159      0.51510079904455
  H   2.49952543167629     -1.02272602576198      0.08037369877496
  H   1.16900892414372     -1.97476118959887      0.74928685248987
  H   1.58155144811586     -0.38755500982888      1.44265292677804
  N   0.93259849290544      1.12335604981799     -0.77258012565891
  H   1.13367999098237      1.62565256221058      0.08313001758435
  H   1.74474755681733      1.15250010352260     -1.37479992590555
