17
Coordinates from ORCA-job run
  C   -0.99083789375913     -0.20034772473903     -0.08015578270257
  C   0.50802932428628     -0.46808480197078     -0.34059724982627
  Cl  -1.92344368977262     -1.03327238247293     -1.34332553608754
  H   0.56862692880693     -1.56807700052811     -0.40521264240422
  N   -1.52905310787551     -0.58046313178575      1.18639968216009
  H   -1.41424236790944     -1.57415185965488      1.33731888780554
  H   -1.08520211670650     -0.05047459638503      1.92496536286523
  N   -1.21727729589892      1.31041470839494     -0.20204850373882
  O   -1.65132883306164      1.78205442688523     -1.23701682333760
  O   -0.87984402848374      1.93639864606879      0.80127081266061
  C   1.41553516842669     -0.00928070156486      0.79185688604040
  H   2.43937940207640     -0.32310916928958      0.57014903194812
  H   1.13987247643635     -0.46285803800769      1.74451768138221
  H   1.39967704153980      1.07572178326461      0.88804636009015
  N   0.90130131757033      0.21670059826406     -1.56061678890442
  H   0.42077931189901     -0.16546528105079     -2.36580718166500
  H   1.89702836242570      0.11329452457179     -1.70874419628591
