17
Coordinates from ORCA-job run
  C   -0.86545009707387      0.01517103809941     -0.13159525214218
  C   0.64167444784661     -0.27485109361340     -0.07454095785196
  Cl  -1.35664593057338      0.80396662846916     -1.62061720760577
  H   0.77609581486562     -0.77894598766599      0.89863244828459
  N   -1.59632207096991     -1.19418445880679      0.02989411130990
  H   -1.46551257363998     -1.54064936435467      0.97357856270565
  H   -2.58393500578526     -1.05450190582018     -0.14577700025798
  N   -1.13352223756038      0.99850506869271      1.05229152604582
  O   -1.13551843619355      0.44638675094253      2.15242680601887
  O   -1.24841208311272      2.19722909764413      0.84934509079885
  C   1.49926276857285      0.97897821940317     -0.09402246960398
  H   2.55370800267749      0.69159489726822     -0.10544283313598
  H   1.33895955785394      1.60186471271227      0.78728066801789
  H   1.29555104769384      1.56339521004814     -0.99166701189516
  N   0.96492858116024     -1.11465788589480     -1.21365688323186
  H   1.93514922606692     -1.39824138797330     -1.16132706208625
  H   0.38098898817154     -1.94205953915060     -1.20380253537045
