17
Coordinates from ORCA-job run
  C   -0.86414171247693     -0.17299882131579      0.18823669205070
  C   0.56082186653132     -0.28830248272691     -0.36847124856039
  Cl  -1.40804571657685     -1.76761050253307      0.83108198441673
  H   0.51262352218847     -0.99451823133401     -1.20494109645933
  N   -1.01135318403322      0.87199837285669      1.08691233221191
  H   -1.66453115917401      0.75445010613478      1.84019636277512
  H   -0.17074293997931      1.39497663659041      1.26733588922778
  N   -1.87177070686986      0.06680256267132     -0.98621968573005
  O   -3.02197787630709      0.30832062488803     -0.65882646278473
  O   -1.43732192918279      0.03211202805316     -2.13606922104137
  C   1.53656184020498     -0.81483753797217      0.67597906156147
  H   1.54912261083924     -0.17405458333253      1.55950080731230
  H   2.54306964504756     -0.82308024360268      0.24897343066488
  H   1.29656229565749     -1.83140829996902      0.98052172341532
  N   0.98186105290786      1.05476367719775     -0.75846381370983
  H   0.49567121135402      1.33282061190831     -1.60296364642620
  H   1.97359117986911      1.04956608248574     -0.96278310892432
