17
Coordinates from ORCA-job run
  C   -0.95960442819874     -0.22370261707300     -0.11297173662458
  C   0.55955148735074     -0.53329959536627     -0.31113085878561
  Cl  -1.87017421102845     -0.88240591088073     -1.49123499178665
  H   0.60564821084786     -1.62461931921644     -0.20077308038712
  N   -1.56777673075296     -0.70334327909214      1.08211749476953
  H   -1.21984596465176     -0.21174708984984      1.89332440783867
  H   -1.42768805187832     -1.70121521551959      1.17048947571843
  N   -1.09605774762367      1.29501724610352     -0.11454176652114
  O   -0.96987108321297      1.87200392003093     -1.18830518512295
  O   -1.20011955886923      1.83411634439476      0.98414949242022
  C   1.39170716258346      0.11105642076228      0.79170520317846
  H   1.03097229640257     -0.13346114901017      1.79104085644325
  H   1.40715373891167      1.19987483937073      0.69054459083728
  H   2.41676843888109     -0.24669229839616      0.69537881032237
  N   1.14664547944430     -0.20369539871239     -1.58922510512955
  H   1.11658012041333      0.79694776150472     -1.74574035130765
  H   0.63711084138108     -0.64483465905022     -2.34382725586297
