17
Coordinates from ORCA-job run
  C   -0.80005097850810     -0.18002418560491      0.28479285245566
  C   0.57449319088599     -0.49009923884542     -0.33963484092946
  Cl  -1.52850819392202     -1.63122862735366      1.00754919684303
  H   0.41991994147544     -1.35719563578484     -0.98507093893063
  N   -0.75673259777218      0.84962980944631      1.24038886339189
  H   -1.67787873272104      1.05054919009308      1.60886188144109
  H   -0.38998161540076      1.69469007403047      0.82020912011007
  N   -1.74946890695621      0.16831027024652     -0.91281090592519
  O   -1.75432737203986     -0.60276351664360     -1.86396409340317
  O   -2.39301351904807      1.20934017390593     -0.82289036914166
  C   1.59601387391155     -0.82126786100477      0.73621913348516
  H   1.78372549787297      0.04836568842012      1.36914482741662
  H   1.25558350460307     -1.63409357903733      1.37690167067989
  H   2.52835854240922     -1.11358630174275      0.25178041550855
  N   1.08388154382493      0.58213342125079     -1.17299213015995
  H   1.32891696148685      1.41163273835240     -0.64980446000689
  H   0.48006885989822      0.81360758027168     -1.94968022283500
