17
Coordinates from ORCA-job run
  C   -0.88581683602887      0.05444075628649      0.11622692973200
  C   0.61519703945414     -0.29323469726386      0.03746581655179
  Cl  -1.37347270558672      0.97241475640306     -1.40613672656102
  H   0.82297387180281     -0.75091678031545      1.01188630959964
  N   -1.61417823272812     -1.10404208337990      0.34520206891690
  H   -1.31161091173351     -1.82184906822247     -0.30107407446499
  H   -2.61378289178847     -0.96550324412641      0.36284771865651
  N   -1.19216822610288      1.05438036471590      1.24340017850062
  O   -2.06467200586523      0.73945806950118      2.04336756301664
  O   -0.55326907967757      2.09878573977572      1.25248064334517
  C   1.59295791195410      0.84895704764731     -0.20769738233480
  H   1.35501121615943      1.37429038281364     -1.13425849555116
  H   1.60427986995046      1.57511763273893      0.60162652624237
  H   2.59329413668829      0.41799478442457     -0.30218691409691
  N   0.70797971530134     -1.36304790993157     -0.96193971260174
  H   0.75545651455497     -0.94875774638561     -1.88685934323583
  H   1.56082061364583     -1.88848800468152     -0.81635110571519
