17
Coordinates from ORCA-job run
  C   -0.94507723195481      0.12128513118780     -0.11160723115234
  C   0.52546357416361     -0.32863817672409      0.02414137601860
  Cl  -1.20127237336129      0.86224813663907     -1.69911108418159
  H   0.56770008392146     -0.79121049665097      1.01668473981804
  N   -1.91848996577707     -0.90369880338988      0.08552107128642
  H   -1.87558704345780     -1.20020940114587      1.05471794350076
  H   -1.64238399119743     -1.68118301003377     -0.50600554375336
  N   -1.17488297562142      1.16325393820026      0.98639154539512
  O   -1.20641072946707      0.68292529712687      2.11849907025331
  O   -1.24003146570505      2.34939189021958      0.70633143995057
  C   1.53365719953376      0.81247954828878     -0.03778549182622
  H   1.48260733611357      1.32538043093313     -1.00024380762866
  H   2.54125955829659      0.40780265600544      0.08446523238346
  H   1.37348806324406      1.55102736637937      0.75102263452373
  N   0.72407077664714     -1.39264653877003     -0.95370190299834
  H   0.95831905703336     -0.99415120957069     -1.85584965250470
  H   1.49457012758836     -1.98305675869501     -0.66747033908480
