17
Coordinates from ORCA-job run
  C   -0.88430008829868     -0.33285394437030     -0.11220023965224
  C   0.64332938521726     -0.53988402712827     -0.31248875647786
  Cl  -1.80405672428700     -0.93881746198800     -1.50116052357128
  H   0.75874200922051     -1.62183688330748     -0.19061035389688
  N   -1.35111487102283     -0.98053886594777      1.05098016160179
  H   -0.92881069700123     -0.57937614232131      1.87734565237478
  H   -2.35738157990729     -0.90428640071674      1.13400900059083
  N   -1.12631375447999      1.20624035833864     -0.07120751017918
  O   -0.90348130556242      1.84744381760106     -1.09177394490712
  O   -1.43103218584244      1.67765754688436      1.02099210778870
  C   1.43097967153958      0.17657986162598      0.78097756289451
  H   2.48156910597264     -0.08893160657014      0.66513810205519
  H   1.11991787974265     -0.09914996135832      1.79000383172666
  H   1.34886977842630      1.26249876009190      0.67914427412343
  N   1.19906914164740     -0.17773320870783     -1.59552814310018
  H   0.76218240435646     -0.70896752885615     -2.33749088458820
  H   1.03983183027907      0.80395568673037     -1.78713033678293
