17
Coordinates from ORCA-job run
  C   -0.95880706305675     -0.21968149387612     -0.11611403106059
  C   0.56001252002120     -0.53158144487243     -0.31116344522519
  Cl  -1.86717778349697     -0.86706332831057     -1.50045278631464
  H   0.60283600096286     -1.62357665422165     -0.20678344236345
  N   -1.57447215050683     -0.70406254992062      1.07342370565542
  H   -1.45619629256449     -1.70603313915792      1.14603262779642
  H   -1.21442117531616     -0.23335432361247      1.89165830849102
  N   -1.09083100849225      1.30023505260988     -0.10805878319669
  O   -0.96130609318661      1.88442611075847     -1.17758159482640
  O   -1.19506688795771      1.83181622362596      0.99409669412622
  C   1.39085488871494      0.10662247950673      0.79621076039016
  H   2.41404397839640     -0.25769174197274      0.70496352849888
  H   1.02406104639788     -0.13465495587910      1.79419617521035
  H   1.41390237445130      1.19520434699933      0.69419228027428
  N   1.15103829180121     -0.19721646281674     -1.58647092746178
  H   0.65042972084474     -0.64514042993185     -2.34302423736290
  H   1.11109963298724      0.80275231107185     -1.74512483263112
