18

C	-0.537278	-0.079188	-1.544261
C	0.121574	-0.116127	-0.152451
Cl	0.459127	0.996263	-2.6541
H	1.205039	-0.189095	-0.286608
N	-0.460807	-1.422999	-2.259247
O	-1.444011	-1.783925	-2.902336
O	0.593035	-2.043179	-2.169219
N	-1.870333	0.318316	-1.435501
H	-1.833942	1.146271	-0.839936
H	-2.294234	0.504289	-2.333662
C	-0.374792	-1.318289	0.649001
H	0.118027	-1.284294	1.623308
H	-1.457022	-1.256248	0.794412
H	-0.132995	-2.274746	0.180502
N	-0.188857	1.149766	0.489017
H	0.763701	1.538913	0.815033
H	-0.690919	0.9569	1.35109
H	2.162033	1.701375	1.323276
