18

C	-0.630816	-0.089583	-1.48782
C	0.093618	-0.112212	-0.128469
Cl	0.36545	0.886342	-2.685482
H	1.163304	-0.25185	-0.31094
N	-0.662606	-1.461652	-2.150857
O	0.360721	-2.134238	-2.08911
O	-1.696002	-1.793128	-2.727644
N	-1.933151	0.385665	-1.330647
H	-2.390218	0.565065	-2.213736
H	-1.821816	1.229705	-0.767594
C	-0.428428	-1.253685	0.742383
H	-0.264207	-2.238848	0.300474
H	-1.496837	-1.124139	0.936917
H	0.113484	-1.213515	1.690056
N	-0.115245	1.191909	0.476313
H	0.873399	1.545466	0.728902
H	-0.572679	1.05926	1.373827
H	2.304094	1.658654	1.147976
