18

C	-0.627767	-0.096558	-1.490153
C	0.094626	-0.111994	-0.129901
Cl	0.368901	0.875391	-2.690906
H	1.165337	-0.25102	-0.310145
N	-0.656921	-1.471482	-2.147379
O	0.366502	-2.143327	-2.079782
O	-1.688419	-1.80572	-2.725966
N	-1.931124	0.377602	-1.337352
H	-1.821959	1.225275	-0.779473
H	-2.387023	0.551223	-2.22222
C	-0.426354	-1.250322	0.745785
H	-1.495131	-1.121601	0.938944
H	0.114959	-1.204342	1.693517
H	-0.260251	-2.2373	0.308669
N	-0.11654	1.194645	0.468698
H	0.870744	1.547746	0.725904
H	-0.579442	1.065696	1.363941
H	2.300653	1.66032	1.151642
