13
Coordinates from ORCA-job run
  C   -0.67737710551545      0.04511447635963      0.25049388117673
  C   0.80195747261883      0.23087869957312      0.58347734082133
  Cl  -1.59843999508966      0.17833832270153      1.84205167027606
  H   1.08168718043510     -0.59527619911183      1.25731368812859
  H   0.91956548591644      1.16269586595274      1.13880758370912
  N   -0.87357753003003     -1.20336557297756     -0.40148597999033
  H   -1.82464736667156     -1.31602053665172     -0.72961103147293
  H   -0.64503682829363     -1.96656781613057      0.22517751819141
  C   -1.16952251468054      1.12961996136969     -0.60258765013730
  N   -1.59607738629135      1.98452995490490     -1.28448898681806
  N   1.54094871879434      0.31485262621202     -0.65903131860770
  H   1.54978293851409     -0.58061420288029     -1.12745953596777
  H   2.49173693029341      0.61481442067833     -0.49265717930913
