13
Coordinates from ORCA-job run
  C   -0.71909263932884      0.04833219121675      0.17254630511299
  C   0.74699105145531      0.31164806673153      0.54501392947254
  Cl  -1.70466602249605      0.73969873215463      1.58662325623735
  H   0.82815582532393      1.37466442458044      0.80413871204260
  H   0.94695039318276     -0.25981090496908      1.45664476631461
  N   -0.97661103882274     -1.31012574289346     -0.08497245014076
  H   -1.95899132812433     -1.50483624528030     -0.22237860679381
  H   -0.58336135974508     -1.91414649552836      0.62358552547327
  C   -1.09456236695133      0.85454528176207     -0.99451184969723
  N   -1.33494728059517      1.50515732142249     -1.94232374289017
  N   1.63416162249241     -0.14429404118733     -0.50816415250769
  H   1.63584520088342      0.51071492112381     -1.28042034951559
  H   2.58012794272572     -0.21054750913320     -0.15678134310811
