13
Coordinates from ORCA-job run
  C   -0.71331842060288      0.07398611775717      0.24687034776263
  C   0.79224653520556     -0.23819518413049      0.16894328534629
  Cl  -1.00022904626255      1.12989922892667      1.66345322621360
  H   0.89887192732051     -1.02604477806159     -0.59333535309750
  H   1.07107321938978     -0.67016144677735      1.13415898381293
  N   -1.56755824407332     -1.08435956284978      0.38382327127267
  H   -1.48405868544226     -1.67699782328504     -0.43493548079453
  H   -1.29735364415712     -1.61092999447634      1.20718064472569
  C   -1.09912215640273      0.80290909503674     -0.96854716525363
  N   -1.34183116192486      1.33462020234749     -1.98699676901065
  N   1.57342310748711      0.95224289727651     -0.08327199043192
  H   2.48945751003704      0.89252089090195      0.33587210971574
  H   1.67939905942572      1.12051035733408     -1.07421511026133
