13
Coordinates from ORCA-job run
  C   -0.77761589554469      0.16756208059489      0.31428290176792
  C   0.74460714393354      0.29062857080211      0.50197348819636
  Cl  -1.56555415238240      0.83970335413566      1.77438148868223
  H   1.00401339254951     -0.30560302711803      1.38095816375291
  H   1.00139676131266      1.33649564154681      0.71130814747447
  N   -1.25585852030195     -1.17917598886792      0.10909731262247
  H   -1.13613065493686     -1.70125013395491      0.97099066469100
  H   -0.65612321860800     -1.59252401321799     -0.60082008307961
  C   -1.16191212584534      0.98864581465668     -0.84397508212857
  N   -1.37846824577256      1.64663191774121     -1.79220574144536
  N   1.38461641316191     -0.27615749596720     -0.67695521426297
  H   1.49840640293290      0.42665978272187     -1.39651601427079
  H   2.29862269950127     -0.64361650307318     -0.45152003200006
