19

C	0.0	0.0	0.0
C	-0.25143	-0.126113	-1.546798
Br	1.947358	0.0	0.0
H	0.384109	0.635969	-1.992946
N	-0.648566	1.24581	0.439598
O	-0.671863	1.454531	1.678036
O	-0.640705	2.186223	-0.408816
C	-0.271727	-1.141248	0.990092
H	0.178032	-0.851984	1.940262
H	-1.339381	-1.296462	1.128828
H	0.188428	-2.060146	0.632755
C	-1.631502	0.005642	-2.181329
H	-2.068218	0.94896	-1.864225
H	-1.478731	0.028196	-3.271276
H	-2.285479	-0.823472	-1.922004
N	0.29497	-1.421058	-2.080983
O	1.130925	-1.357221	-2.983528
O	-0.18993	-2.472463	-1.659846
H	-2.011811	0.0	0.0
