19

C	0.0	0.0	0.0
C	-0.265541	0.053169	-1.549516
Br	1.947472	0.0	0.0
H	0.392094	0.836155	-1.917748
N	-0.659282	1.17994	0.585937
O	-0.657536	2.215457	-0.141864
O	-0.683552	1.238173	1.841835
C	-0.272492	-1.252268	0.845724
H	0.171896	-1.076881	1.825416
H	-1.339992	-1.42322	0.95983
H	0.191847	-2.122073	0.385563
C	-1.644937	0.294192	-2.151041
H	-2.056773	1.200199	-1.713388
H	-1.496526	0.448468	-3.231416
H	-2.318217	-0.54339	-1.992364
N	0.234558	-1.196638	-2.221967
O	1.097577	-1.073465	-3.091515
O	-0.308655	-2.263958	-1.931817
H	-2.004933	0.0	0.0
