19

C	0.0	0.0	0.0
C	-0.251275	0.022796	-1.551472
Br	1.947224	0.0	0.0
H	0.380025	0.827822	-1.920926
N	-0.653177	1.196306	0.556607
O	-0.6464	2.214138	-0.197572
O	-0.676917	1.285367	1.80921
C	-0.272277	-1.232484	0.874115
H	0.189364	-2.111804	0.430102
H	-1.340071	-1.401128	0.995338
H	0.175373	-1.036624	1.848718
C	-1.631614	0.206585	-2.171524
H	-2.282834	-0.645122	-1.992533
H	-2.07285	1.11466	-1.768436
H	-1.477543	0.330756	-3.254806
N	0.30322	-1.210705	-2.208682
O	-0.174354	-2.301282	-1.891967
O	1.138249	-1.053878	-3.10022
H	-2.011369	0.0	0.0
