19

C	0.0	0.0	0.0
C	-0.616147	0.079694	-1.390681
Br	1.932022	0.0	0.0
H	-1.70875	0.151673	-1.159975
N	-0.610074	1.122891	0.746175
O	-1.768981	0.760483	1.23485
O	-0.313198	2.27978	0.359189
C	-0.422251	-1.313876	0.648039
H	-1.501118	-1.436156	0.517203
H	-0.20166	-1.263814	1.714591
H	0.126221	-2.147765	0.207509
C	-0.347086	-1.100902	-2.302024
H	-0.80278	-0.913721	-3.279531
H	0.724237	-1.259114	-2.440128
H	-0.802805	-2.001421	-1.88908
N	-0.281589	1.318301	-2.159866
O	-1.201858	2.09351	-2.414506
O	0.865352	1.42541	-2.597091
H	-2.922584	0.0	0.0
