19

C	0.0	0.0	0.0
C	-0.251972	-0.088944	-1.549129
Br	1.947403	0.0	0.0
H	0.394976	0.673484	-1.978398
N	-0.645082	1.23596	0.470776
O	-0.633163	2.197274	-0.353871
O	-0.668718	1.413691	1.713809
C	-0.272829	-1.163888	0.963657
H	0.17705	-0.896804	1.920139
H	0.185989	-2.075419	0.585262
H	-1.341284	-1.320193	1.098038
C	-1.62942	0.075848	-2.181806
H	-2.057153	1.013665	-1.83729
H	-1.473759	0.131495	-3.270083
H	-2.293156	-0.754079	-1.949523
N	0.278098	-1.37981	-2.108321
O	1.120612	-1.309904	-3.004401
O	-0.224678	-2.432375	-1.71177
H	-2.014051	0.0	0.0
