17

C	-0.629509	-0.010829	-1.39202
C	0.0	0.0	0.0
Br	0.123963	-1.491507	-2.391564
H	1.088024	0.0	0.0
N	-2.043788	-0.150456	-1.347685
H	-2.397511	-0.318993	-2.281064
H	-2.423857	0.72918	-1.012825
N	-0.198895	1.239258	-2.20204
O	0.847641	1.785192	-1.894129
O	-0.957468	1.564554	-3.113929
N	-0.410919	-1.152971	0.717525
H	0.171725	-1.280935	1.530952
H	-1.395617	-1.158654	0.938063
N	-0.426028	1.283442	0.728305
O	-0.030531	1.395431	1.881941
O	-1.16401	2.097706	0.156477
Cl	3.284514	0.0	0.0
