17

C	-0.606934	-0.007941	-1.420378
C	0.0	0.0	0.0
Br	0.43608	-1.269771	-2.466555
H	1.086539	0.0	0.0
N	-1.979366	-0.346287	-1.565742
H	-2.117345	-1.29451	-1.239219
H	-2.53573	0.309732	-1.030135
N	-0.374674	1.371552	-2.054355
O	0.675649	1.919921	-1.744245
O	-1.228588	1.807184	-2.815666
N	-0.469053	-1.143676	0.720235
H	0.188349	-1.374679	1.454854
H	-1.393696	-0.998118	1.108287
N	-0.43939	1.271775	0.710088
O	-1.537862	1.752302	0.389567
O	0.26341	1.682498	1.624055
Cl	3.330551	0.0	0.0
