17

C	-0.666812	-0.014083	-1.375622
C	0.0	0.0	0.0
Br	0.052901	-1.663838	-2.319126
H	1.094971	0.0	0.0
N	-2.047506	0.003911	-1.237663
H	-2.315251	-0.738271	-0.601432
H	-2.53234	-0.027675	-2.122634
N	-0.224616	1.091425	-2.322978
O	-1.0827	1.492689	-3.106945
O	0.939777	1.441447	-2.271557
N	-0.522879	-1.136615	0.750135
H	0.186013	-1.861259	0.69792
H	-0.570867	-0.841019	1.719753
N	-0.424275	1.267915	0.704456
O	-0.63465	1.208931	1.91506
O	-0.485972	2.290678	0.032895
Cl	3.261013	0.0	0.0
