17

C	-0.387158	0.250657	-1.462522
C	0.0	0.0	0.0
Br	-2.284128	0.752935	-1.615639
H	1.095634	0.0	0.0
N	0.444992	1.200937	-2.057828
H	1.403016	1.109635	-1.720295
H	0.379287	1.212887	-3.066151
N	-0.24401	-1.125017	-2.195807
O	0.713091	-1.797423	-1.839854
O	-0.968029	-1.356216	-3.157931
N	-0.59023	-1.183811	0.522044
H	0.125313	-1.713508	1.000855
H	-1.327402	-0.935606	1.169211
N	-0.374941	1.232682	0.808293
O	-1.250328	1.108505	1.665663
O	0.222791	2.270589	0.559245
Cl	3.269952	0.0	0.0
