15

C	0.0	0.0	0.0
C	-0.419482	0.118424	-1.515058
Br	1.952819	0.0	0.0
H	-1.483829	0.332458	-1.406088
C	-0.416468	1.169607	0.773745
N	-0.518708	2.137641	1.432433
C	-0.449513	-1.240471	0.623226
N	-0.555303	-2.284418	1.157974
N	-0.268376	-1.134116	-2.230455
H	-1.010255	-1.756637	-1.932935
H	0.620566	-1.570518	-2.00881
N	0.270852	1.239605	-2.118149
H	1.177253	0.946506	-2.467756
H	-0.285777	1.525794	-2.913448
F	-2.433236	0.0	0.0
