15

C	0.0	0.0	0.0
C	-0.419188	-0.083084	-1.490631
Br	1.974632	0.0	0.0
H	-1.514308	-0.076396	-1.357225
C	-0.431517	1.246707	0.62849
N	-0.57919	2.270518	1.187657
C	-0.435316	-1.166932	0.763491
N	-0.577983	-2.120342	1.437334
N	0.015432	-1.361585	-2.026981
H	-0.595761	-1.629275	-2.786498
H	0.966398	-1.309701	-2.374715
N	0.013731	1.128326	-2.167338
H	0.965344	1.037974	-2.503963
H	-0.594955	1.301806	-2.955966
F	-2.476747	0.0	0.0
