15

C	0.0	0.0	0.0
C	-0.440516	0.238993	-1.539557
Br	1.948996	0.0	0.0
H	0.496033	0.276379	-2.102423
C	-0.421565	1.035998	0.93994
N	-0.592628	1.872397	1.748175
C	-0.410311	-1.321306	0.470545
N	-0.573297	-2.435395	0.809393
N	-1.07457	1.537587	-1.579732
H	-1.922808	1.376917	-1.020909
H	-1.360432	1.678728	-2.543423
N	-1.258213	-0.808705	-2.097292
H	-2.054764	-0.850609	-1.444306
H	-0.760821	-1.693607	-2.088152
F	-2.530933	0.0	0.0
