15

C	0.0	0.0	0.0
C	-0.434884	-0.800783	-1.333101
Br	1.952326	0.0	0.0
H	0.497271	-1.046749	-1.847959
C	-0.414335	1.40118	-0.031735
N	-0.575889	2.566068	-0.036873
C	-0.412486	-0.620058	1.25907
N	-0.573955	-1.117306	2.312829
N	-1.268249	-0.051453	-2.24232
H	-2.052042	0.248008	-1.636642
H	-0.773577	0.759684	-2.603695
N	-1.049856	-2.029363	-0.878624
H	-1.907969	-1.693078	-0.42519
H	-1.318743	-2.537942	-1.714793
F	-2.51904	0.0	0.0
