12

C	-0.412811	-0.064264	-1.44896
C	0.0	0.0	0.0
Br	-2.339561	-0.197115	-1.707133
H	1.09353	0.0	0.0
H	0.031178	-0.931029	-1.933394
H	-0.299326	-0.946669	0.461463
N	0.056679	1.119229	-2.255169
O	0.075976	2.212592	-1.705209
O	0.352408	0.882161	-3.422227
C	-0.576377	1.086999	0.777306
N	-1.067429	1.904914	1.461009
Br	3.418471	0.0	0.0
