12

C	-0.574104	0.015506	-1.405248
C	0.0	0.0	0.0
Br	0.209388	1.39384	-2.50671
H	1.091195	0.0	0.0
H	-1.651309	0.169006	-1.433776
H	-0.320527	-0.921305	0.499046
N	-0.361712	-1.311495	-2.091664
O	-1.223859	-1.63352	-2.909773
O	0.632966	-1.959146	-1.789368
C	-0.518839	1.141191	0.745367
N	-0.969715	2.050436	1.335457
Br	3.491693	0.0	0.0
