12

C	-0.596653	-0.016259	-1.395239
C	0.0	0.0	0.0
Br	0.269074	1.233699	-2.584281
H	1.091247	0.0	0.0
H	-1.657674	0.225957	-1.413729
H	-0.320471	-0.90106	0.533579
N	-0.513404	-1.390701	-2.010186
O	0.38877	-2.132495	-1.642929
O	-1.37983	-1.653362	-2.843163
C	-0.503811	1.169526	0.713174
N	-0.949565	2.099543	1.274132
Br	3.471548	0.0	0.0
