12

C	-0.524665	-0.068416	-1.413861
C	0.0	0.0	0.0
Br	-2.450811	-0.323839	-1.467725
H	1.091004	0.0	0.0
H	-0.076081	-0.904973	-1.949362
H	-0.327987	-0.888814	0.543972
N	-0.149228	1.173273	-2.207301
O	0.817633	1.794216	-1.787633
O	-0.780469	1.409147	-3.229801
C	-0.481152	1.193978	0.69176
N	-0.869476	2.156902	1.237808
Br	3.493403	0.0	0.0
