12

C	-0.470299	-0.005981	-1.438623
C	0.0	0.0	0.0
Br	0.099271	-1.602472	-2.356108
H	1.091808	0.0	0.0
H	-0.105214	0.849382	-2.002074
H	-0.35663	-0.895647	0.512087
N	-1.975679	0.058087	-1.511809
O	-2.608165	-0.740483	-0.831596
O	-2.453703	0.920861	-2.242028
C	-0.509774	1.19023	0.674904
N	-0.948856	2.148689	1.192141
Br	3.446429	0.0	0.0
