13

C	0.0	0.0	0.0
C	-0.544906	-0.021069	-1.412932
F	1.381477	0.0	0.0
H	-1.665871	-0.031963	-1.129527
H	-0.369872	0.910056	0.466297
C	-0.429615	-1.174786	0.779134
N	-0.573513	-2.157191	1.405289
C	-0.128519	-1.221767	-2.138106
N	0.212714	-2.140346	-2.79028
N	-0.157595	1.217254	-2.088278
H	-0.796684	1.386709	-2.853908
H	0.776256	1.132678	-2.473584
F	-2.637414	0.0	0.0
