13

C	0.0	0.0	0.0
C	-0.526579	-0.118619	-1.430566
F	1.380486	0.0	0.0
H	-1.613521	-0.313539	-1.21518
H	-0.381035	0.923736	0.428769
C	-0.419726	-1.134667	0.841571
N	-0.574774	-2.062607	1.544576
C	0.138901	-1.209532	-2.140829
N	0.660169	-2.093139	-2.71493
N	-0.419949	1.126832	-2.186518
H	0.476908	1.566287	-2.001729
H	-1.152987	1.730912	-1.829729
F	-2.593198	0.0	0.0
