13

C	0.0	0.0	0.0
C	-0.428742	0.118598	-1.486789
F	1.376167	0.0	0.0
H	0.516454	0.129167	-2.045154
H	-0.362967	0.839173	0.585767
C	-0.433682	-1.252499	0.637684
N	-0.542403	-2.259144	1.232837
C	-1.060025	1.435925	-1.722212
N	-1.465103	2.498633	-2.015817
N	-1.220695	-1.015801	-1.928417
H	-1.473977	-0.874342	-2.899933
H	-2.056543	-0.902212	-1.321779
F	-2.46238	0.0	0.0
