13

C	0.0	0.0	0.0
C	-0.406436	0.183857	-1.507099
F	1.376179	0.0	0.0
H	0.552785	0.146103	-2.040788
H	-0.375323	0.797111	0.6329
C	-0.440685	-1.303788	0.512848
N	-0.550726	-2.403042	0.912998
C	-0.930326	1.543077	-1.696489
N	-1.26606	2.648192	-1.9039
N	-1.312217	-0.772726	-2.113642
H	-0.873889	-1.68717	-2.061356
H	-2.095306	-0.740803	-1.431148
F	-2.434448	0.0	0.0
