13

C	0.0	0.0	0.0
C	-0.429274	0.173092	-1.480798
F	1.376134	0.0	0.0
H	0.514866	0.209588	-2.038169
H	-0.363534	0.81729	0.615738
C	-0.436319	-1.273655	0.59228
N	-0.546075	-2.307261	1.139763
C	-1.070527	1.49411	-1.671737
N	-1.491259	2.552338	-1.963726
N	-1.216843	-0.948509	-1.963166
H	-2.051066	-0.860195	-1.349601
H	-1.478241	-0.765015	-2.926354
F	-2.461994	0.0	0.0
