13

C	0.0	0.0	0.0
C	-0.532148	-0.073812	-1.416405
F	1.380214	0.0	0.0
H	-1.652092	-0.061815	-1.149496
H	-0.373355	0.92511	0.433251
C	-0.430137	-1.145993	0.82062
N	-0.58638	-2.083835	1.509091
C	-0.117294	-1.309643	-2.083473
N	0.219389	-2.26102	-2.688382
N	-0.111681	1.130762	-2.132599
H	0.85708	1.041522	-2.421364
H	-0.674466	1.23089	-2.967718
F	-2.625845	0.0	0.0
