14

C	0.0	0.0	0.0
C	-0.387485	0.064042	-1.517729
Br	2.009537	0.0	0.0
H	0.511098	0.23159	-2.117411
H	-0.301761	0.941075	0.454225
N	-0.450359	-1.091693	0.778142
H	-1.46243	-0.948545	0.882218
H	-0.302836	-1.968328	0.291616
N	-1.218627	1.2787	-1.885796
O	-1.908771	1.190389	-2.888981
O	-0.986423	2.295653	-1.247565
C	-0.989535	-1.17114	-1.995472
N	-1.322514	-2.232436	-2.372836
Cl	-3.246299	0.0	0.0
