14

C	0.0	0.0	0.0
C	-0.234052	0.246601	-1.520518
Br	1.999891	0.0	0.0
H	0.475742	-0.37354	-2.071333
H	-0.351964	0.850799	0.577714
N	-0.487842	-1.213833	0.53261
H	-0.307715	-1.990296	-0.095152
H	-1.504748	-1.081827	0.62407
N	0.170399	1.66148	-1.889764
O	0.717918	1.803223	-2.979729
O	-0.094173	2.554601	-1.094087
C	-1.524678	0.008077	-2.183121
N	-2.223938	-0.194685	-3.110263
Cl	-3.317737	0.0	0.0
