15

C	-0.595211	-0.060359	-1.391201
C	0.0	0.0	0.0
Br	-2.468429	0.390617	-1.450858
H	1.089809	0.0	0.0
H	-0.497767	-1.076019	-1.763206
N	0.206764	0.789094	-2.366814
O	-0.221486	1.875184	-2.725457
O	1.25105	0.248394	-2.708908
N	-0.395555	-1.199858	0.804264
O	-1.087712	-2.065072	0.268
O	0.055559	-1.239306	1.941104
N	-0.44136	1.244556	0.704545
O	-1.178702	1.164441	1.678981
O	-0.027933	2.271247	0.177161
Br	3.303595	0.0	0.0
