15

C	-0.534078	0.004959	-1.403645
C	0.0	0.0	0.0
Br	-2.425438	-0.315618	-1.577002
H	1.088158	0.0	0.0
H	-0.025715	-0.788208	-1.958972
N	-0.116985	1.304348	-2.095743
O	-0.865134	1.820532	-2.908088
O	1.013892	1.67085	-1.807618
N	-0.434776	-1.257299	0.66983
O	-1.236669	-1.196691	1.597155
O	0.076748	-2.273882	0.203845
N	-0.447031	1.149053	0.82251
O	-1.221904	1.968647	0.32174
O	0.121469	1.251695	1.906949
Br	2.74346	0.0	0.0
