15

C	-0.525598	-0.015325	-1.41978
C	0.0	0.0	0.0
Br	-2.381071	-0.508074	-1.580879
H	1.088115	0.0	0.0
H	0.053848	-0.756131	-1.972855
N	-0.246516	1.314	-2.104224
O	-0.975572	1.658251	-3.023927
O	0.763707	1.882454	-1.711763
N	-0.40889	-1.284075	0.657938
O	0.005808	-2.288221	0.08926
O	-1.112266	-1.248474	1.659479
N	-0.490207	1.14513	0.809231
O	-1.341422	1.881758	0.310477
O	0.014874	1.264611	1.9196
Br	3.295862	0.0	0.0
