15

C	-0.624496	-0.005363	-1.362769
C	0.0	0.0	0.0
Br	-0.023379	1.533745	-2.361912
H	1.086137	0.0	0.0
H	-1.711201	-0.000738	-1.351318
N	-0.20307	-1.24786	-2.11114
O	-0.953186	-1.615994	-3.007559
O	0.850856	-1.772109	-1.774748
N	-0.483516	-1.163849	0.796708
O	-1.389635	-1.859614	0.323263
O	0.144129	-1.390385	1.828624
N	-0.484296	1.192218	0.766348
O	-1.706999	1.331369	0.839555
O	0.362815	1.927565	1.25728
Br	2.752318	0.0	0.0
