17

C	-0.435354	-0.005494	-1.448982
C	0.0	0.0	0.0
F	-1.826896	-0.094175	-1.561588
H	1.089797	0.0	0.0
C	-0.013093	1.253633	-2.096531
N	0.341702	2.172974	-2.735184
C	0.191143	-1.153525	-2.220979
H	1.266372	-1.162512	-2.022118
H	-0.00165	-1.010097	-3.285585
H	-0.241694	-2.096004	-1.892445
N	-0.434522	-1.21529	0.701588
O	-1.342584	-1.149304	1.534396
O	0.174698	-2.245744	0.395317
N	-0.440788	1.170345	0.759097
O	-0.018657	1.231685	1.916001
O	-1.100302	2.050056	0.191328
H	2.437329	0.0	0.0
