17

C	-0.528226	-0.025655	-1.435049
C	0.0	0.0	0.0
F	-0.004078	1.085411	-2.088003
H	1.089317	0.0	0.0
C	-0.018515	-1.206949	-2.160841
N	0.322911	-2.071218	-2.877799
C	-2.03989	0.065937	-1.543269
H	-2.366791	1.002921	-1.089627
H	-2.507547	-0.772021	-1.031518
H	-2.324173	0.063677	-2.597846
N	-0.400391	-1.125777	0.784407
O	-0.904111	-2.113831	0.206339
O	-0.030483	-1.115125	1.970261
N	-0.407654	1.258944	0.657281
O	0.261576	2.252126	0.369013
O	-1.391071	1.252291	1.403897
H	2.375383	0.0	0.0
