17

C	-0.519502	-0.010813	-1.438852
C	0.0	0.0	0.0
F	0.080167	1.04688	-2.115855
H	1.089287	0.0	0.0
C	-0.078734	-1.236899	-2.135737
N	0.259619	-2.145293	-2.799175
C	-2.021365	0.181574	-1.553418
H	-2.546733	-0.603393	-1.013633
H	-2.308687	0.165893	-2.607015
H	-2.278675	1.156078	-1.133089
N	-0.414539	-1.137861	0.772042
O	-1.011188	-2.07665	0.201766
O	0.000763	-1.172441	1.939627
N	-0.409164	1.246306	0.670869
O	0.188786	2.261062	0.304806
O	-1.320049	1.217854	1.505436
H	2.378944	0.0	0.0
