17

C	-0.427067	-0.096164	-1.447875
C	0.0	0.0	0.0
F	-1.818594	-0.176869	-1.567942
H	1.090398	0.0	0.0
C	0.016737	1.109856	-2.176126
N	0.392763	1.975921	-2.874324
C	0.194974	-1.303412	-2.128168
H	1.269174	-1.304754	-1.921848
H	0.009813	-1.239104	-3.201508
H	-0.246886	-2.216622	-1.733825
N	-0.447442	-1.173566	0.766945
O	-1.413891	-1.06866	1.526657
O	0.197843	-2.20874	0.576149
N	-0.44584	1.210034	0.687056
O	-1.06552	2.074923	0.054598
O	-0.059348	1.320632	1.853276
H	2.443005	0.0	0.0
