17

C	-0.414596	-0.233197	-1.43824
C	0.0	0.0	0.0
F	-1.797019	-0.421608	-1.553956
H	1.110023	0.0	0.0
C	-0.058512	0.961112	-2.234106
N	0.266413	1.819733	-2.966
C	0.294605	-1.42098	-2.070639
H	-0.101151	-2.343939	-1.655466
H	0.133441	-1.395068	-3.149753
H	1.360672	-1.350099	-1.840271
N	-0.400423	-1.072113	0.90239
O	0.056786	-2.188866	0.626554
O	-1.090927	-0.82244	1.897241
N	-0.43739	1.288129	0.54398
O	0.099214	1.622873	1.601988
O	-1.234608	1.981489	-0.101126
H	2.394465	0.0	0.0
