17

C	-0.40102	-0.03531	-1.456786
C	0.0	0.0	0.0
F	-1.789801	-0.099224	-1.612223
H	1.110553	0.0	0.0
C	0.072043	1.198904	-2.118462
N	0.490496	2.088714	-2.76039
C	0.222569	-1.213242	-2.187745
H	1.292672	-1.240477	-1.961027
H	-0.239221	-2.139363	-1.851932
H	0.062966	-1.08756	-3.259485
N	-0.425559	-1.199094	0.724218
O	-1.335723	-1.125336	1.55605
O	0.194153	-2.232106	0.441529
N	-0.444681	1.187722	0.719428
O	-0.043589	1.27909	1.883143
O	-1.084456	2.059655	0.116231
H	2.401341	0.0	0.0
