17

C	-0.415637	0.181862	-1.45261
C	0.0	0.0	0.0
F	0.172594	-0.839508	-2.186834
H	1.110358	0.0	0.0
C	-1.878811	0.089826	-1.641364
N	-3.038799	0.136252	-1.821581
C	0.110587	1.49006	-2.016793
H	1.171957	1.555006	-1.769596
H	-0.028414	1.465072	-3.099356
H	-0.412267	2.351561	-1.603982
N	-0.460261	-1.241033	0.597816
O	-1.042945	-2.073975	-0.112706
O	-0.1078	-1.422603	1.769409
N	-0.438533	1.131504	0.82608
O	-1.455293	1.010774	1.521487
O	0.249225	2.155432	0.744748
H	2.417886	0.0	0.0
