16

C	0.0	0.0	0.0
C	-0.593318	-0.255917	-1.381413
F	1.376062	0.0	0.0
H	-1.703062	-0.285706	-1.22332
C	-0.452285	1.362714	0.506037
H	-0.04929	2.137722	-0.149007
H	-0.049773	1.502597	1.510806
H	-1.54167	1.401555	0.530546
C	-0.41338	-1.042207	0.964204
N	-0.632042	-1.827878	1.808755
N	-0.189822	-1.577362	-1.989039
O	-0.457811	-1.723099	-3.176727
O	0.333337	-2.411273	-1.259825
C	-0.235052	0.7946	-2.325131
N	0.063729	1.662202	-3.058304
Cl	-3.528503	0.0	0.0
