16

C	0.0	0.0	0.0
C	-0.533684	-0.16243	-1.430622
F	1.382475	0.0	0.0
H	-1.622163	-0.353186	-1.33336
C	-0.482913	1.298925	0.614079
H	-0.131847	1.343467	1.646028
H	-0.065709	2.137496	0.054676
H	-1.573701	1.313809	0.592482
C	-0.390753	-1.141299	0.853888
N	-0.549212	-2.002913	1.635225
N	0.118367	-1.352266	-2.089755
O	0.853516	-1.151975	-3.052493
O	-0.140219	-2.44293	-1.591999
C	-0.286412	1.026599	-2.233718
N	-0.117003	2.013657	-2.846993
Cl	-3.533337	0.0	0.0
