14

C	-0.407152	-0.038749	-1.463294
C	0.0	0.0	0.0
Cl	-2.110297	-0.487737	-1.782672
H	1.091477	0.0	0.0
H	0.207707	-0.813722	-1.922112
C	-0.126705	1.247885	-2.091986
N	0.057564	2.288585	-2.604276
N	-0.399212	-1.251087	0.704278
O	-0.725823	-1.165119	1.882673
O	-0.280871	-2.283039	0.051521
N	-0.570291	1.165609	0.723087
O	-1.797372	1.253056	0.737466
O	0.21921	1.952007	1.234506
Cl	3.118911	0.0	0.0
