14

C	-0.462163	-0.000939	-1.449805
C	0.0	0.0	0.0
Cl	-0.052472	-1.56403	-2.197342
H	1.089461	0.0	0.0
H	0.143997	0.75243	-1.95463
C	-1.874887	0.310639	-1.657659
N	-2.988437	0.607341	-1.883609
N	-0.565538	-1.126106	0.789056
O	-1.728865	-1.442232	0.537616
O	0.155568	-1.629036	1.641763
N	-0.43855	1.268672	0.661361
O	-0.364829	2.275883	-0.037135
O	-0.781252	1.221746	1.836598
Cl	3.137206	0.0	0.0
