14

C	-0.588605	0.023551	-1.400087
C	0.0	0.0	0.0
Cl	-0.098742	1.546597	-2.194405
H	1.087852	0.0	0.0
H	-1.676859	0.025325	-1.341967
C	-0.143449	-1.111839	-2.201396
N	0.164534	-2.011251	-2.890394
N	-0.495312	-1.194562	0.760318
O	-0.112869	-1.281867	1.92262
O	-1.248736	-1.97966	0.178879
N	-0.537733	1.166164	0.777542
O	-1.743458	1.390539	0.640614
O	0.232968	1.775965	1.50461
Cl	3.159925	0.0	0.0
