14

C	-0.452495	0.008825	-1.446254
C	0.0	0.0	0.0
Cl	-2.197137	-0.351408	-1.649902
H	1.091012	0.0	0.0
H	0.08737	-0.813499	-1.920473
C	-0.115557	1.250395	-2.131986
N	0.149628	2.214103	-2.748122
N	-0.448029	-1.287215	0.621795
O	-0.071172	-2.290058	0.025817
O	-1.14732	-1.258805	1.626696
N	-0.490495	1.141207	0.811299
O	-0.021968	1.229578	1.940087
O	-1.29902	1.913876	0.297241
Cl	3.101734	0.0	0.0
