14

C	-0.601063	-0.045511	-1.399539
C	0.0	0.0	0.0
Cl	-0.297287	1.511499	-2.217296
H	1.088586	0.0	0.0
H	-1.682804	-0.160629	-1.320713
C	-0.049861	-1.134174	-2.198038
N	0.340448	-2.019755	-2.861289
N	-0.467854	-1.170349	0.807867
O	-1.026815	-2.09395	0.217111
O	-0.232054	-1.116031	2.008552
N	-0.558967	1.195315	0.710876
O	-1.787815	1.225143	0.790216
O	0.217685	2.033212	1.138276
Cl	3.149111	0.0	0.0
