16

C	-0.481018	0.000396	-1.449613
C	0.0	0.0	0.0
Cl	0.555306	0.884124	-2.514365
H	1.093839	0.0	0.0
N	-0.528763	-1.451548	-1.963792
O	-1.487505	-1.756108	-2.662474
O	0.433653	-2.141307	-1.670719
N	-1.941335	0.480431	-1.550578
O	-2.653711	0.074116	-0.640922
O	-2.273975	1.155789	-2.506805
C	-0.493261	-1.118776	0.783943
N	-0.859697	-2.044542	1.407746
N	-0.381441	1.287561	0.677809
O	-0.623561	2.249599	-0.045546
O	-0.353868	1.286832	1.901657
Cl	3.078133	0.0	0.0
