16

C	-0.42342	-0.014218	-1.460374
C	0.0	0.0	0.0
Cl	0.026248	-1.533617	-2.1739
H	1.093775	0.0	0.0
N	-1.937634	0.181647	-1.678589
O	-2.646183	-0.640055	-1.123771
O	-2.286433	1.110326	-2.391321
N	0.244818	1.147389	-2.208671
O	0.393902	2.163171	-1.544036
O	0.505427	0.983165	-3.387678
C	-0.483976	-1.153341	0.742081
N	-0.83093	-2.070831	1.389155
N	-0.485662	1.222783	0.749325
O	-1.605012	1.642193	0.466839
O	0.257351	1.655205	1.615172
Cl	3.100111	0.0	0.0
