16

C	-0.544164	0.005345	-1.419076
C	0.0	0.0	0.0
Cl	-2.262707	-0.223815	-1.600099
H	1.087872	0.0	0.0
N	-0.107414	1.319676	-2.114799
O	-0.663649	1.587313	-3.181724
O	0.890318	1.847871	-1.649637
N	0.176514	-1.161625	-2.215506
O	1.31358	-1.407179	-1.865598
O	-0.372015	-1.49818	-3.273614
C	-0.515271	-1.136228	0.729924
N	-0.921116	-2.065235	1.321578
N	-0.41487	1.252654	0.740552
O	-1.558187	1.687428	0.543672
O	0.43803	1.794398	1.425912
Cl	3.032558	0.0	0.0
