16

C	-0.597882	-0.005982	-1.398167
C	0.0	0.0	0.0
Cl	-2.331428	0.141047	-1.413948
H	1.095588	0.0	0.0
N	0.021759	1.038754	-2.33328
O	-0.449792	1.045881	-3.463651
O	0.932048	1.719884	-1.895561
N	-0.182455	-1.349659	-2.059622
O	0.963164	-1.360922	-2.485658
O	-1.000453	-2.254646	-2.064025
C	-0.463307	-1.170679	0.728873
N	-0.83565	-2.128085	1.298798
N	-0.397242	1.229833	0.782102
O	-0.241003	1.153356	1.994168
O	-0.786907	2.210074	0.157266
Cl	3.083085	0.0	0.0
