10
Coordinates from ORCA-job run
  C   -0.66235081050684     -0.11177228235285     -0.00674456284097
  C   0.66234989669650      0.11177900505051      0.00674562705941
  H   -1.20404574607892     -0.24673209764090      0.92767690199868
  H   1.20404342927078      0.24674779465702     -0.92767539046269
  N   -1.45526056098940     -0.29749320967997     -1.16508006176818
  H   -0.93607749141859     -0.07930152992874     -2.00541830066741
  H   -2.28991824282315      0.27303917383030     -1.14124885130565
  N   1.45526141685371      0.29748833872880      1.16508176737245
  H   2.28991880849672     -0.27304441236737      1.14124412152523
  H   0.93607930049919      0.07928921970322      2.00541874908914
