10
Coordinates from ORCA-job run
  C   0.50774071132602     -0.66291973048471      0.48498387936198
  C   -0.51541292926307     -0.61060054479478     -0.38647454583105
  H   0.84653253096448     -1.61657897266990      0.87849436489898
  H   -1.00204639194583     -1.52448154121032     -0.71861425154641
  N   1.11365157275590      0.47273474013251      1.02248872364292
  H   0.93003316261067      1.27530673084959      0.43217103087252
  H   2.09836931799648      0.35403151280114      1.20527736186407
  N   -0.96234023447605      0.66925046208680     -0.85137993746140
  H   -1.70768595410514      1.03170149508563     -0.26825721908336
  H   -1.30884178586344      0.61055584820403     -1.79868940671824
