10
Coordinates from ORCA-job run
  C   0.58321420255462     -0.60285486019286      0.28605716684034
  C   -0.66675140965824     -0.66749971168485     -0.20650620477758
  H   1.10538211429083     -1.51059090967073      0.57935491068373
  H   -1.16910725370958     -1.62521906904496     -0.30559309042380
  N   1.19913561725243      0.68303869816788      0.43830516935888
  H   2.19393798850185      0.62933753290123      0.26816413611006
  H   1.06354603525112      1.04524260388599      1.37503451465092
  N   -1.43097912480158      0.45845480069262     -0.51014438632958
  H   -0.82844610578515      1.26392779292687     -0.62972829302196
  H   -2.04893206389630      0.32516312201881     -1.29594392309102
