10
Coordinates from ORCA-job run
  C   0.66979729608291      0.07632640296731     -0.00777767131154
  C   -0.67305974347509      0.03241661566425      0.01066800593956
  H   1.20276453524814      0.12175321445569     -0.95639619318567
  H   -1.20618046761903     -0.00792469886357      0.95942915837622
  N   1.49884271060018      0.22681425627483      1.12924991374338
  H   2.24854702953370     -0.45180400373585      1.14122967450924
  H   0.96811223767201      0.15135669686184      1.98721402247932
  N   -1.51210380333948      0.18993193986466     -1.11802100084029
  H   -0.97918187322306      0.19509096224956     -1.97792347983015
  H   -2.21653792148028     -0.53396138573873     -1.16767242988007
