10
Coordinates from ORCA-job run
  C   -0.54982881564258     -0.66125678173653     -0.37112794930132
  C   0.59187728226685     -0.64343954948736      0.33640748950819
  H   -1.01994011053499     -1.59438308313588     -0.65808832830150
  H   1.12153263411621     -1.55841198184797      0.57382232054322
  N   -1.21778467386131      0.54576620236437     -0.68694340707939
  H   -1.94613164531039      0.41145293180617     -1.37125138583354
  H   -0.55851563877617      1.23812222378048     -1.02524376419464
  N   1.18141915784573      0.58538535576719      0.71746625695926
  H   1.91784241536928      0.46178891857880      1.39511789671386
  H   0.47952939452736      1.21497576391071      1.09084087098587
