10
Coordinates from ORCA-job run
  C   -0.65565784840158      0.13930074352270     -0.04316578511300
  C   0.65565764968595     -0.13967100120801      0.04336016519482
  H   -1.17204730047054      0.60515059037249      0.79417005605160
  H   1.17213787316746     -0.60579397624961     -0.79377752991727
  N   -1.50395937862976     -0.21195252077108     -1.12081914874754
  H   -2.06404933392119      0.57255930663945     -1.42647433412395
  H   -0.97407077032140     -0.56065594548265     -1.90874382240245
  N   1.50418746201756      0.21179311453621      1.12084659332260
  H   0.97452614295471      0.56149049306076      1.90849445134705
  H   2.06327550391880     -0.57322080442024      1.42710935438813
