10
Coordinates from ORCA-job run
  C   -0.67015674257489     -0.07064448629261     -0.00716556023197
  C   0.67294615481307     -0.03757096505488      0.00886409745744
  H   -1.22875786783799     -0.07457510089236      0.92766839943326
  H   1.23120825805394     -0.04021137300864     -0.92620545096448
  N   -1.46954589410262     -0.26042005713218     -1.15926275468699
  H   -0.91599103987886     -0.22184964671879     -2.00511344059243
  H   -2.21491050193710      0.42047164637357     -1.21754227304910
  N   1.48051822903315     -0.15564028500223      1.16483774091620
  H   0.92537399275463     -0.12407276840345      2.00994291920918
  H   2.18931541167666      0.56451303613159      1.20497632250889
