10
Coordinates from ORCA-job run
  C   -0.66644248636235     -0.63570648187882     -0.19786213297586
  C   0.55573783947442     -0.65427700987044      0.35967718042397
  H   -1.26729181947049     -1.53478858660317     -0.26671909275025
  H   1.01254222315692     -1.58275198807080      0.68142107240146
  N   -1.25139444574776      0.57947846421269     -0.61928292182608
  H   -0.56032849458568      1.16150574277596     -1.08004096683907
  H   -2.03706810042006      0.43293246839326     -1.23435455328036
  N   1.30963591849679      0.54141756188787      0.46674132438373
  H   0.75236888222518      1.27907622096857      0.88330999228863
  H   2.15124048323303      0.41411360818487      1.00711009817383
