10
Coordinates from ORCA-job run
  C   -0.22883403261548     -0.33911859144569     -0.82506253430058
  C   0.75414100551962     -0.46317811877436      0.08213423790515
  H   -0.12241687474189     -0.88128562706442     -1.75915539806737
  H   1.56192105587054     -1.14498283387665     -0.16280641332618
  N   -1.34689754796111      0.53402856209970     -0.76499947233703
  H   -2.16767004319549      0.07020136648852     -1.13593110806462
  H   -1.55386616921424      0.75362575679152      0.20549615987968
  N   0.79409833112928      0.20952137982447      1.32413441655910
  H   0.63706881679873      1.20463429780519      1.24074199312984
  H   1.67245545841002      0.05555380815172      1.79444811862201
