10
Coordinates from ORCA-job run
  C   0.67470155492676     -0.65769604666957      0.21127652546057
  C   -0.48748247136673     -0.57994031400953     -0.46127593282707
  H   1.20881086170830     -1.60079354961045      0.27799148680681
  H   -0.89562735932381     -1.45749587882798     -0.95693557947982
  N   1.20568765762336      0.40173910250141      0.94694302060628
  H   2.21400012456311      0.42350725689598      0.94870545241886
  H   0.80610316431170      1.27695819443139      0.62966398231366
  N   -1.18462154795830      0.67207058392849     -0.49292775335670
  H   -1.68141440263534      0.78814376182777     -1.36512171114558
  H   -1.85915758184905      0.73550688953250      0.26068050920300
