10
Coordinates from ORCA-job run
  C   0.67083447924812     -0.03399826078496      0.05521401244766
  C   -0.66741358064275     -0.07410293874385     -0.05826733203047
  H   1.29419811634538      0.00739861444466     -0.83684894881362
  H   -1.29061908341790     -0.12058449021781      0.83365593017157
  N   1.39499672073720     -0.19699818804555      1.25982891407477
  H   0.78106622279190     -0.20399668647390      2.06381402246600
  H   2.09400484474261      0.52368123806707      1.38046647323794
  N   -1.38164461749288     -0.21879711229753     -1.27113110908343
  H   -0.76984442783207     -0.14363129366705     -2.07325562384772
  H   -2.12557867447963      0.46102911771892     -1.35447633862271
