13
Coordinates from ORCA-job run
  C   0.95584187566200      0.11097110193396      0.05452257400362
  C   -0.44027902848736      0.26252078415959     -0.52411945647299
  Cl  2.15519935813997      0.43436933931434     -1.18952698581839
  H   -0.58798866156617     -0.43235908789693     -1.35198200946442
  H   1.13159965315605      0.75934851339373      0.90908433231450
  N   1.13852861740166     -1.30611133746200      0.54827801638091
  O   0.46170558477365     -2.17356517500815      0.00643251392138
  O   1.96923964264380     -1.45617085053688      1.43237176122546
  C   -0.69922267682883      1.63572367720268     -0.93644496309004
  N   -0.90486918803242      2.74645116163048     -1.25811690172259
  N   -1.47724289526901     -0.11316582056978      0.52249016557566
  O   -1.12811832832978     -0.03179106901216      1.69462580086239
  O   -2.57239395326356     -0.43622123714887      0.09038515228452
