13
Coordinates from ORCA-job run
  C   0.61905880426063     -0.54376835572381     -0.67269892860420
  C   -0.62569471712316      0.31039712550009     -0.44397219475416
  Cl  0.22793777214339     -2.13146260198501     -1.28980215792434
  H   -1.33810290554179      0.09595331458974     -1.24703338182475
  H   1.26122428815072     -0.04483267275003     -1.40200160451375
  N   1.46431921366090     -0.60903275458065      0.59833832619177
  O   1.44526894870720      0.42334614919963      1.25731358259081
  O   2.11904875792028     -1.61278143038805      0.80694573926684
  C   -0.35152781061235      1.74156363058138     -0.43622472536886
  N   -0.11802083075694      2.88964293453295     -0.51545534034869
  N   -1.37468917768777     -0.07690171768915      0.82761265015373
  O   -2.27662389088747      0.68142809684294      1.14926060896279
  O   -1.05019845223363     -1.12355171813002      1.36871742617280
