13
Coordinates from ORCA-job run
  C   0.96147615590513      0.03852965350247      0.06071248513340
  C   -0.41799278130647      0.30533759361971     -0.51652406917141
  Cl  2.18497292676944      0.29949936202156     -1.17442836584304
  H   -0.61404545983177     -0.36231971845187     -1.35686889861193
  H   1.18207430463054      0.65283067630201      0.92994661714791
  N   1.03698166323945     -1.39896721505197      0.52209741882325
  O   0.32781322397634     -2.20682143293935     -0.06848183637522
  O   1.82446518765335     -1.62480805065897      1.42927885448055
  C   -0.57245308902123      1.70060656207372     -0.90609119048973
  N   -0.69281795287596      2.82879835837571     -1.20964144512084
  N   -1.48501279168485     -0.01081257042391      0.51992263602127
  O   -2.60926655722402     -0.19349332464310      0.08032464130344
  O   -1.12619483022996     -0.02837989372602      1.69175315270235
