13
Coordinates from ORCA-job run
  C   0.49005217008372     -0.76106279700891      0.15036700938735
  C   -0.48225091468465      0.33688559470477     -0.26861493091265
  Cl  0.47422347726868     -1.02608305470021      1.86951186414438
  H   -0.43391690513122      0.44050733614658     -1.35652945122665
  H   0.24096560606621     -1.68291069981534     -0.37326293851716
  N   1.86332853879995     -0.34581028385163     -0.37113020489166
  O   1.90039309411890     -0.26418200190624     -1.59503521671580
  O   2.76905641623751     -0.13427813823325      0.41581552818160
  C   -0.20535548220743      1.60588122903246      0.38501025866799
  N   0.06736547422987      2.63304494780900      0.88478088615787
  N   -1.89395567053735     -0.14451365569476      0.02826305933032
  O   -2.62538877947477      0.58266335222183      0.68244680816835
  O   -2.16451702476939     -1.23814182870430     -0.45162267177394
