13
Coordinates from ORCA-job run
  C   0.95989818280112      0.06880660418952      0.06773336022973
  C   -0.42228471782872      0.29180234172556     -0.52191761659946
  Cl  2.18529514048356      0.36359302826144     -1.15777059521401
  H   -0.58969492327844     -0.38013882995397     -1.36491772692831
  H   1.15377674413350      0.69256851459242      0.93654195652902
  N   1.07490688467859     -1.36366977199492      0.53506121167090
  O   0.39360881737191     -2.19439007570061     -0.05678425450085
  O   1.86152039034808     -1.56268040954943      1.44928575822224
  C   -0.61752822522268      1.68215538552447     -0.91082592577778
  N   -0.77525782433298      2.80398889691975     -1.22074156430356
  N   -1.48648166659814     -0.05933092164775      0.50595366061244
  O   -1.14137743044216     -0.04187719486117      1.68194744855770
  O   -2.59538137211359     -0.30182756750531      0.05643428750193
