13
Coordinates from ORCA-job run
  C   0.51354885742133     -0.72861628367211      0.21741513865988
  C   -0.45883849190485      0.30810663380622     -0.33658943342468
  Cl  0.26206237728038     -1.01983328966679      1.91365109262165
  H   -0.25751022123090      0.42942745161438     -1.40470969616528
  H   0.40822371618648     -1.65700037060378     -0.34208187005429
  N   1.91724655911150     -0.21479559656727     -0.09215055584001
  O   2.67811685189264      0.04973862427596      0.82190882406136
  O   2.13084443941528     -0.11615453375752     -1.29661351580718
  C   -0.36893342560295      1.58305450110389      0.35656578711392
  N   -0.24870482986362      2.61548412011108      0.90322714867220
  N   -1.86243953838956     -0.27135897947279     -0.25385809587997
  O   -2.72862851481311      0.39148117496059      0.29583098939736
  O   -1.98598777950259     -1.36853345213181     -0.78359581335492
