13
Coordinates from ORCA-job run
  C   0.48803861102208     -0.77441433363563     -0.06849005478811
  C   -0.46764896382608      0.40921640990100     -0.17801973286658
  Cl  0.36537216672847     -1.57237870322733      1.47218296327823
  H   -0.35234059011624      0.85255478955507     -1.17115685218500
  H   0.28381631898519     -1.47906336525835     -0.87326258797235
  N   1.88729884017686     -0.22828041431853     -0.34128333445153
  O   2.00354993294763      0.23210204960252     -1.47294106285183
  O   2.73590914280248     -0.27969911807659      0.53138422450143
  C   -0.24754801582908      1.40230879458881      0.86094422080170
  N   -0.02089946701585      2.21574444099659      1.67718450215321
  N   -1.88978253274468     -0.12915548735899     -0.13934355391208
  O   -2.11970363390151     -1.00230262460351     -0.96657775155500
  O   -2.66706180922929      0.35236756183495      0.67037901984791
