13
Coordinates from ORCA-job run
  C   0.91880150808450      0.18191178287403     -0.22532260508731
  C   -0.55907073834512     -0.07183229333444     -0.46727680444877
  Cl  1.82362047038703     -0.10732147743200     -1.70445088264158
  H   -0.72062253218217     -1.10339290498930     -0.78384611031646
  H   1.12080178848464      1.18642654074014      0.13761283618318
  N   1.41693666863969     -0.76610519649801      0.84119057849677
  O   0.83903074035238     -1.84378159315377      0.93656344392021
  O   2.37429318829222     -0.37598567725078      1.49332429349778
  C   -1.11048193160773      0.86903408230752     -1.43305388446166
  N   -1.54348271189033      1.64272672569184     -2.20337712704064
  N   -1.33255729994543      0.08676332810760      0.83250766676112
  O   -2.43514458524388     -0.43690169071889      0.85715791233811
  O   -0.79312456502579      0.74045837365613      1.71797068279926
