13
Coordinates from ORCA-job run
  C   0.54130522829316     -0.72922754022512     -0.55341879544345
  C   -0.59269706391334      0.29146711327886     -0.49729841821947
  Cl  -0.04081900096390     -2.34900104604840     -0.85780853964066
  H   -1.33711085470298      0.01486843056127     -1.25077679375478
  H   1.22264505478511     -0.45634704025143     -1.36249334467108
  N   1.39669354857367     -0.64978165641299      0.70956970206726
  O   1.94472123370015     -1.66311919020844      1.10042552152588
  O   1.50068311545261      0.48189878123898      1.16658470607234
  C   -0.15483321523588      1.65688148750922     -0.75693057656423
  N   0.19802605728333      2.73698384284348     -1.05311692855528
  N   -1.36158989129738      0.23902785681330      0.81938379186285
  O   -1.14969167668177     -0.71665111930268      1.55093592700976
  O   -2.16733253529281      1.14200008020397      0.98494374831085
