13
Coordinates from ORCA-job run
  C   0.53632657627967     -0.74450613721518     -0.00900264578318
  C   -0.49928301179119      0.35912000108295     -0.19962871294559
  Cl  0.51492325750237     -1.38767719093360      1.60703080873827
  H   -0.44406468152321      0.70517566515830     -1.23565181348000
  H   0.35405335888587     -1.53916609276896     -0.73106046770577
  N   1.88706635002487     -0.14212552784108     -0.38728507206381
  O   1.93640884343217      0.21083576958716     -1.56161641425810
  O   2.76919213908481     -0.06569416086427      0.44955011253066
  C   -0.31292149690874      1.46451576378527      0.72638500063927
  N   -0.11648578705558      2.36840753097571      1.44998471034358
  N   -1.88030566128845     -0.26077952805830     -0.05416219688912
  O   -2.07833750559140     -1.22470670542608     -0.78306230179810
  O   -2.66457238105119      0.25460061251816      0.72751899267183
