13
Coordinates from ORCA-job run
  C   0.44220587077274     -0.79314535926250      0.14151043497878
  C   -0.46503468945374      0.36714303562386     -0.25483252945380
  Cl  0.45806229249289     -1.05077049970722      1.86180762040407
  H   -0.44034856159392      0.46459039824634     -1.34395821033946
  H   0.11624788894480     -1.69749657660249     -0.37016688234349
  N   1.82481110226505     -0.47387214097099     -0.42080540187186
  O   2.76398362255863     -0.31644494329714      0.33917873066285
  O   1.83279292067847     -0.40229238709195     -1.64595221485249
  C   -0.08535688612037      1.61686281466018      0.38412266229706
  N   0.26442024865170      2.63342389942172      0.85685854767673
  N   -1.89691189862227     -0.01754112446812      0.08368982367777
  O   -2.55747776549365      0.75610961865463      0.75963478042734
  O   -2.25639414508031     -1.08756673520632     -0.39108736126346
