13
Coordinates from ORCA-job run
  C   0.96378129736502     -0.01543736697660      0.02046381746442
  C   -0.42165556962089      0.31292776925446     -0.50919521181807
  Cl  2.14733097475313      0.13837528866957     -1.27027623885402
  H   -0.69002202169468     -0.36766499075772     -1.31858021354312
  H   1.25429978059720      0.61085845820484      0.86004838700273
  N   0.97792081131185     -1.44033695977556      0.52430625059097
  O   1.78859523508150     -1.68362218230282      1.40613352131825
  O   0.19896017514950     -2.22305251341483     -0.00940981623735
  C   -0.51337201017138      1.70236489408555     -0.93735876594355
  N   -0.58233858953376      2.82580869229028     -1.27289786094089
  N   -1.45976991615470      0.09050604875133      0.57956476476173
  O   -1.05331823088728      0.08822326965442      1.73590632680881
  O   -2.61041193619552     -0.03895040768292      0.19229503939010
