13
Coordinates from ORCA-job run
  C   0.55910383061114     -0.71412404032833     -0.55581480750322
  C   -0.61258607320601      0.27046630648202     -0.51873772485230
  Cl  -0.02821300481191     -2.35838767171144     -0.58509175575940
  H   -1.28009976282788      0.03134458747641     -1.34922383011965
  H   1.15613366297154     -0.52230775970976     -1.44706873261836
  N   1.51052944340819     -0.46833557730193      0.61288855502874
  O   2.18390354947645      0.54557108671432      0.47041354555671
  O   1.52231479836322     -1.25164580115740      1.54572124108173
  C   -0.20523896234444      1.66776443044479     -0.58548950577341
  N   0.07078259702224      2.80435475734434     -0.69319826416341
  N   -1.43339992478328      0.05239214778570      0.73748778599635
  O   -2.55211678725147     -0.41861586370823      0.57960241228394
  O   -0.89011336662779      0.36252339766952      1.79051108084230
