13
Coordinates from ORCA-job run
  C   0.60782312018189     -0.71781007399030     -0.49671333447522
  C   -0.59002679678909      0.23327249475830     -0.56170799755632
  Cl  0.06676587028307     -2.37818798652357     -0.49349080501397
  H   -1.20424356371141     -0.05635558720416     -1.41686135253751
  H   1.24739996682554     -0.54240917448268     -1.36143326966594
  N   1.48648190478635     -0.40104754475758      0.71091411756818
  O   1.46918389985011     -1.14876402614569      1.67238934807679
  O   2.13938360800349      0.62575009565938      0.56530152076844
  C   -0.21732096746157      1.63836428240531     -0.66087904557532
  N   0.02912912232390      2.77897736988153     -0.79448653255745
  N   -1.47282702982037      0.03979702384651      0.65599356114825
  O   -0.99390603222101      0.39937111025471      1.72445813419499
  O   -2.56684310225092     -0.47195798370179      0.45751565562509
