13
Coordinates from ORCA-job run
  C   0.58164487665233     -0.71807559399918     -0.52752541262808
  C   -0.60825629002671      0.24514151034051     -0.53559327712574
  Cl  0.02556605999543     -2.37342801235612     -0.52357358329144
  H   -1.25734768014074     -0.02771849494480     -1.37025488538412
  H   1.19000374715695     -0.53804383609730     -1.41354197034818
  N   1.50795236654171     -0.42407155279204      0.64990304701368
  O   1.51616086780937     -1.18100934062801      1.60434108999926
  O   2.16619434065613      0.59743111347232      0.49147861001535
  C   -0.22481306355150      1.64750426649911     -0.63288146207310
  N   0.02720253900498      2.78643519325160     -0.77038225243604
  N   -1.44553716564585      0.04530622513427      0.71266355189888
  O   -0.92708984373739      0.39788864606367      1.76488715832373
  O   -2.55068075471471     -0.45536012394406      0.55047938603576
