15

C	-0.208906	0.1262	-1.516951
C	0.0	0.0	0.0
Br	-0.302518	-1.744436	-2.422109
H	1.089007	0.0	0.0
H	-0.410106	0.904008	0.451252
N	-1.498524	0.67872	-1.88636
H	-1.61698	0.624877	-2.891809
H	-1.46756	1.661122	-1.625986
N	0.917107	0.841538	-1.945302
H	1.020886	0.879013	-2.949021
H	1.782642	0.549013	-1.436388
N	-0.647334	-1.128493	0.674279
O	-0.088104	-2.222807	0.656779
O	-1.715306	-0.903446	1.255209
F	2.673682	0.0	0.0
