15

C	-0.159405	0.221876	-1.501501
C	0.0	0.0	0.0
Br	-0.526815	-1.912463	-2.232763
H	1.088931	0.0	0.0
H	-0.480374	-0.885186	0.393292
N	-1.3916	0.795654	-1.981992
H	-1.270649	1.801965	-1.937438
H	-1.559562	0.504962	-2.934847
N	1.014941	0.685274	-1.98036
H	1.099999	0.822015	-2.97399
H	1.87145	0.438407	-1.409216
N	-0.470383	1.16289	0.774687
O	-0.798888	0.95669	1.943959
O	-0.460253	2.279119	0.249893
F	2.667761	0.0	0.0
