15

C	-0.637467	-0.034821	-1.373507
C	0.0	0.0	0.0
Br	0.299771	-1.242249	-2.6183
H	1.086203	0.0	0.0
H	-0.361688	0.901311	0.505078
N	-1.994816	-0.548522	-1.289118
H	-2.505734	-0.006681	-0.597877
H	-2.45363	-0.470796	-2.189337
N	-0.470514	1.29132	-1.949705
H	-0.815366	1.294671	-2.902805
H	-1.016933	1.946039	-1.398259
N	-0.487952	-1.116589	0.827711
O	-1.222809	-0.848396	1.790699
O	-0.128758	-2.253082	0.535652
F	2.548931	0.0	0.0
