15

C	-0.404883	0.012243	-1.490143
C	0.0	0.0	0.0
Cl	0.094969	-1.461718	-2.380126
H	1.095586	0.0	0.0
H	0.113604	0.842774	-1.974589
C	-1.848683	0.19234	-1.651889
N	-3.004443	0.369837	-1.767663
C	-0.560961	-1.18883	0.753598
H	-1.657285	-1.167173	0.767556
H	-0.231535	-2.132431	0.317871
H	-0.201646	-1.13415	1.78146
N	-0.410571	1.240985	0.64549
H	-1.378859	1.472946	0.454113
H	0.18802	2.002469	0.351481
Br	3.590745	0.0	0.0
