15

C	-0.373609	-0.009157	-1.48025
C	0.0	0.0	0.0
Cl	-2.100972	-0.439406	-1.78865
H	1.104338	0.0	0.0
H	0.224913	-0.769284	-1.986912
C	-0.122648	1.285457	-2.108885
N	0.075701	2.328821	-2.609851
C	-0.452438	-1.267066	0.702613
H	-0.165713	-2.154028	0.133032
H	0.044985	-1.327533	1.674108
H	-1.535001	-1.269112	0.849349
N	-0.575241	1.17813	0.651357
H	0.025015	1.971774	0.446076
H	-0.509424	1.038581	1.653725
Br	3.562334	0.0	0.0
