15

C	-0.334485	-0.024587	-1.500428
C	0.0	0.0	0.0
Cl	-2.099068	-0.304528	-1.813433
H	1.097615	0.0	0.0
H	0.19312	-0.850177	-1.981566
C	0.026129	1.229668	-2.155462
N	0.307528	2.245391	-2.673955
C	-0.466934	-1.269966	0.6913
H	-0.012353	-1.296046	1.681977
H	-1.554683	-1.292613	0.802875
H	-0.150153	-2.160431	0.140921
N	-0.474606	1.174113	0.706804
H	-1.43272	1.389963	0.453544
H	0.111255	1.968309	0.481229
Br	3.539035	0.0	0.0
