15

C	0.0	0.0	0.0
C	-0.290964	0.036466	-1.469568
F	1.358989	0.0	0.0
H	0.529281	0.607888	-1.919607
H	-0.411678	-0.833738	0.547124
N	-0.328277	1.232853	0.764129
O	-0.280357	2.294594	0.137526
O	-0.445328	1.123262	1.976656
C	-1.515048	0.684324	-1.92358
N	-2.390137	1.128183	-2.562403
C	-0.19455	-1.372109	-2.046292
H	-0.252631	-1.342026	-3.127591
H	0.747706	-1.852967	-1.788156
H	-1.01403	-1.961702	-1.661444
F	-2.331508	0.0	0.0
