15

C	0.0	0.0	0.0
C	-0.235021	0.177198	-1.543195
F	1.352702	0.0	0.0
H	0.123627	-0.791436	-1.918999
H	-0.421896	-0.894517	0.429469
N	-0.427863	1.153078	0.838665
O	-0.561365	2.246323	0.299579
O	-0.454118	0.947095	2.049748
C	0.750717	1.154377	-2.054534
N	1.503762	1.912493	-2.542076
C	-1.562152	0.47431	-2.250975
H	-2.287691	-0.282941	-1.977844
H	-1.959586	1.428979	-1.921886
H	-1.349885	0.505421	-3.327633
F	-2.347227	0.0	0.0
