15

C	0.0	0.0	0.0
C	-0.423335	-0.007818	-1.470219
F	1.359132	0.0	0.0
H	0.449889	0.358642	-2.026222
H	-0.394832	-0.815764	0.588022
N	-0.350177	1.264334	0.728684
O	-0.308513	2.30762	0.082302
O	-0.477218	1.186538	1.9462
C	-1.544611	0.856808	-1.855311
N	-2.246349	1.545793	-2.500516
C	-0.725477	-1.451352	-1.872926
H	0.11233	-2.101995	-1.612242
H	-1.623628	-1.738305	-1.325893
H	-0.897856	-1.525054	-2.949918
F	-2.349942	0.0	0.0
