15

C	0.0	0.0	0.0
C	-0.236509	0.048635	-1.549738
F	1.352767	0.0	0.0
H	0.113731	-0.951303	-1.848501
H	-0.430094	-0.85115	0.503551
N	-0.423037	1.224288	0.735263
O	-0.44085	1.123189	1.959771
O	-0.562283	2.265024	0.102383
C	0.74891	0.978831	-2.142528
N	1.490659	1.689067	-2.71339
C	-1.564191	0.304654	-2.267867
H	-2.304837	-0.404099	-1.921536
H	-1.365743	0.239312	-3.346634
H	-1.93534	1.294442	-2.020297
F	-2.367508	0.0	0.0
