15

C	0.0	0.0	0.0
C	-0.412468	-0.141144	-1.469242
F	1.358924	0.0	0.0
H	0.491232	0.101553	-2.047542
H	-0.390331	-0.771524	0.647579
N	-0.360267	1.304091	0.636884
O	-0.302967	2.307858	-0.069611
O	-0.508512	1.299459	1.85519
C	-1.463754	0.744344	-1.977769
N	-2.126627	1.398806	-2.696362
C	-0.810299	-1.596958	-1.726643
H	-0.010184	-2.274501	-1.412409
H	-1.008993	-1.758127	-2.790046
H	-1.713417	-1.759171	-1.141982
F	-2.351643	0.0	0.0
