12

C	0.0	0.0	0.0
C	-0.532003	-0.29474	-1.395284
Br	1.954152	0.0	0.0
H	-0.198984	0.467686	-2.104614
H	-0.254592	1.041358	0.22457
H	-1.634073	-0.219676	-1.218146
N	-0.544153	-0.957647	0.911695
H	-1.571777	-0.793404	0.750432
H	-0.325382	-0.666744	1.859314
C	-0.159956	-1.609415	-1.898483
N	0.104091	-2.654326	-2.365739
F	-2.825207	0.0	0.0
