12

C	0.0	0.0	0.0
C	-0.54081	-0.057624	-1.421918
Br	1.955526	0.0	0.0
H	-0.280169	-1.02378	-1.862764
H	-0.245133	0.981216	0.419215
H	-1.642743	-0.003393	-1.227247
N	-0.554521	-1.107763	0.717892
H	-0.342467	-0.987174	1.703314
H	-1.581616	-0.90497	0.586746
C	-0.103706	1.030966	-2.278457
N	0.204977	1.925791	-2.975308
F	-2.831818	0.0	0.0
