12

C	0.0	0.0	0.0
C	-0.517222	-0.020465	-1.443636
Br	1.956686	0.0	0.0
H	-1.619292	0.011044	-1.252192
H	-0.287184	0.950849	0.446663
H	-0.235136	-0.964496	-1.922575
N	-0.549131	-1.044857	0.806417
H	-1.573493	-0.811511	0.714045
H	-0.392902	-1.929451	0.329131
C	-0.080167	1.095846	-2.267394
N	0.259844	2.009886	-2.92399
F	-2.808266	0.0	0.0
