12

C	0.0	0.0	0.0
C	-0.536995	-0.260987	-1.401131
Br	1.9557	0.0	0.0
H	-1.638715	-0.18191	-1.221123
H	-0.246192	1.030319	0.275342
H	-0.272591	-1.279256	-1.698629
N	-0.554121	-0.995807	0.866994
H	-1.58141	-0.81371	0.707843
H	-0.342327	-0.736419	1.825373
C	-0.091105	0.689221	-2.405825
N	0.237996	1.453377	-3.235454
F	-2.83016	0.0	0.0
