15

C	-0.351519	0.015845	-1.502075
C	0.0	0.0	0.0
Br	0.317674	-1.662021	-2.300619
H	1.097332	0.0	0.0
C	-1.792563	0.032488	-1.738472
N	-2.952265	0.103624	-1.925103
C	0.35884	1.187812	-2.171572
H	0.225455	1.147424	-3.253508
H	-0.051912	2.127068	-1.791625
H	1.418014	1.11941	-1.905331
C	-0.519197	-1.149735	0.714281
N	-0.889093	-2.086944	1.322389
C	-0.438134	1.236256	0.624122
N	-0.772694	2.258444	1.102951
H	2.497409	0.0	0.0
