15

C	-0.362177	0.219138	-1.479409
C	0.0	0.0	0.0
Br	0.369459	-1.29872	-2.516356
H	1.108033	0.0	0.0
C	-1.80505	0.20317	-1.706307
N	-2.971024	0.221855	-1.859646
C	0.291188	1.504448	-1.973938
H	-0.156018	2.361164	-1.463453
H	0.152202	1.613357	-3.050445
H	1.355222	1.44562	-1.7239
C	-0.492577	-1.248928	0.546163
N	-0.820438	-2.277908	1.014071
C	-0.432927	1.127757	0.801415
N	-0.711159	2.07058	1.44952
H	2.468709	0.0	0.0
