15

C	-0.499114	-0.102782	-1.442754
C	0.0	0.0	0.0
Br	0.357054	1.343242	-2.496184
H	1.108011	0.0	0.0
C	-0.077504	-1.369986	-2.042817
N	0.157254	-2.389607	-2.577796
C	-2.011965	0.057669	-1.577648
H	-2.313967	-0.019341	-2.624424
H	-2.306924	1.034258	-1.189103
H	-2.509842	-0.725834	-0.997848
C	-0.431409	-1.148742	0.770476
N	-0.71716	-2.09952	1.40457
C	-0.437502	1.229094	0.633498
N	-0.708286	2.242673	1.166218
H	2.424014	0.0	0.0
