12

C	0.0	0.0	0.0
C	-0.25496	0.025755	-1.518812
Cl	1.762066	0.0	0.0
H	0.387568	0.828352	-1.897906
H	-0.415899	0.812248	0.58422
H	0.176996	-0.905169	-1.897346
N	-0.40346	-1.28977	0.66744
O	-0.512478	-1.237496	1.884725
O	-0.46841	-2.293224	-0.030966
C	-1.529698	0.195728	-2.223553
N	-2.217952	0.205723	-3.176669
Cl	-3.073807	0.0	0.0
