12

C	0.0	0.0	0.0
C	-0.417511	-0.128711	-1.463426
Cl	1.76013	0.0	0.0
H	-1.490097	-0.336128	-1.511253
H	-0.409325	0.864813	0.511277
H	0.150889	-0.947274	-1.910559
N	-0.415806	-1.215756	0.788441
O	-0.527198	-1.056185	1.996125
O	-0.508141	-2.273896	0.178509
C	-0.107157	1.0995	-2.188715
N	0.162851	2.069564	-2.792137
Cl	-3.2389	0.0	0.0
