12

C	0.0	0.0	0.0
C	-0.590821	-0.247269	-1.371528
Cl	1.752494	0.0	0.0
H	-1.678582	-0.369166	-1.214621
H	-0.366251	0.933504	0.419929
H	-0.440161	0.65837	-1.967162
N	-0.419284	-1.072093	0.990119
O	-0.793379	-2.145701	0.539218
O	-0.298924	-0.77136	2.172245
C	-0.004843	-1.378428	-2.08225
N	0.478119	-2.24939	-2.704077
Cl	-3.541212	0.0	0.0
