12

C	0.0	0.0	0.0
C	-0.437026	-0.126839	-1.453618
Cl	1.760062	0.0	0.0
H	-1.518742	-0.299939	-1.470295
H	-0.40492	0.864937	0.51502
H	0.094975	-0.968378	-1.902107
N	-0.41534	-1.213942	0.792416
O	-0.510697	-2.273067	0.184769
O	-0.525247	-1.051898	1.99979
C	-0.10115	1.086203	-2.190976
N	0.191781	2.045493	-2.800886
Cl	-3.263855	0.0	0.0
