12

C	0.0	0.0	0.0
C	-0.532201	-0.084843	-1.414717
Cl	1.759986	0.0	0.0
H	-1.631262	-0.12298	-1.321171
H	-0.383129	0.855583	0.54885
H	-0.161967	-0.996943	-1.886417
N	-0.408752	-1.218881	0.796331
O	-0.503402	-1.059066	2.005517
O	-0.524622	-2.275267	0.187874
C	-0.120406	1.077014	-2.190559
N	0.211257	2.007138	-2.825889
Cl	-3.404649	0.0	0.0
