12

C	0.0	0.0	0.0
C	-0.605491	-0.096389	-1.38155
Cl	1.750458	0.0	0.0
H	-1.687533	-0.255144	-1.218202
H	-0.372397	0.871216	0.531685
H	-0.489531	0.87782	-1.868298
N	-0.393	-1.187646	0.861945
O	-0.345016	-1.008261	2.073989
O	-0.644715	-2.240158	0.291472
C	-0.007196	-1.112998	-2.236669
N	0.470818	-1.893615	-2.972064
Cl	-3.523181	0.0	0.0
