20

C	-0.298183	-0.133098	-1.501382
C	0.0	0.0	0.0
Br	-0.13308	1.654751	-2.402076
H	1.096354	0.0	0.0
C	0.802748	-0.982827	-2.137536
H	0.762188	-0.944591	-3.230653
H	1.76901	-0.644883	-1.735193
H	0.655258	-2.024011	-1.825991
N	-1.66746	-0.545427	-1.779288
H	-1.756838	-0.717805	-2.776549
H	-1.816536	-1.431065	-1.303878
C	-0.434767	-1.272483	0.736566
H	0.032791	-1.265416	1.724826
H	-1.52266	-1.332313	0.880114
H	-0.090268	-2.182896	0.237453
C	-0.602418	1.216187	0.682961
H	-0.481653	1.121788	1.767956
H	-0.092277	2.129104	0.37498
H	-1.671366	1.318248	0.459752
F	2.759142	0.0	0.0
