20

C	-0.17581	0.073833	-1.533563
C	0.0	0.0	0.0
Br	-0.281415	-1.875898	-2.272357
H	1.09807	0.0	0.0
C	-1.464212	0.681239	-2.058137
H	-1.497425	0.613484	-3.144786
H	-2.339364	0.1652	-1.652521
H	-1.520774	1.73368	-1.764709
N	0.97379	0.667578	-2.115176
H	1.793427	0.532242	-1.487617
H	0.816689	1.637035	-2.35689
C	-0.640257	-1.140414	0.765473
H	-1.720089	-1.216754	0.578447
H	-0.182436	-2.095704	0.505668
H	-0.496728	-0.978584	1.840234
C	-0.406982	1.3493	0.600763
H	-1.494322	1.489582	0.652855
H	0.033993	2.179437	0.039631
H	-0.006749	1.407185	1.619527
F	2.741853	0.0	0.0
