20

C	-0.593462	-0.026236	-1.403123
C	0.0	0.0	0.0
Br	0.321638	-1.456387	-2.474875
H	1.095147	0.0	0.0
C	-2.074855	-0.411999	-1.443737
H	-2.441503	-0.393094	-2.474375
H	-2.644979	0.318772	-0.857804
H	-2.255446	-1.407389	-1.03653
N	-0.329281	1.205752	-2.116122
H	-0.849361	1.217122	-2.986574
H	-0.625428	1.986136	-1.547249
C	-0.414229	-1.210198	0.83291
H	-0.271113	-2.139721	0.275386
H	0.250441	-1.254667	1.700745
H	-1.45351	-1.171411	1.19179
C	-0.360302	1.288674	0.745303
H	-1.439004	1.506514	0.800329
H	0.01255	1.194408	1.769545
H	0.168939	2.143013	0.315135
F	2.665312	0.0	0.0
