18
Coordinates from ORCA-job run
  C   -0.75206471436431     -0.21244453796331     -0.21250557691577
  C   0.72935359940844      0.15904012031682     -0.37857656338010
  Cl  -1.10126295817331     -1.55216999024085     -1.45528708524294
  H   0.87314246385357      0.39614796007606     -1.43775541042938
  N   -1.00037870114164     -0.65321573945157      1.11877431822030
  H   -0.55111603086610     -1.54055554104455      1.30647694324047
  H   -1.99361605232553     -0.75765465530726      1.28615818303472
  C   -1.68030870490756      0.93203237800655     -0.57030412719147
  H   -2.71815723531881      0.59035730400980     -0.55492605813289
  H   -1.54167989172328      1.74375775833123      0.14139142046215
  H   -1.45526123272072      1.30012065003647     -1.57141025216974
  C   1.68710038374146     -0.96857979286638      0.00841681027556
  H   1.48372343729825     -1.89542098387672     -0.53082958271064
  H   1.63969169130601     -1.15996269112304      1.08427624140365
  H   2.71227840110967     -0.66506945323548     -0.21957779738018
  N   0.94579202122238      1.39214189633377      0.37903937609093
  H   1.89956082090197      1.70677550548088      0.24265635924154
  H   0.82420270269953      1.18569981251760      1.36498280158380
