18
Coordinates from ORCA-job run
  C   -0.78896307950295     -0.06959629902876     -0.17604159510355
  C   0.72736250987500     -0.28163891099453     -0.05871350196351
  Cl  -1.03306869981804      1.54081173191075     -1.12571978928023
  H   0.81317489571619     -1.24229535201192      0.46420472960505
  N   -1.33699421683017     -1.16722148439894     -0.87010549740601
  H   -2.31268667648676     -1.02769701937195     -1.09680953660005
  H   -0.79112945786755     -1.34855253379525     -1.70465491309961
  C   -1.49046869927316      0.13817230986468      1.15046651512719
  H   -1.28789748870200     -0.72180217611777      1.79451965729260
  H   -2.56897796616938      0.20507561241124      0.99206485094047
  H   -1.16635474612109      1.05332256595608      1.64277107909571
  C   1.45805420032705      0.78454252710457      0.75014370256483
  H   2.52461490369825      0.54585259284575      0.77554347594034
  H   1.10691023766142      0.83347939531725      1.78317656821010
  H   1.33931075388880      1.76993610179147      0.29524163279688
  N   1.26272497571265     -0.49402476482555     -1.40389375698850
  H   2.17914439438983     -0.92040903865499     -1.34372080861346
  H   1.36724415950192      0.40204474199787     -1.86747281251824
