18
Coordinates from ORCA-job run
  C   -0.73779681756965     -0.19871679270775     -0.42644444948533
  C   0.79126344279723     -0.05823950945616     -0.46155900146011
  Cl  -1.33078208271617      0.12713968057574     -2.10776549922733
  H   1.12094086029298     -0.75425726667303     -1.24673895861908
  N   -1.06798146617307     -1.59254485784371     -0.15496000089664
  H   -2.02493712491083     -1.76958131428169     -0.44004254227891
  H   -1.02510786881205     -1.74179078232531      0.84831349429205
  C   -1.42314802509309      0.80086495989230      0.49120108144540
  H   -2.50673371746157      0.68772022373952      0.41533390005691
  H   -1.12872623403958      0.60530282913111      1.52641179578206
  H   -1.14206209779815      1.82219781512231      0.24101234542783
  C   1.43145702462825     -0.48805471126045      0.85212613654619
  H   1.19770712121366     -1.52674545628061      1.08773959666181
  H   1.12396765298109      0.16216122568235      1.67372501753244
  H   2.51951690228305     -0.41663708900156      0.76548633141425
  N   1.15526069198631      1.33138958426265     -0.72676517275323
  H   0.88837915499391      1.57788282992630     -1.67301868985478
  H   2.16178258339768      1.42890863149797     -0.66405538458354
