18
Coordinates from ORCA-job run
  C   -0.71646562497782     -0.20761060725746     -0.35089841209182
  C   0.82719889151378     -0.15194741790003     -0.43571665038722
  Cl  -1.32748127262391      0.14129742890762     -2.08817594447080
  H   1.11081829639386     -0.93890816538807     -1.14738559542208
  N   -1.12930564917879     -1.49669137192595      0.07278215673359
  H   -0.76421144522913     -2.21706677107739     -0.53946248120483
  H   -2.13866027562387     -1.57435263531062      0.09586716470539
  C   -1.33843262318505      0.86136555430787      0.52306289239325
  H   -2.42768407462294      0.80951254590868      0.46466231712925
  H   -1.03690040789251      1.85642087390647      0.19781509828312
  H   -1.03934580225719      0.70472760466790      1.56110501403180
  C   1.46447061396848     -0.46628270155397      0.91355347514111
  H   1.26679372078553      0.33360432600680      1.63335980605125
  H   1.08844698418856     -1.39946482719330      1.32926687123974
  H   2.54541762646371     -0.53197875936053      0.78064352921467
  N   1.39524299517137      1.08684689482063     -0.93521501576374
  H   0.95970286099732      1.35644231071023     -1.80801290722306
  H   1.25939518610861      1.83408571773111     -0.26525131835961
