18
Coordinates from ORCA-job run
  C   -0.71887410488848      0.04135579930377     -0.14902436261196
  C   0.79412879525920     -0.26640628660982     -0.10687553254434
  Cl  -0.90717319989609      1.85492764540397     -0.54961939192466
  H   0.83177003443169     -1.32844960062769      0.16598351116465
  N   -1.33593678623857     -0.76110588628998     -1.14704871934551
  H   -2.33727702462311     -0.61169308284823     -1.16548825192610
  H   -0.96847712081009     -0.54286820883574     -2.06399689832533
  C   -1.41643973759077     -0.17299435649465      1.18011992791290
  H   -2.49160647145948     -0.01145202256888      1.07142162319168
  H   -1.05243501945596      0.51568069510535      1.93939830166086
  H   -1.25016154478802     -1.20251461489994      1.50799795657051
  C   1.56168269480976      0.52829246102190      0.94043193207110
  H   2.59874981487327      0.19151782839060      0.92828417327883
  H   1.16291226188486      0.38443857086585      1.94574040798287
  H   1.54658930457746      1.59556886485530      0.71202814977048
  N   1.47891650262589     -0.14301913376941     -1.38483488964354
  H   1.32996852617246      0.77695177438009     -1.78248894279849
  H   1.17366307511599     -0.84723044638248     -2.04302899448396
