18
Coordinates from ORCA-job run
  C   -0.75662094436526     -0.21160295585470     -0.28974198118400
  C   0.77118260549448      0.06042853589933     -0.36944120642410
  Cl  -1.13624071062376     -1.40671786788127     -1.59875290131588
  H   0.98225725364960      0.33986494436302     -1.40778584999522
  N   -1.23327175240634     -0.78675890786345      0.94717938764430
  H   -0.72114980110418     -1.62692223779595      1.18501060302022
  H   -1.14949453084201     -0.11539549534617      1.70114239108147
  C   -1.57134126503249      1.03657710235601     -0.58456239821298
  H   -2.62416385028890      0.76798835974141     -0.66540073816075
  H   -1.24728694070314      1.49841052172964     -1.51932200369193
  H   -1.46680195340514      1.76316408930059      0.22552505340977
  C   1.61665176320424     -1.15458799975937     -0.01321115716680
  H   2.66485477324880     -0.92093959449924     -0.20161080096850
  H   1.52397709476834     -1.39409530539337      1.05082732902735
  H   1.33874947437473     -2.03397511921790     -0.59369816835800
  N   1.21382567368445      1.16881981953640      0.46871040956621
  H   1.03415476665844      0.97828717929411      1.44747506495717
  H   0.76171834368813      2.03745493139091      0.21665696677166
