13

C	-0.523125	0.044499	-1.41063
C	0.0	0.0	0.0
Cl	-2.414234	0.070053	-1.309806
H	1.091258	0.0	0.0
H	-0.302205	0.999681	-1.877239
H	-0.379853	-0.863507	0.54495
N	-0.032925	-1.023656	-2.169375
H	-0.177567	-1.922956	-1.737191
H	-0.366822	-1.021527	-3.12095
N	-0.43756	1.193439	0.764188
O	-0.789281	1.023556	1.931266
O	-0.384867	2.282296	0.194704
Cl	3.348976	0.0	0.0
