13

C	-0.532534	-0.019682	-1.418555
C	0.0	0.0	0.0
Cl	-0.15699	1.601997	-2.206164
H	1.086881	0.0	0.0
H	0.09493	-0.71628	-1.974593
H	-0.361342	-0.899418	0.506733
N	-1.89848	-0.400934	-1.525288
H	-2.190818	-0.400726	-2.493713
H	-2.467879	0.248832	-0.998289
N	-0.530954	1.140051	0.798785
O	-1.730753	1.412152	0.667211
O	0.224821	1.710609	1.572989
Cl	3.40786	0.0	0.0
