13

C	-0.55982	0.003783	-1.419903
C	0.0	0.0	0.0
Cl	-0.267895	1.645797	-2.081717
H	1.089701	0.0	0.0
H	0.023869	-0.680311	-2.032824
H	-0.397532	0.822976	0.591845
N	-1.957161	-0.323954	-1.565213
H	-2.072125	-1.321938	-1.432208
H	-2.50865	0.163838	-0.8688
N	-0.45445	-1.245788	0.664367
O	-1.02061	-1.153644	1.75276
O	-0.263723	-2.30616	0.065694
Cl	3.355752	0.0	0.0
