16
Coordinates from ORCA-job run
  C   -0.55097783836079     -0.01444048134775     -0.20794486619938
  C   0.79828717771998      0.55084442619567      0.20978987678296
  F   -0.50121137922193     -0.14649235333253     -1.62959694992345
  H   0.93856644899373      1.48422139964097     -0.34320134059938
  H   0.74480392264115      0.80168491552484      1.27299056481682
  N   -0.79265155440841     -1.27933631076362      0.39698901700824
  H   -0.09331111139532     -1.95108131067837      0.10744848165165
  H   -1.70084390435179     -1.63145276929972      0.11937346790511
  C   -1.69580132519604      0.93371120271798      0.07875994176933
  H   -2.62769287368557      0.52044593190259     -0.31540656195330
  H   -1.51748882853333      1.89238383679047     -0.40990926986051
  H   -1.80209153620983      1.08663537443097      1.15321939073750
  C   1.97112334525997     -0.38717063039309     -0.05770777204611
  H   1.95936590145769     -0.73016657168956     -1.09383921898458
  H   1.95063661007760     -1.25655985726381      0.60334513723587
  H   2.91928694521288      0.12577319756495      0.11569010165925
