16
Coordinates from ORCA-job run
  C   -0.55348098455997     -0.26640614220960     -0.27825779334282
  C   0.87368442380507     -0.54217231579907      0.17197322437348
  F   -0.47221466593644      0.11199467897659     -1.65249634503101
  H   0.83489856415369     -0.89595588116251      1.20587539081421
  H   1.24675763245410     -1.37325786978933     -0.43799428827388
  N   -1.33570282273427     -1.44685817863499     -0.13634252689273
  H   -0.91437052932837     -2.21185435814348     -0.64950063276680
  H   -2.27031318322702     -1.29622893085097     -0.49660277952502
  C   -1.22187403785402      0.89159137385317      0.43175432683020
  H   -1.24015832783073      0.71597690727514      1.50823978162040
  H   -0.69759734324065      1.82317845383741      0.22186556051774
  H   -2.24960026015943      0.99818641314124      0.07565529650180
  C   1.81564162893090      0.64823091732876      0.03528636833617
  H   2.84396234352038      0.34621263794798      0.24554050758369
  H   1.56125480288431      1.44838234835942      0.73312247179183
  H   1.78011275912244      1.04997994587022     -0.97811856253728
