16
Coordinates from ORCA-job run
  C   -0.50935253117728     -0.25914345003303     -0.41508246204957
  C   0.88022346324374     -0.53638429443097      0.14331999680026
  F   -0.34474085917814      0.19510782765093     -1.73560210697527
  H   1.28749356639349     -1.36252442873825     -0.44721672163861
  H   0.77514879366311     -0.89244811982172      1.17493963295030
  N   -1.23250163557274     -1.49858298114017     -0.49580735075407
  H   -2.22941245087453     -1.34138283358724     -0.57159469368594
  H   -1.04960545590675     -2.08498881177829      0.30629883609639
  C   -1.25630259363300      0.85389438711452      0.30103834728208
  H   -2.23310424207166      0.99089091225353     -0.17021792950562
  H   -0.71913806878309      1.80093940644470      0.23722803271944
  H   -1.40748752936757      0.59730517839732      1.35224646049225
  C   1.82419854114352      0.65855675977280      0.09190885892524
  H   2.83602694182472      0.35587957470273      0.36978342244558
  H   1.85876832191729      1.07067984148446     -0.91709140740792
  H   1.51878573837889      1.45120103170867      0.77784908430547
