14

C	0.0	0.0	0.0
C	-0.553245	-0.058608	-1.419337
F	1.372819	0.0	0.0
H	-1.609292	-0.362724	-1.282644
H	-0.301374	0.968331	0.422782
N	-0.487006	-1.139743	0.717978
H	-0.222192	-1.040177	1.692871
H	-1.514215	-1.032819	0.67148
C	0.163552	-1.046162	-2.21994
N	0.694999	-1.833409	-2.911137
N	-0.469754	1.276626	-2.042678
H	-1.274095	1.775983	-1.665204
H	-0.651015	1.172883	-3.03596
H	-3.039655	0.0	0.0
