14

C	0.0	0.0	0.0
C	-0.485021	-0.109877	-1.454126
F	1.410587	0.0	0.0
H	0.305974	-0.676188	-1.966161
H	-0.270453	0.9573	0.452255
N	-0.479785	-1.08608	0.76074
H	-0.787242	-1.861181	0.196111
H	0.132101	-1.332412	1.522471
C	-0.466019	1.240307	-2.071771
N	-0.438267	2.301704	-2.576658
N	-1.73297	-0.843303	-1.532894
H	-2.088408	-0.810761	-2.481637
H	-2.501159	-0.439979	-0.89879
H	-3.709862	0.0	0.0
