14

C	0.0	0.0	0.0
C	-0.341245	0.13763	-1.499573
F	1.398652	0.0	0.0
H	0.046759	-0.793293	-1.937082
H	-0.368483	0.862638	0.560331
N	-0.489674	-1.231178	0.520541
H	0.259561	-1.903606	0.597476
H	-1.005247	-1.12322	1.381155
C	0.480548	1.230324	-2.081312
N	1.123035	2.086222	-2.566208
N	-1.738383	0.359154	-1.802723
H	-2.057388	-0.375825	-2.420939
H	-2.38851	0.284205	-0.967172
H	-3.590548	0.0	0.0
