14

C	0.0	0.0	0.0
C	-0.505236	-0.017006	-1.436492
F	1.390954	0.0	0.0
H	-1.610692	-0.028127	-1.314918
H	-0.283989	0.976804	0.42249
N	-0.516308	-1.122745	0.704515
H	-0.328873	-0.999809	1.695425
H	-1.545227	-1.021231	0.587682
C	-0.071454	-1.233145	-2.130367
N	0.276585	-2.179705	-2.730792
N	-0.108543	1.155669	-2.22092
H	0.868199	1.349797	-2.025267
H	-0.65076	1.942637	-1.879646
H	-3.03058	0.0	0.0
