14

C	0.0	0.0	0.0
C	-0.40069	0.03019	-1.492524
F	1.386521	0.0	0.0
H	0.375273	-0.562989	-1.995225
H	-0.300656	0.921107	0.509327
N	-0.475781	-1.185435	0.626291
H	-1.306959	-1.502384	0.140047
H	-0.745193	-0.984917	1.577081
C	-0.231897	1.417112	-1.997627
N	-0.118724	2.490386	-2.463533
N	-1.694739	-0.567722	-1.721908
H	-1.997693	-0.411212	-2.676107
H	-2.45447	-0.212432	-1.057211
H	-3.525194	0.0	0.0
