14

C	0.0	0.0	0.0
C	-0.37158	0.188671	-1.50613
F	1.398596	0.0	0.0
H	0.097961	-0.69353	-1.9593
H	-0.330714	0.841667	0.615299
N	-0.404221	-1.307487	0.375643
H	0.052548	-1.645986	1.227198
H	-1.410517	-1.33687	0.482225
C	0.383778	1.370191	-2.016924
N	0.965091	2.301447	-2.442796
N	-1.774812	0.387185	-1.85474
H	-2.10252	-0.421671	-2.367913
H	-2.447156	0.263996	-0.986172
H	-3.44378	0.0	0.0
