14

C	0.0	0.0	0.0
C	-0.552699	-0.096584	-1.417137
F	1.372658	0.0	0.0
H	-1.612136	-0.385408	-1.270896
H	-0.301789	0.979416	0.396673
N	-0.487873	-1.11991	0.74821
H	-1.515181	-1.015049	0.696332
H	-0.227712	-0.991805	1.720666
C	0.155012	-1.114642	-2.186535
N	0.689785	-1.914977	-2.859884
N	-0.454005	1.217165	-2.082526
H	-0.628668	1.083589	-3.073366
H	-1.255646	1.736659	-1.727675
H	-3.04148	0.0	0.0
