14

C	0.0	0.0	0.0
C	-0.343592	0.033693	-1.520229
F	1.382954	0.0	0.0
H	0.437191	-0.605531	-1.951596
H	-0.304262	0.920954	0.509933
N	-0.513974	-1.20449	0.574338
H	-0.244204	-1.22648	1.556772
H	-1.538902	-1.082609	0.5495
C	-0.070049	1.394957	-2.023174
N	0.14703	2.475846	-2.429358
N	-1.631618	-0.42942	-1.991232
H	-2.366642	-0.159187	-1.29633
H	-1.606634	-1.44263	-1.965451
H	-3.267334	0.0	0.0
