14

C	0.0	0.0	0.0
C	-0.590885	-0.013886	-1.383549
F	1.413313	0.0	0.0
H	-1.690669	0.004962	-1.111054
H	-0.349392	0.909861	0.489861
N	-0.425078	-1.166059	0.702547
H	-0.61883	-0.986624	1.671075
H	0.264575	-1.895277	0.593458
C	-0.277034	-1.271004	-2.072729
N	0.025437	-2.250077	-2.652478
N	-0.218553	1.174661	-2.144052
H	-0.888444	1.318204	-2.887808
H	0.69456	1.047177	-2.56241
H	-3.182667	0.0	0.0
