17

C	-0.635623	0.031175	-1.379847
C	0.0	0.0	0.0
Cl	0.097847	1.471639	-2.268347
H	1.094711	0.0	0.0
N	-0.240334	-1.12513	-2.294224
O	0.928571	-1.466753	-2.286993
O	-1.125501	-1.566349	-3.023885
N	-2.028735	0.096877	-1.283049
H	-2.2488	0.876791	-0.675823
H	-2.467392	0.187381	-2.188995
N	-0.413631	-1.195989	0.705475
O	-0.505381	-2.250659	0.058366
O	-0.527673	-1.139193	1.944552
N	-0.390697	1.199713	0.717031
H	0.479185	1.707009	0.872403
H	-0.703476	0.890771	1.630869
H	2.454767	0.0	0.0
