17

C	-0.419474	-0.004658	-1.470305
C	0.0	0.0	0.0
Cl	-2.182872	-0.320931	-1.626598
H	1.091437	0.0	0.0
N	-0.145194	1.424691	-1.974248
O	1.037819	1.639498	-2.204929
O	-1.060632	2.225583	-2.08084
N	0.302766	-0.872303	-2.34289
H	0.085697	-1.818398	-2.0496
H	1.288236	-0.724329	-2.110157
N	-0.394363	-1.298278	0.606711
O	0.03139	-2.333477	0.079237
O	-1.069138	-1.282613	1.64507
N	-0.478091	1.133339	0.700204
H	0.10438	1.28188	1.515803
H	-1.436595	1.001472	0.997013
H	2.575338	0.0	0.0
