17

C	-0.503837	0.038674	-1.432274
C	0.0	0.0	0.0
Cl	0.454147	-1.008387	-2.5093
H	1.092787	0.0	0.0
N	-1.98178	-0.472466	-1.493431
O	-2.664451	-0.132224	-0.532201
O	-2.393822	-1.037426	-2.492778
N	-0.556614	1.370273	-1.920648
H	-0.230304	1.988901	-1.185778
H	-0.039415	1.471496	-2.779169
N	-0.395923	-1.219134	0.700256
O	-0.594335	-2.242184	0.032792
O	-0.392437	-1.183977	1.938267
N	-0.273902	1.1971	0.730288
H	-1.148304	1.132	1.232606
H	0.492752	1.324699	1.384037
H	2.471678	0.0	0.0
