17

C	-0.269839	0.067427	-1.512943
C	0.0	0.0	0.0
Cl	0.09639	-1.496888	-2.237297
H	1.090626	0.0	0.0
N	-1.73652	0.420461	-1.822282
O	-2.521807	-0.43006	-2.214665
O	-2.022155	1.599123	-1.592647
N	0.545151	1.072967	-2.126586
H	1.503503	0.870687	-1.807455
H	0.282341	1.96166	-1.715112
N	-0.641581	-1.210758	0.595774
O	-1.8772	-1.199438	0.621327
O	0.067491	-2.113211	1.030511
N	-0.376495	1.134203	0.774127
H	0.438415	1.716973	0.920122
H	-1.160164	1.655487	0.412289
H	2.704668	0.0	0.0
