11

C	-0.557988	-0.01108	-1.425277
C	0.0	0.0	0.0
Cl	-0.050564	1.469195	-2.288353
H	1.092665	0.0	0.0
H	-1.650457	0.011821	-1.404577
H	-0.325616	0.924182	0.486459
C	-0.160725	-1.193691	-2.187819
N	0.078555	-2.156975	-2.814884
C	-0.532322	-1.137238	0.742619
N	-0.995239	-2.052972	1.313769
Cl	3.30056	0.0	0.0
