11

C	-0.459958	0.026742	-1.460472
C	0.0	0.0	0.0
Cl	0.043213	-1.479937	-2.275915
H	1.092815	0.0	0.0
H	0.046529	0.843849	-1.977567
H	-0.358896	-0.908576	0.489404
C	-1.90732	0.181168	-1.607334
N	-3.070099	0.304654	-1.717457
C	-0.501975	1.172715	0.707039
N	-0.931554	2.117588	1.255952
Cl	3.295939	0.0	0.0
