11

C	-0.430197	-0.060849	-1.460216
C	0.0	0.0	0.0
Cl	-2.161842	-0.535072	-1.630067
H	1.094769	0.0	0.0
H	0.152021	-0.842881	-1.950335
H	-0.312467	-0.927573	0.487684
C	-0.224891	1.197325	-2.172529
N	-0.087621	2.212052	-2.747222
C	-0.574011	1.131513	0.711593
N	-1.062913	2.030894	1.28575
Cl	3.271773	0.0	0.0
