11

C	-0.440507	-0.049759	-1.456648
C	0.0	0.0	0.0
Cl	-2.212059	-0.358417	-1.609925
H	1.095478	0.0	0.0
H	0.059311	-0.894673	-1.935339
H	-0.325844	-0.920671	0.491489
C	-0.116025	1.168027	-2.194462
N	0.133904	2.15219	-2.784419
C	-0.547228	1.146503	0.7108
N	-0.997091	2.062953	1.290122
Cl	3.283966	0.0	0.0
