14

C	-0.374987	0.011413	-1.443099
C	0.0	0.0	0.0
F	-0.141522	1.225887	-2.026448
H	1.093707	0.0	0.0
H	0.130765	-0.76385	-2.01849
H	-0.402577	0.909583	0.457593
N	-1.855313	-0.257593	-1.628644
O	-2.637482	0.663684	-1.412175
O	-2.179978	-1.411895	-1.909769
C	-0.471053	-1.256368	0.719697
H	-0.106152	-2.14879	0.203643
H	-0.035321	-1.268581	1.721315
H	-1.559893	-1.341417	0.813194
F	2.651983	0.0	0.0
