14
Coordinates from ORCA-job run
  C   0.70184639517251      0.11953494592404     -0.49179957556287
  C   -0.76444258183227     -0.17719828367388     -0.14768790145005
  Br  1.10616830109232     -0.66812871795774     -2.23213043386371
  H   -0.87654833357356     -1.26483876276290     -0.08643825525230
  H   0.82797904479563      1.19704377842025     -0.62973678556267
  C   1.65861739367840     -0.41621670654744      0.55529623999766
  H   1.55658943421160     -1.50022737579096      0.64441311630744
  H   1.43142451703584      0.03643405737072      1.52059188501068
  H   2.68948169156887     -0.19004683835293      0.27995259871397
  C   -1.67423679049549      0.31367133637036     -1.20257525510800
  N   -2.44598225758914      0.76414423216278     -1.96549734894118
  N   -1.07308632900834      0.38560293205312      1.16381335948514
  H   -1.95053077445844      0.00866295587857      1.50212572914479
  H   -1.18627971059792      1.39056244690600      1.08767262708111
