14
Coordinates from ORCA-job run
  C   0.64520716976880     -0.51535473674533     -0.12305162760568
  C   -0.76384142421553      0.08400148378352     -0.19058199050226
  Br  0.80402522990545     -1.74778087600874      1.37353789377791
  H   -0.73718884249244      0.77707275775564     -1.05006106119844
  H   0.78487491042309     -1.12911005969209     -1.01830560996877
  C   1.72319356338359      0.55016436557515     -0.03635261873987
  H   1.63235485725834      1.11847278747202      0.89103462790705
  H   2.71272229501636      0.09309172794138     -0.06198204757899
  H   1.63856181528673      1.23991749986112     -0.88229909975523
  C   -1.03695458430800      0.90363256658226      0.99685258695237
  N   -1.28211948994417      1.57287656163102      1.92927205778303
  N   -1.78414201512917     -0.94693987398300     -0.30908554562529
  H   -2.70350250154494     -0.52458750315171     -0.35865692101607
  H   -1.63319098340810     -1.47445670102125     -1.16132064442977
