14
Coordinates from ORCA-job run
  C   0.63484369216332      0.10799984868185     -0.49755692573834
  C   -0.86952686000644     -0.10517843306572     -0.23003960594091
  Br  1.07486502568970     -0.66003437294569     -2.23994898929578
  H   -1.07282268582946     -1.17933242612724     -0.30869333504631
  H   0.83517973650872      1.17866836023774     -0.59451305246052
  C   1.51550187066541     -0.51862789018074      0.56783894509986
  H   2.56833872793832     -0.40377204946501      0.30927775992333
  H   1.35318533051164     -0.03185828787340      1.53247045873027
  H   1.30326001157170     -1.58638462448289      0.66506689723072
  C   -1.66655357230391      0.57759842789576     -1.26058867891564
  N   -2.29296078278516      1.17132208725095     -2.05578799696289
  N   -1.33718688246502      0.34180190252962      1.07320898210098
  H   -0.92561155053899     -0.21043012192091      1.81301655503555
  H   -1.12051206111983      1.31922757946567      1.22524898623968
