14
Coordinates from ORCA-job run
  C   0.66592417875148     -0.45726450090285     -0.27622564497486
  C   -0.73786974774560      0.14773900481624     -0.29203460779646
  Br  0.72071454220386     -1.96527506070363      0.96990068135617
  H   -0.69734393000887      0.97075778363390     -1.01715454116994
  H   0.82881648261982     -0.89863463382763     -1.26116851734400
  C   1.74424755629721      0.54560198477604      0.08407263709024
  H   1.71642793754997      1.38263079094727     -0.62116400661588
  H   1.59999288869270      0.93311342591676      1.09412307202882
  H   2.73072049136029      0.08400612094020      0.02996749687888
  C   -1.06369149116557      0.74804593233978      1.01935439849732
  N   -1.35455222062565      1.24154181620796      2.04509828351455
  N   -1.71610477311069     -0.80925059201213     -0.78060283255464
  H   -1.81888454322211     -1.56294195033882     -0.11047710847754
  H   -2.61839737159684     -0.36007012179309     -0.88368931043267
