14
Coordinates from ORCA-job run
  C   0.67313660497083      0.20953437681562     -0.40691695429679
  C   -0.83796013121118     -0.09070497028479     -0.33013880010255
  Br  1.30969464264413     -0.23861251653688     -2.19945380043454
  H   -0.98349437132387     -1.14163383430309     -0.60546921798900
  H   0.83219915871952      1.28654623687879     -0.30415077080410
  C   1.47772069385331     -0.56233914996581      0.62292645284470
  H   1.20556441674909     -0.24845621078402      1.63341693976163
  H   2.54404877495188     -0.37703846091721      0.49197314183887
  H   1.30406644828451     -1.63675422141976      0.52244139472380
  C   -1.56676893917946      0.73151944712902     -1.30808659041233
  N   -2.14323224390150      1.43190990961534     -2.05272711457291
  N   -1.44544619855585      0.11530687417501      0.97576637662991
  H   -1.29133747166532      1.05988492157528      1.30734208341574
  H   -1.07819138433609     -0.54016240197751      1.65207685939758
