14
Coordinates from ORCA-job run
  C   0.62521866747848     -0.22835598599226     -0.64199299775215
  C   -0.90694663355480     -0.09478343936930     -0.47343938326234
  Br  1.03586545394003     -2.12049603483526     -0.93418680684906
  H   -1.37627667707381     -0.52534243555496     -1.36442602995945
  H   0.91923362700892      0.26631133618211     -1.57078843613589
  C   1.42614943977331      0.30239429432051      0.53020428878235
  H   2.49497497017853      0.20484889094922      0.33806250977539
  H   1.19939107522248      1.36143834013519      0.68428437431262
  H   1.20005601833556     -0.24843307112305      1.44454046731770
  C   -1.21911648039285      1.34311525465050     -0.46424954869772
  N   -1.41177081582925      2.50120609106008     -0.45338083607587
  N   -1.51360678395724     -0.72038292964391      0.68596766808737
  H   -1.32473064664627     -1.71527098859932      0.67482352928586
  H   -1.14944121448307     -0.32724932217954      1.54458120117117
