14
Coordinates from ORCA-job run
  C   0.73070181269013      0.23604550990062     -0.39812596284375
  C   -0.73528974730787     -0.19211441115706     -0.24447030467187
  Br  1.33402202398356     -0.23581647848540     -2.19442770877089
  H   -0.77695375984872     -1.27981519404679     -0.36477684574665
  H   0.79363399506170      1.32691169589589     -0.35364327393735
  C   1.63042721797446     -0.40940434109175      0.63759242692775
  H   1.59593707862401     -1.49744103635655      0.54592504494852
  H   2.66281965735052     -0.08589258525669      0.49936027222415
  H   1.29205075102289     -0.13234679858582      1.63611422260791
  C   -1.58483939581750      0.41154657293949     -1.29130349190275
  N   -2.31960305737612      0.93394298404377     -2.04479968979796
  N   -1.19151662338478      0.13365090361740      1.10358120634817
  H   -2.06677284531920     -0.33943836419650      1.29467076584882
  H   -1.36561710765307      1.13017154277935      1.17530333876587
