14
Coordinates from ORCA-job run
  C   0.61642801946071     -0.46225826088249     -0.08194761296166
  C   -0.81335983110249      0.07271189230497     -0.28922153309307
  Br  0.71075309344627     -1.46931963020433      1.59006489426328
  H   -0.79625311331967      0.58971012916118     -1.25870324249346
  H   0.80608029084275     -1.20166153255302     -0.86529032399380
  C   1.67145723056920      0.62740148785028     -0.09505429903700
  H   1.52830162161009      1.31785909942506      0.73768561752575
  H   2.67164396030018      0.19906381647127     -0.02112427870299
  H   1.60569574124759      1.19087401541872     -1.03169189666678
  C   -1.12299860536426      1.09150303353770      0.72460372374284
  N   -1.34179499710191      1.92011320387301      1.52642006873621
  N   -1.88944719437139     -0.89958719009518     -0.34157909750739
  H   -1.90868076017200     -1.43739559880262      0.51717445777988
  H   -1.73582545604510     -1.53901446550456     -1.11233647759184
