14
Coordinates from ORCA-job run
  C   0.67097406437686     -0.22110062585794     -0.63213284829589
  C   -0.84088060156769     -0.05039702915623     -0.41257359094441
  Br  1.01737461890263     -2.12126070898920     -0.97867036060448
  H   -1.35294552046719     -0.44026070282920     -1.30548826365596
  H   0.94275245862432      0.27759519597198     -1.56461252102021
  C   1.51820368309843      0.26743101334412      0.52480790577414
  H   2.57706304151392      0.12020132577753      0.30902667891825
  H   1.25888324565630     -0.25964944396793      1.44113636257030
  H   1.34042468722104      1.33595677968519      0.67669402339118
  C   -1.12885644840741      1.38996272278149     -0.34526669108154
  N   -1.35424761300609      2.54126104621991     -0.30099347017319
  N   -1.26061317476549     -0.67691898636396      0.83504722625327
  H   -2.23976832816643     -0.48302831686079      1.00721442455389
  H   -1.15036411301319     -1.68079226975495      0.74681112431469
