14
Coordinates from ORCA-job run
  C   0.57132888002596     -0.49658011167219      0.16530348915741
  C   -0.76676726684687      0.01291975368062     -0.40330175165739
  Br  0.39049244377255     -0.83736719726502      2.08111532742351
  H   -0.59778700845815      0.14290425805650     -1.48129866954188
  H   0.76233802839631     -1.47869271830728     -0.27659656522458
  C   1.72922998518196      0.44940455914590     -0.08940663818578
  H   1.81788428066161      0.64017112859084     -1.16405948067957
  H   1.57419608392076      1.40089731651641      0.42180988253407
  H   2.66690944306874      0.01705656689534      0.26149148255065
  C   -1.07087243139990      1.34527070260361      0.13921503548192
  N   -1.29618522625381      2.40747587649833      0.58456854625913
  N   -1.92755913317282     -0.84466914587745     -0.25206207516707
  H   -1.76314036313883     -1.72853040419296     -0.71932346887591
  H   -2.09106771575751     -1.03126058467265      0.73054488592550
