14
Coordinates from ORCA-job run
  C   0.66488079219026     -0.44843411266397     -0.29262982534323
  C   -0.75607249235523      0.11367632579670     -0.25829581805809
  Br  0.83528321880575     -1.89368827236767      1.01610125447927
  H   -0.78182728848009      0.90273281292680     -1.02089151291511
  H   0.78892931277649     -0.93115702458541     -1.26371350178806
  C   1.72856125984443      0.60158206089592     -0.03886656225278
  H   1.62584406088621      1.03322031836559      0.95829827952437
  H   2.72486760320990      0.16674583101199     -0.12479501655088
  H   1.63685025479565      1.40212996121125     -0.78011577514102
  C   -1.03007360788391      0.76498431283607      1.04108755240738
  N   -1.28900373521260      1.27609684544330      2.06679408846452
  N   -1.72875999854292     -0.89347269810025     -0.64629543289585
  H   -1.77013659824141     -1.61691532751352      0.06268229207096
  H   -2.64934278179251     -0.47650103325679     -0.71836002200145
