17

C	0.0	0.0	0.0
C	-0.400667	-0.236331	-1.471379
F	1.384762	0.0	0.0
H	0.458581	0.056658	-2.079402
C	-0.447195	1.288826	0.534667
N	-0.495852	2.336639	1.06653
C	-0.345388	-1.14021	0.961901
H	0.042105	-0.855762	1.942331
H	-1.424448	-1.252746	0.972059
H	0.184682	-2.039645	0.637495
N	-1.53461	0.552907	-2.047207
O	-1.398128	1.761966	-1.91759
O	-2.325538	-0.010898	-2.785183
N	-0.527506	-1.710058	-1.723981
O	-1.581514	-2.292265	-1.529562
O	0.536649	-2.239974	-2.068578
F	-2.413758	0.0	0.0
