17

C	0.0	0.0	0.0
C	-0.273322	-0.05335	-1.507996
F	1.385723	0.0	0.0
H	0.206764	-0.956244	-1.880024
C	-0.477787	1.184055	0.720811
N	-0.592366	2.114772	1.429486
C	-0.388826	-1.29612	0.698003
H	-1.476567	-1.34127	0.697875
H	0.022727	-1.259801	1.710421
H	0.074693	-2.130356	0.162662
N	0.434736	1.0584	-2.234131
O	0.834744	0.770931	-3.363337
O	0.545543	2.149832	-1.690685
N	-1.661531	-0.081444	-2.089024
O	-2.139749	0.984749	-2.445396
O	-2.080754	-1.201476	-2.348342
F	-2.473364	0.0	0.0
