17

C	0.0	0.0	0.0
C	-0.622985	-0.012673	-1.382037
F	1.376426	0.0	0.0
H	-1.754879	-0.043942	-1.115074
C	-0.442803	1.214362	0.716048
N	-0.659781	2.163908	1.371451
C	-0.443498	-1.232295	0.78178
H	-1.533375	-1.255091	0.747257
H	-0.078268	-1.131898	1.805836
H	0.003624	-2.121844	0.334253
N	-0.136256	-1.202907	-2.134963
O	-0.826332	-2.218742	-2.087405
O	0.942983	-1.100892	-2.719653
N	-0.271745	1.160554	-2.224578
O	0.435514	2.048978	-1.754296
O	-0.751499	1.155682	-3.356694
F	-2.772915	0.0	0.0
