17

C	0.0	0.0	0.0
C	-0.357688	-0.13652	-1.489789
F	1.389164	0.0	0.0
H	0.461097	0.320026	-2.047278
C	-0.445286	1.279127	0.564542
N	-0.512787	2.303976	1.137706
C	-0.357516	-1.16686	0.916522
H	-1.431649	-1.310802	0.870943
H	-0.032688	-0.888783	1.922399
H	0.212393	-2.045316	0.604551
N	-1.581379	0.554306	-2.023442
O	-1.550971	1.769443	-1.891236
O	-2.335794	-0.081834	-2.742064
N	-0.348188	-1.564576	-1.940767
O	0.559898	-1.857283	-2.727008
O	-1.20275	-2.332978	-1.524689
F	-2.433163	0.0	0.0
