17

C	0.0	0.0	0.0
C	-0.627397	-0.010295	-1.380705
F	1.376335	0.0	0.0
H	-1.76338	-0.029271	-1.101064
C	-0.444681	1.213278	0.716974
N	-0.658355	2.160911	1.376921
C	-0.441558	-1.234453	0.778677
H	0.007705	-2.121871	0.328303
H	-0.075106	-1.136959	1.802672
H	-1.531199	-1.261235	0.746465
N	-0.163192	-1.210734	-2.129321
O	-0.880269	-2.208324	-2.095128
O	0.927834	-1.136676	-2.69706
N	-0.263951	1.154488	-2.228041
O	-0.722039	1.138707	-3.369194
O	0.428068	2.051806	-1.751474
F	-2.77425	0.0	0.0
