17

C	0.0	0.0	0.0
C	-0.656707	-0.025753	-1.363718
F	1.38289	0.0	0.0
H	-1.80337	-0.01076	-1.036114
C	-0.41646	1.228719	0.707776
N	-0.595636	2.184165	1.365639
C	-0.436567	-1.215598	0.812077
H	-0.048928	-1.10108	1.826123
H	-1.526096	-1.23739	0.800055
H	-0.005879	-2.115731	0.370068
N	-0.273354	-1.263641	-2.095481
O	-1.018812	-2.234437	-1.981863
O	0.777492	-1.245827	-2.738042
N	-0.28384	1.103866	-2.245911
O	-0.772515	1.079354	-3.374548
O	0.444531	1.993092	-1.80701
F	-2.794416	0.0	0.0
