12
Coordinates from ORCA-job run
  C   -0.55832626858512      0.50852254674762     -0.30725045981912
  C   0.65450638387559     -0.42877301082090     -0.12739799126666
  Cl  -0.27371099880512      2.01877268653258      0.57605604215703
  H   0.41353899174921     -1.36595707519796     -0.64728871647044
  H   -0.61234282509052      0.78301819657730     -1.36785678652309
  N   -1.72270850410723     -0.15451187411600      0.22681666519177
  H   -2.45467369684982      0.51511691711103      0.42549372318636
  H   -2.07786424885675     -0.82677377072194     -0.44398285336343
  C   0.88119761093475     -0.74427824504435      1.28515649852262
  N   1.09001358335159     -1.01356414160895      2.40781434492397
  C   1.85894380815691      0.12929314894746     -0.74874649687693
  N   2.80342616422651      0.58013462159411     -1.27981396966207
