12
Coordinates from ORCA-job run
  C   -0.54076157604845      0.65576225986179     -0.30232679966954
  C   0.87956785771498      0.19550397982018      0.08370780984501
  Cl  -0.97739726200568      1.99798546202739      0.86313973098391
  H   1.51973548646219      1.07804496353798      0.18417743875714
  H   -0.49703905996379      1.13703197558916     -1.27928866475335
  N   -1.42821488899868     -0.43559670961937     -0.33645937855427
  H   -1.58198113948810     -0.84194574771929      0.57856643668324
  H   -2.31583702288881     -0.19640770262295     -0.75604950197224
  C   1.42485890698339     -0.67041478662593     -0.96721852639232
  N   1.86909168421518     -1.32942444628344     -1.83073141955609
  C   0.85414486920434     -0.50911651721030      1.36939286333406
  N   0.79583214481345     -1.08042273075522      2.39309001129444
