12
Coordinates from ORCA-job run
  C   -0.53632034861986      0.50017856943466     -0.35347118399019
  C   0.64552768418942     -0.45493500706762     -0.08283993717256
  Cl  -0.22787269959279      2.05814791260716      0.43325548493797
  H   0.38960820188462     -1.41867046034005     -0.54355391401340
  H   -0.55983421294871      0.70340438982168     -1.43102729576216
  N   -1.73057751902739     -0.09448953258563      0.19536497516428
  H   -2.09332436820245     -0.79495950218735     -0.44180004993778
  H   -2.44548784741878      0.60772795167935      0.33639293841100
  C   0.83192689957997     -0.67913133611467      1.35300934628806
  N   1.00407842801610     -0.87587053556756      2.49666802324121
  C   1.87804412508269      0.02802549610623     -0.71202065206070
  N   2.84423165705719      0.41957205421379     -1.25097773510573
