12
Coordinates from ORCA-job run
  C   -0.55417649523269      0.49140553795955     -0.34113785630073
  C   0.65850107291177     -0.43026156317465     -0.09354783979060
  Cl  -0.29440982347968      2.04218678167318      0.47694862607073
  H   0.43343037792385     -1.39171829214464     -0.57486046831370
  H   -0.58808082048664      0.71654670185672     -1.41414782093421
  N   -1.72614416002779     -0.15218913990282      0.19999962754973
  H   -2.47019747144419      0.52025945463908      0.33560275144694
  H   -2.05536854228771     -0.86685801203200     -0.43969539964887
  C   0.85628945248495     -0.67895620473355      1.33674083896550
  N   1.04111248138160     -0.89355822940452      2.47519042693863
  C   1.87328162919625      0.10535340180739     -0.71453834220600
  N   2.82576229906031      0.53778956345622     -1.24655454377745
