12
Coordinates from ORCA-job run
  C   -0.59108464986458      0.53456644999388      0.18034725693601
  C   0.53754889402010     -0.50786881177914      0.33959554544069
  Cl  -1.38315015570490      0.72583933035026      1.75890502725495
  H   0.07106592427040     -1.42111713297594      0.72559751420850
  H   -0.14616896254639      1.50866441549822     -0.05556312729094
  N   -1.54502356167824      0.02435716407356     -0.77260229823774
  H   -2.40442278264531      0.55750040132415     -0.72430840566617
  H   -1.17249997230644      0.10630882899422     -1.71288092443053
  C   1.57333192823559     -0.05350972832666      1.27071252025590
  N   2.39965407975939      0.31424306638015      2.01865152854998
  C   1.12214766414426     -0.79316983172065     -0.97470532418134
  N   1.53560159431612     -0.99581415181206     -2.05474931283930
