12
Coordinates from ORCA-job run
  C   -0.56132876094224      0.67153233003130     -0.24170965468041
  C   0.87855060673536      0.21036201898141      0.06749967152049
  Cl  -0.95497604124759      2.02751284495989      0.83714294715869
  H   1.54990628813010      1.06714590095084     -0.06071098233830
  H   -0.56199639504380      1.08835477512494     -1.25689875212949
  N   -1.47317332085074     -0.41305523714185     -0.00289493246134
  H   -2.43095256890735     -0.08780293943393     -0.04129996062063
  H   -1.34924267429563     -1.13529150531616     -0.70477080343924
  C   1.25723918524451     -0.83284197310424     -0.89186656855790
  N   1.49724626843029     -1.65728542848953     -1.69274691469220
  C   1.00434794190989     -0.27985345197850      1.44304842266136
  N   1.14437947083719     -0.65677733458417      2.54520752757895
