12
Coordinates from ORCA-job run
  C   -0.46361401017171      0.77324116228854     -0.09985122241315
  C   0.89488247584988      0.07338101502630      0.11344304788599
  Cl  -0.71283236661888      1.92135534963254      1.23374773236666
  H   1.67483265640925      0.84163059311901      0.16427548615812
  H   -0.37998217317130      1.38486299353390     -1.00715173809303
  N   -1.51398793697801     -0.20725724196277     -0.09236573738119
  H   -2.42037061150463      0.24255341628357     -0.06536064148159
  H   -1.46302489282432     -0.78113249077628     -0.92762406156593
  C   1.16557687702287     -0.79437537707735     -1.03845932424624
  N   1.32955167864099     -1.44838925746633     -1.99976496736267
  C   0.91475698112847     -0.69840219953208      1.35938037629224
  N   0.97421132221742     -1.30846796306904      2.35973104984078
