12
Coordinates from ORCA-job run
  C   -0.56129443901682      0.56861512369455     -0.41683313353445
  C   0.87340358841550      0.23244177255832      0.03812489455089
  Cl  -1.03494996525895      2.09636591874809      0.47173213501165
  H   1.48714646242925      1.13596186054060     -0.03819555823738
  H   -0.53506611651340      0.85268769212538     -1.46880455871397
  N   -1.41542819922989     -0.53477640043403     -0.23207846831809
  H   -1.55559961014230     -0.75899529427715      0.74583018432324
  H   -2.31072517514746     -0.40661372023949     -0.68297514967168
  C   1.44204662287633     -0.80110666209425     -0.83369253482621
  N   1.90600268916782     -1.59116639196786     -1.56717650287760
  C   0.87221649063217     -0.21311498455862      1.43496108599308
  N   0.83224765178779     -0.58029891409552      2.54910760630051
