12
Coordinates from ORCA-job run
  C   -0.57446042130991      0.68543707040996      0.06902956676142
  C   0.47248310049182     -0.42117592131836      0.41151786658055
  Cl  -1.32122112718375      1.16505759183326      1.61586787818305
  H   -0.05657162958030     -1.22510530260869      0.93778673391507
  H   -0.04191715689224      1.55632618983274     -0.31763500584546
  N   -1.58092786221291      0.30102574322595     -0.86191629809331
  H   -2.06210554593234     -0.54602741387837     -0.58854838866621
  H   -1.21197951198665      0.21343874443004     -1.79985032686527
  C   1.54317610808619      0.07870028065790      1.27643411933218
  N   2.39525906655952      0.50180989327719      1.96429128109617
  C   1.02587982208403     -0.95473317490198     -0.83631409510820
  N   1.41338515787653     -1.35575370095964     -1.86966333129000
