12
Coordinates from ORCA-job run
  C   -0.48515466406479      0.70414462869170     -0.28708929390236
  C   0.89332037455313      0.12239117850354      0.08622285499239
  Cl  -0.81075670798245      2.05260050357356      0.90704092928064
  H   1.60245441345807      0.94808313064183      0.20486805003938
  H   -0.40325386968445      1.20049463981133     -1.25402640927729
  N   -1.45844587286655     -0.31060114672504     -0.34190670907924
  H   -1.64404135052070     -0.72225925920301      0.56485260608755
  H   -2.32386557072011      0.00886765655711     -0.75439166181405
  C   1.36711495487394     -0.76155179212719     -0.98424936680794
  N   1.75109605215970     -1.43906768014857     -1.86230637563869
  C   0.81010983204734     -0.60664203465855      1.35583888985708
  N   0.70042240874689     -1.19745982491669      2.36414648626251
