12
Coordinates from ORCA-job run
  C   -0.57136009988504      0.44426083492077     -0.52964084503084
  C   0.65381456625795      0.08315331071012      0.36836317606176
  Cl  -0.62124351441186      2.22508512664966     -0.61663764014058
  H   0.51868948225118      0.59042886416817      1.33145231904456
  H   -0.37932015965234      0.07602860791386     -1.53912785805974
  N   -1.82410783738096     -0.05932713953863     -0.07810197585046
  H   -2.02251395571855      0.19083295740300      0.88197941331439
  H   -1.89591448236661     -1.06013213352648     -0.20727674429096
  C   1.91990837249550      0.52553929112508     -0.21965831103874
  N   2.92451087020886      0.87906410022470     -0.71367316801707
  C   0.66977882257327     -1.36541945186796      0.59027095088034
  N   0.62675793562861     -2.53051436818228      0.73005068312737
