12
Coordinates from ORCA-job run
  C   -0.54483264811447      0.32928656051489     -0.51119379808039
  C   0.71244891088039      0.14625431460914      0.36725482730157
  Cl  -0.61476913714140      2.03106218602531     -1.01569063085641
  H   0.62543849427400      0.86023308677853      1.19378658797321
  H   -0.42578238961774     -0.25536295333783     -1.43118572883334
  N   -1.70315261680791      0.02205751857983      0.29088210660841
  H   -1.78533263273502     -0.98257481071775      0.40815526207112
  H   -2.54174075859822      0.35681305611387     -0.16736772535122
  C   1.94447013860316      0.40730589991802     -0.38123794613963
  N   2.92509530582119      0.61540026779305     -0.99158275193167
  C   0.72684885585920     -1.21495414396714      0.91276712569777
  N   0.68030847757682     -2.31352098230991      1.32441267154057
