12
Coordinates from ORCA-job run
  C   -0.58444820523613      0.62349704336970     -0.30239623687260
  C   0.87388697086812      0.24172914944771      0.02865509489732
  Cl  -1.00627670736442      2.07390201033561      0.63278062862606
  H   1.51667541270740      1.09802777104743     -0.20526674785259
  H   -0.61304804494723      0.92860230245750     -1.35614938529361
  N   -1.45731099914880     -0.45753636143290      0.06609855538148
  H   -2.42470867576662     -0.16209387127697      0.02839899007307
  H   -1.33362978345305     -1.23864026000914     -0.56963758262168
  C   1.26839325587601     -0.88891610878551     -0.81908570378446
  N   1.52076085672813     -1.78663310344690     -1.53259144041408
  C   1.03513527475021     -0.09261151590309      1.44640466548294
  N   1.20457064498639     -0.33932705580343      2.58078916237813
