12
Coordinates from ORCA-job run
  C   -0.56470881770160      0.34014958127446     -0.46893809034816
  C   0.71318146172868     -0.03875415223714      0.30870648922537
  Cl  -0.43607479832587      2.12178919117139     -0.83548073633226
  H   0.73779175728766      0.56325506092051      1.22610360393306
  H   -0.56240751155184     -0.15547538898187     -1.43965963133498
  N   -1.70679061662524     -0.03868665727542      0.26880772592664
  H   -1.81664258498601      0.50996558127008      1.11267396075109
  H   -2.55183811178841      0.02503816294578     -0.28230593630424
  C   1.92641773439575      0.25399931815419     -0.46049963026635
  N   2.90037800013579      0.47256751045534     -1.07779401284958
  C   0.68346239475547     -1.45916935880154      0.67528184338213
  N   0.67723109267560     -2.59467884889579      0.97210441421728
