12
Coordinates from ORCA-job run
  C   -0.56482656333405      0.44278002971350     -0.53747568226133
  C   0.66572909471309      0.07306538213489      0.35012215258176
  Cl  -0.56088767229218      2.22031849532405     -0.68343466391157
  H   0.56460355797777      0.61452171305626      1.29863445107103
  H   -0.40351635182314      0.03522065345289     -1.53719163388524
  N   -1.82414098238610     -0.00516462390912     -0.04701603695359
  H   -1.92808306021382     -1.00734996148986     -0.13840139852809
  H   -1.99670923559407      0.28440968693291      0.90699925007950
  C   1.93276108319534      0.45678423129812     -0.27562735318895
  N   2.93724688255222      0.76790630774763     -0.79758512921364
  C   0.63976774365533     -1.36684687474220      0.62270109299653
  N   0.53805550354959     -2.51664503951907      0.83827495121359
