12
Coordinates from ORCA-job run
  C   -0.54396645351713      0.49417983979870     -0.35325457466244
  C   0.64479419295664     -0.45283132634994     -0.08561770646033
  Cl  -0.23026989519700      2.06552740328729      0.40443355104466
  H   0.38601220635140     -1.42412620852582     -0.52850128062705
  H   -0.58440298862822      0.68104314829614     -1.43337527496683
  N   -1.72717263037299     -0.09511051279609      0.22413118004837
  H   -2.08365072565667     -0.82375545895369     -0.38449648977764
  H   -2.45051773757016      0.60276858289993      0.34207303188645
  C   0.85340444070501     -0.65467240188193      1.35040807135250
  N   1.04331287022853     -0.83335006127851      2.49442366868790
  C   1.86648933154194      0.02473422800716     -0.73947106459908
  N   2.82596738915864      0.41559276749676     -1.29075311192655
