12
Coordinates from ORCA-job run
  C   -0.53826747511094      0.49196247699184     -0.36704774507079
  C   0.75818718478533     -0.02011815155674      0.29854105235176
  Cl  -0.41162921963872      2.25708029325438     -0.52131058006534
  H   0.85469904452105      0.51285244271174      1.25102592077113
  H   -0.59247899693745      0.10115073993094     -1.39013678289017
  N   -1.64644591984716      0.16750131631540      0.49658481106376
  H   -1.85793797118497     -0.82273851865184      0.42954420901746
  H   -2.46923224228517      0.68655617599829      0.21566119514810
  C   1.93695288583389      0.23866599188266     -0.53220019908020
  N   2.87216735889940      0.44355061806599     -1.21099384800190
  C   0.63010137727603     -1.45597847513706      0.56706486236717
  N   0.46588397368870     -2.60148490980558      0.76526710438901
