12
Coordinates from ORCA-job run
  C   -0.56592845324792      0.42563961972442     -0.45700768963417
  C   0.68270115125112     -0.42713278781212     -0.15763652727970
  Cl  -0.33568243545128      2.05861017352866      0.30729622129142
  H   0.53700360884920     -1.37583545631442     -0.68843195737835
  H   -0.60214662526882      0.61370009108359     -1.53053079904152
  N   -1.72367952994272     -0.27885056998742     -0.04798068775112
  H   -2.56572498542796      0.17284804815150     -0.37973656459867
  H   -1.77470509433202     -0.36341351668698      0.96109895339133
  C   0.76824723347852     -0.72376861403308      1.27536311693476
  N   0.76895245831242     -0.99056052163706      2.41841231921758
  C   1.91294015770600      0.19829173055666     -0.64699764533922
  N   2.89702251407348      0.69147180342624     -1.05384873981234
