12
Coordinates from ORCA-job run
  C   -0.61071879849992      0.49371346098541      0.22091377458245
  C   0.55884765406950     -0.51260214026460      0.30006112110410
  Cl  -1.40245210350932      0.53581304348676      1.81030224335355
  H   0.12988228741242     -1.46871242019820      0.61990252189694
  H   -0.20541574080458      1.49929334348776      0.05701982745299
  N   -1.54792586857610      0.01783982891546     -0.76606921331245
  H   -1.18424829459719      0.18765075512674     -1.69804544701102
  H   -2.42825462225362      0.50980211242010     -0.67536140489961
  C   1.58062502788570     -0.08634669212966      1.25980534562675
  N   2.39288924225407      0.27121453399836      2.02758386954545
  C   1.14760899752170     -0.67529368707243     -1.03284695981827
  N   1.56916221909733     -0.77137213875571     -2.12426567852085
