12
Coordinates from ORCA-job run
  C   -0.51346029711575      0.66239604367069     -0.33825701141701
  C   0.88477155840050      0.16254022461801      0.07711763261120
  Cl  -0.89262621499577      2.08201201299639      0.75344355177974
  H   1.56261019383678      1.02058326854135      0.13343534756651
  H   -0.44851614872624      1.08862838293080     -1.33930622958439
  N   -1.44720111045543     -0.38998385704879     -0.31721009705852
  H   -1.61904460812431     -0.74079939399539      0.61739132144027
  H   -2.32327641269809     -0.13590749688536     -0.75202613346380
  C   1.39367501353658     -0.78061727542173     -0.92403440946543
  N   1.80551451331714     -1.49982664312526     -1.75499382977345
  C   0.82834632249781     -0.47049336258966      1.39868146461164
  N   0.76920719052677     -0.99753190369104      2.44575839275323
