12
Coordinates from ORCA-job run
  C   -0.55947579804791      0.42644868348484     -0.46339734908331
  C   0.65997921595700     -0.46315048303339     -0.15073566217483
  Cl  -0.24339402415501      2.08307245026913      0.21398424358966
  H   0.46439041323418     -1.42754592110592     -0.63516291457160
  H   -0.61454465580248      0.56349952398868     -1.54382601232738
  N   -1.73479086861702     -0.20802517456367      0.00578324450923
  H   -1.76604000915227     -0.23901541015673      1.01870633061460
  H   -2.56551018830355      0.26018754512519     -0.33153297952152
  C   0.76536693469177     -0.69622808516731      1.29257574735861
  N   0.79358600424585     -0.88955171657293      2.44992326030036
  C   1.90379121821306      0.08604111350773     -0.69416972763548
  N   2.89664175773640      0.50126747422437     -1.16214818105832
