12
Coordinates from ORCA-job run
  C   -0.60524722414654      0.65093838351509     -0.41850159363988
  C   0.84435671401505      0.28248707237472      0.03413016203648
  Cl  -1.02713620347711      2.16686066199929      0.42477611532823
  H   1.50237152319844      1.14342049347637     -0.12673437940852
  H   -0.56234741793065      0.87845201979625     -1.48547211422060
  N   -1.60168564037690     -0.33557000653042     -0.19060687391696
  H   -1.50531136314742     -1.12404179503537     -0.81658700095033
  H   -1.63829724144714     -0.63930259785548      0.77422113335389
  C   1.30911324964318     -0.84573462667692     -0.77757370574970
  N   1.60974602039306     -1.74927178918496     -1.46466215785162
  C   0.85765299539318     -0.07086809930605      1.45482249573067
  N   0.81578458788286     -0.35836971657250      2.59218791928833
