12
Coordinates from ORCA-job run
  C   -0.50579113511862      0.77026877363066     -0.33957165772159
  C   0.87928712259503      0.12844374838077     -0.00914794642823
  Cl  -0.59964032303873      2.28174208037233      0.60591591712521
  H   1.66948603227413      0.86810532918055     -0.17865222260013
  H   -0.48849000353793      1.05271895726778     -1.39404484451479
  N   -1.64620475333951     -0.03997490364028     -0.09149100384026
  H   -1.67765640671801     -0.39189574272913      0.85703623866483
  H   -1.72918932212605     -0.79330756387410     -0.76119970893430
  C   1.08732129986779     -1.01232299307325     -0.90588391793919
  N   1.20070280047257     -1.88927915551834     -1.67842697001235
  C   0.91757577968237     -0.30583403764396      1.38834728697551
  N   0.89359890898696     -0.66666449235301      2.50511882922531
