12
Coordinates from ORCA-job run
  C   -0.55346720781667      0.55659820759069     -0.44618049839465
  C   0.88656236745947      0.17813575817274     -0.04465240600141
  Cl  -0.87215581753707      2.20307017216166      0.28805817267131
  H   1.54571545879108      1.02481410051702     -0.26249748152834
  H   -0.58288450873608      0.72068535538659     -1.52331168617092
  N   -1.45724485168218     -0.45869344834032     -0.08326551429109
  H   -1.54068407129155     -0.56651175536666      0.92048869618901
  H   -2.37291085473357     -0.32173468707350     -0.48817052719468
  C   1.33135466900310     -0.98325259494659     -0.82237737735334
  N   1.69164060694537     -1.89225475608021     -1.47165861787602
  C   0.95521250919429     -0.10801574684301      1.39180203320525
  N   0.96986170040380     -0.35284060517840      2.53976520674495
