12
Coordinates from ORCA-job run
  C   -0.69100640831989      0.06327536760745     -0.58348715684269
  C   0.72714681529417     -0.46563507295065     -0.28145070813871
  Cl  -0.61420426084377      1.05176959263492     -2.05796358918631
  H   1.07726201946639     -1.03000211480818     -1.15326715744419
  H   -1.31680942984488     -0.80189018477235     -0.83693943527903
  N   -1.14486706631161      0.87176438995961      0.51444907618210
  H   -1.99378596673783      1.36414898377528      0.26657541910291
  H   -1.33401197622366      0.28903219219982      1.32327359095415
  C   0.65705622794458     -1.37248128272420      0.86978835050101
  N   0.52877975691274     -2.08898621384569      1.79114281518225
  C   1.66680043037503      0.62870418420089     -0.02196890302388
  N   2.43963985828873      1.49030015872308      0.16984769799241
