12
Coordinates from ORCA-job run
  C   -0.55524335273358      0.42414291409009     -0.46909759292173
  C   0.66835104211740     -0.45341453925152     -0.13971542316934
  Cl  -0.27346760651503      2.07763643756456      0.23102150525967
  H   0.49308764345023     -1.41712608065221     -0.63318939513898
  H   -0.58970906653631      0.57173197645077     -1.54898203485228
  N   -1.73214197022851     -0.22922573711949     -0.03078657057661
  H   -1.78293383738556     -0.27297933545925      0.98087955187412
  H   -2.56140474144852      0.23396524116518     -0.37866630770635
  C   0.75094673439524     -0.69404465415219      1.30381322673862
  N   0.76086602005633     -0.89549387775399      2.46013626981145
  C   1.91452714283498      0.11332810596668     -0.65931814497905
  N   2.90612199199332      0.54347954915137     -1.11609508433950
