12
Coordinates from ORCA-job run
  C   1.24173544738304      0.50125536131035      0.06779461502106
  C   -0.11960054229008     -0.04159106280469      0.40131275946942
  H   1.31521949477509      1.52556667866970      0.43821364442470
  H   -0.35300368720356     -0.06733962248274      1.46406448679326
  H   1.39568886196260      0.48536843490070     -1.01009090196116
  H   2.01204975805570     -0.10505249976275      0.54312269023305
  N   -0.34095371472626     -1.44193097328760     -0.10957513440802
  O   -1.42707515726917     -1.93092347080770      0.18412382552178
  O   0.55305890436363     -1.97237708188109     -0.75825095846270
  N   -1.18187222276661      0.79924741178319     -0.24749536201782
  O   -1.32343630292909      0.65981055576290     -1.45691070763498
  O   -1.77181083935529      1.58796626859975      0.48269104302138
