12
Coordinates from ORCA-job run
  C   1.25478498003465      0.48259356757877      0.12712470376393
  C   -0.13747061031450     -0.00472901352823      0.39872136067028
  H   1.35472737999464      1.51266599543567      0.47344245043434
  H   -0.44401209345257      0.00095692002893      1.44109716763201
  H   1.97052812719995     -0.14106906303481      0.66552387022809
  H   1.46181736477160      0.43630070658777     -0.93903571197766
  N   -0.33777656337625     -1.41964295990930     -0.08464295220688
  O   -1.02056471389425     -2.14443581339724      0.63474375146851
  O   0.17751195201256     -1.72026779588590     -1.15625511504487
  N   -1.17020486582184      0.80868964571678     -0.34167640444522
  O   -0.88235349072436      1.17900422672124     -1.47485246096432
  O   -2.22498746642965      1.01093358368631      0.25480934044180
