12
Coordinates from ORCA-job run
  C   1.26716603210184      0.43203790232963      0.05212523159409
  C   -0.14306729871307      0.03858511530802      0.39376979791859
  H   1.44013826267984      1.47279097427075      0.32444089911830
  H   -0.39805246016934      0.12776138390783      1.44797936523184
  H   1.95684889997672     -0.20239002660085      0.61195816000964
  H   1.43937399386388      0.31503615187872     -1.01679291885820
  N   -0.37827538010753     -1.39799440688554      0.01989970188177
  O   -0.58000536925252     -1.63089161140272     -1.16614836752417
  O   -0.28625998204285     -2.21280922695130      0.93123919223502
  N   -1.17919780704897      0.83270915578994     -0.35648052551399
  O   -2.33942437989416      0.60187208444689     -0.03071403838334
  O   -0.79924451139383      1.62329250390863     -1.21227649770955
