12
Coordinates from ORCA-job run
  C   1.22834397439683      0.53530952585666      0.04567935159580
  C   -0.10548933388885     -0.05800928677861      0.40342613829952
  H   1.28456864489406      1.54870730671391      0.44781152312523
  H   -0.30385863618156     -0.12457448322386      1.47149496640767
  H   2.03040649025637     -0.06312354918759      0.47647793847309
  H   1.34849756845158      0.55895950882486     -1.03632304402127
  N   -0.30299019410371     -1.44728945054399     -0.14614988367195
  O   -1.36265335142839     -1.97930174759351      0.16866779130360
  O   0.58254446150436     -1.92786697625978     -0.84352043545685
  N   -1.21154466995238      0.77154741588896     -0.18395373522999
  O   -1.79631125888076      1.52257838896373      0.58885325045672
  O   -1.39151369506757      0.66306334733922     -1.39146386128157
