18

C	0.021166	-0.03132	0.030325
C	-0.469369	-0.252474	-1.434354
F	1.428237	-0.084529	-0.005408
H	-1.457471	-0.705601	-1.373306
C	-0.370407	1.326154	0.562195
H	-1.450987	1.455957	0.48825
H	-0.051627	1.375116	1.604851
H	0.132737	2.114442	0.001257
N	-0.422976	-1.053536	0.936437
H	-1.421916	-0.910746	1.067784
H	-0.307566	-1.956398	0.486771
N	0.449494	-1.298313	-2.021356
O	0.286865	-2.457231	-1.627081
O	1.326655	-0.943782	-2.798941
N	-0.553103	0.859538	-2.320486
H	0.201654	1.516548	-2.18087
H	-1.4511	1.300636	-2.149953
Cl	-3.588156	0.431574	-0.566612
