18

C	-0.035833	0.006398	-0.034246
C	-0.243199	-0.387407	-1.525582
F	1.363458	0.076894	0.115096
H	0.615459	-0.990594	-1.836387
C	-0.599995	1.364943	0.317007
H	-0.071247	2.147189	-0.228371
H	-1.669645	1.403902	0.107684
H	-0.44846	1.515175	1.386895
N	-0.531066	-0.978671	0.866099
H	-0.46016	-1.90119	0.453595
H	-1.52359	-0.808992	1.037088
N	-0.059702	0.88116	-2.376939
O	-1.065022	1.448437	-2.79831
O	1.096929	1.255724	-2.5699
N	-1.46968	-1.049358	-1.733127
H	-2.246502	-0.677971	-1.182647
H	-1.727274	-1.084138	-2.708822
Cl	-3.835544	-0.275053	0.486971
