18

C	0.01595	-0.07078	0.039279
C	-0.446222	-0.175026	-1.44701
F	1.415619	-0.229238	0.035469
H	-1.469349	-0.547339	-1.436725
C	-0.288258	1.2825	0.63523
H	0.000324	1.25116	1.687359
H	-1.352729	1.500594	0.538459
H	0.291334	2.057892	0.133219
N	-0.529237	-1.102702	0.876442
H	-1.517023	-0.88979	0.995065
H	-0.472025	-1.986616	0.380472
N	0.402419	-1.261616	-2.065503
O	1.328659	-0.941228	-2.799667
O	0.134381	-2.42208	-1.738777
N	-0.411834	0.984521	-2.273332
H	0.387766	1.569911	-2.07639
H	-1.277206	1.487499	-2.104812
Cl	-3.526556	0.730973	-0.643443
