12

C	0.0	0.0	0.0
C	-0.626492	0.02858	-1.363422
Cl	1.76013	0.0	0.0
H	-1.763677	0.037016	-1.01186
H	-0.367048	0.807322	0.630217
H	-0.391357	-0.880728	-1.918033
N	-0.401416	-1.268443	0.726316
O	-0.48345	-1.19044	1.946452
O	-0.510219	-2.291698	0.060704
C	-0.249442	1.209871	-2.099823
N	0.022985	2.183329	-2.703626
H	-2.838067	0.0	0.0
