12

C	0.0	0.0	0.0
C	-0.485325	-0.027294	-1.440254
Cl	1.765809	0.0	0.0
H	-1.576676	0.103656	-1.394312
H	-0.362829	0.923056	0.478352
H	-0.036506	0.812119	-1.979465
N	-0.615711	-1.073293	0.793486
O	-0.407201	-1.001549	2.027025
O	-1.754672	-1.409606	0.255694
C	-0.151394	-1.264095	-2.137622
N	0.123458	-2.216747	-2.767198
H	-2.799723	0.0	0.0
