12

C	0.0	0.0	0.0
C	-0.460957	-0.046129	-1.446156
Cl	1.756077	0.0	0.0
H	-1.568802	-0.141322	-1.332744
H	-0.403909	0.843303	0.549489
H	-0.004952	-0.902941	-1.946227
N	-0.437088	-1.231633	0.746376
O	-0.513551	-2.27738	0.107086
O	-0.502424	-1.127198	1.966926
C	-0.110879	1.185126	-2.134475
N	0.144338	2.184135	-2.698632
H	-2.660183	0.0	0.0
