12

C	0.0	0.0	0.0
C	-0.648323	0.131783	-1.344738
Cl	1.750955	0.0	0.0
H	-1.816244	0.117279	-0.936564
H	-0.358522	0.757588	0.692893
H	-0.446474	-0.743497	-1.961757
N	-0.404636	-1.315459	0.639499
O	-0.532603	-2.284175	-0.096979
O	-0.487897	-1.319658	1.857821
C	-0.273794	1.350553	-2.008637
N	-0.003706	2.359572	-2.556754
H	-2.831375	0.0	0.0
