14

C	-0.228791	-0.118536	0.033237
C	-0.639861	-0.534053	-1.37903
Cl	1.274182	0.878233	0.024985
H	-1.493863	-1.209075	-1.204026
H	-1.082969	0.529091	0.377858
C	-0.009039	-1.275735	0.88417
N	0.130954	-2.204819	1.590208
N	0.40404	-1.317962	-2.027564
H	1.118756	-0.65309	-2.308131
H	0.021577	-1.704703	-2.884228
N	-1.016271	0.668631	-2.100948
H	-1.689132	1.14003	-1.456219
H	-1.531067	0.379193	-2.927558
F	-2.490166	1.286318	0.008423
