14

C	-0.195386	-0.098172	0.121458
C	-0.51731	-0.722861	-1.242531
Cl	1.190626	1.043344	0.048954
H	0.353734	-1.280657	-1.609573
H	-1.114093	0.464633	0.367836
C	0.111174	-1.108127	1.126735
N	0.405402	-1.883517	1.958786
N	-0.823431	0.367428	-2.157635
H	-1.683536	0.764002	-1.74367
H	-1.0678	-0.044934	-3.052572
N	-1.607624	-1.650421	-0.941578
H	-2.373797	-1.005005	-0.682722
H	-1.866168	-2.11969	-1.804004
F	-2.817192	0.695801	-0.358084
