14

C	-0.196164	-0.129685	0.085157
C	-0.516888	-0.334171	-1.401195
Cl	1.191432	0.981377	0.34805
H	0.352914	-0.7676	-1.911613
H	-1.113954	0.340342	0.482761
C	0.106854	-1.388307	0.755486
N	0.400398	-2.371626	1.327366
N	-0.814458	0.974513	-1.965897
H	-1.06831	0.834971	-2.939
H	-1.669109	1.244484	-1.451017
N	-1.612298	-1.302946	-1.380685
H	-2.379062	-0.752831	-0.956841
H	-1.864179	-1.513831	-2.341259
F	-2.812619	0.78206	-0.150431
