16

C	-0.333987	0.003223	-1.49226
C	-0.007478	-0.155743	0.012073
Cl	-2.124638	0.144663	-1.701007
H	1.052429	-0.435087	0.037031
N	0.293896	1.197551	-1.997969
H	1.257051	1.190489	-1.604893
H	-0.156419	1.957484	-1.490686
C	0.113632	-1.138087	-2.302731
N	0.483245	-2.007548	-3.000348
N	-0.779098	-1.272259	0.638234
O	-0.794297	-2.339502	0.027807
O	-1.325242	-1.084354	1.726296
N	-0.198983	1.093667	0.676724
H	-0.56488	0.917449	1.60453
H	0.77191	1.459838	0.734866
H	2.38397	1.14875	-0.042398
