14
Coordinates from ORCA-job run
  C   0.64363299053957     -0.57713637327999      0.09193761757305
  C   -0.82382531237710     -0.11708539074407     -0.00132632096321
  Br  0.78827168952640     -2.50264417216022      0.03638712660574
  H   -1.33547408602792     -0.57153204474617      0.85117531532062
  C   1.44390570826400      0.02292207861307     -0.96088166994080
  N   2.01598239043087      0.52136543369294     -1.85958096653356
  N   1.15736624368984     -0.10538376313780      1.46358507630336
  O   0.43858514667968     -0.37700315557348      2.41141655592604
  O   2.23059480835945      0.47545465946279      1.48085063513061
  C   -1.42920770289510     -0.60801796773247     -1.24854159886476
  N   -1.93466978186445     -0.92369448866485     -2.26134925112296
  N   -0.82285031944830      1.32199228767199      0.15493545170049
  H   -0.68654231572625      1.79512429225763     -0.73045955407963
  H   -1.68576945915069      1.64463860434063      0.57185158294501
