14
Coordinates from ORCA-job run
  C   0.63458585087001     -0.58995676563615      0.08001191884236
  C   -0.82325618142525     -0.10897326791582     -0.05059001898359
  Br  0.76928074893857     -2.50737527392659     -0.10890829432419
  H   -1.37962284169159     -0.61901163796489      0.74022569410707
  C   1.49016069388976      0.07786903118882     -0.88466726987926
  N   2.10977597782974      0.63670102236963     -1.71371597599733
  N   1.08240859398319     -0.22377421297147      1.50674214215180
  O   2.15678902995884      0.34396841624871      1.61896698433418
  O   0.31491831718729     -0.55521739066687      2.39541986196632
  C   -1.37031536302550     -0.50083663019642     -1.35834041570329
  N   -1.82899531326587     -0.73584316312232     -2.41445903508925
  N   -0.81990330545361      1.31482359679122      0.21039136190671
  H   -0.63793676570736      1.85021921821416     -0.63008733005881
  H   -1.69888944208821      1.61540705758803      0.61001037672728
