14
Coordinates from ORCA-job run
  C   0.51016855606644     -0.40409798106407      0.47409150278745
  C   -0.51488486138529      0.23221464831068     -0.49338630338641
  Br  -0.27205787424349     -0.74238983964286      2.19622487029955
  H   0.02856590950381      0.38323389817648     -1.43162394625959
  C   1.03483858187986     -1.63730962809854     -0.08822962882274
  N   1.47589729352835     -2.62775222967494     -0.54322158333485
  N   1.68892835360235      0.60054910958822      0.58396193439132
  O   1.92987636732089      1.12509812916563      1.65458373247861
  O   2.25105855065317      0.78398039157518     -0.48905859592634
  C   -0.91793839438904      1.55542520236704      0.01944604193513
  N   -1.29443629375186      2.59928020915650      0.40695888559504
  N   -1.59017254405404     -0.70018231045786     -0.72879336859550
  H   -2.25977169423952     -0.68864983504567      0.03046827577302
  H   -2.06907195049163     -0.48039976435580     -1.59242181693471
