14
Coordinates from ORCA-job run
  C   0.59122351181534     -0.63470266315306      0.06240397299778
  C   -0.82829810385235     -0.04817733544941     -0.05801977878287
  Br  0.59264719302859     -2.54890539791791     -0.19577738564981
  H   -1.42516145143725     -0.54564540454579      0.71097797162424
  C   1.49853884581149      0.00509837938992     -0.87363134080284
  N   2.16122755423753      0.54607707533526     -1.68082596825997
  N   1.05316169686084     -0.35307232910936      1.50318826603848
  O   0.25848830133936     -0.66304372700691      2.37565687441407
  O   2.16375927452129      0.13363563999947      1.64142134118352
  C   -1.39163311435994     -0.35439273922770     -1.38178429588322
  N   -1.85847460736568     -0.51906397801850     -2.44757778523706
  N   -0.72723461298211      1.36161830287643      0.25370605049774
  H   -1.58660790172634      1.70977696097724      0.65709624458569
  H   -0.49963658589077      1.91179721585034     -0.56583416672573
