14
Coordinates from ORCA-job run
  C   0.59804660801314     -0.62896118809842      0.06516757663943
  C   -0.82961328718977     -0.05511935275776     -0.01554918660691
  Br  0.59996339504387     -2.55373134552111     -0.09494475075841
  H   -1.38512922801667     -0.51562553413786      0.80569198297440
  C   1.45443736986338     -0.03385759694887     -0.94538875086380
  N   2.07308492758200      0.46865299622872     -1.81032543153608
  N   1.12706362327085     -0.27118499927512      1.46555104710444
  O   2.23911752390043      0.22791502728782      1.52434447683482
  O   0.37747744049683     -0.53915498285068      2.39020634492880
  C   -1.45489285505667     -0.43003076937379     -1.29289190455222
  N   -1.97444440034017     -0.64946209010314     -2.32388350320770
  N   -0.72273765691975      1.36891057680250      0.21992094041953
  H   -0.54011082127696      1.87865409771606     -0.63620202252170
  H   -1.56326263937053      1.73299516103166      0.64830318114541
