14
Coordinates from ORCA-job run
  C   0.54604989812338     -0.43716756096547      0.39902136853623
  C   -0.54183621206617      0.26922139192768     -0.44307362645159
  Br  -0.16489199328482     -1.07477450193149      2.06591581101807
  H   -0.03493882602057      0.58955535318729     -1.35897033505062
  C   1.12762283907313     -1.53694396388501     -0.35226608679831
  N   1.61346437926172     -2.41814341698655     -0.96058073310431
  N   1.66609294959182      0.61284653440877      0.63492614990098
  O   1.90803156231391      0.98518334240748      1.76732453211152
  O   2.18353662557062      0.99004933129579     -0.40952587904921
  C   -1.00740983674928      1.47527207998831      0.26722073097046
  N   -1.43284974451096      2.42582031837926      0.81244526852112
  N   -1.56661513691621     -0.68409476218304     -0.79319412429648
  H   -2.08443092168205     -0.36810114030709     -1.60292113970350
  H   -2.21182558270451     -0.82772300533591     -0.02632193660437
