14
Coordinates from ORCA-job run
  C   0.63754137576295     -0.57892858740913      0.12195243141202
  C   -0.82277319065124     -0.11592325050260     -0.04245433583192
  Br  0.78163002108687     -2.50428055337751      0.06863166113411
  H   -1.37793732691460     -0.57291031542554      0.78102159655082
  C   1.48955166286066      0.02287944311035     -0.88825746042280
  N   2.10485793472835      0.52106886551800     -1.75811907155555
  N   1.08385481756080     -0.11140827935529      1.51866007283404
  O   2.15822263057414      0.46299993682812      1.59081125553701
  O   0.31643590218493     -0.37974730206133      2.42852332356907
  C   -1.36512160484284     -0.60042611056129     -1.32091505831665
  N   -1.81923049562250     -0.91083722410759     -2.35934514169434
  N   -0.82728735714081      1.32281112636610      0.11851921592238
  H   -1.70706163842765      1.64460997719042      0.49930045177569
  H   -0.65268273115907      1.79909227378729     -0.75832894091387
