14
Coordinates from ORCA-job run
  C   0.70356962037777     -0.49915898194610      0.11639671467379
  C   -0.80444570231384     -0.21213546992636     -0.01504421158238
  Br  1.06887855219921     -2.39562443096650      0.10447358572452
  H   -1.27941215511591     -0.70693802086303      0.83618044984011
  C   1.45258400113471      0.16960308419928     -0.93261463333725
  N   1.98296627463457      0.71642187950160     -1.82879418696053
  N   1.12940288753137      0.05487860760246      1.48782907152106
  O   2.12834120985911      0.75544876999439      1.51385241966524
  O   0.42534496542403     -0.27923378824894      2.42664909753042
  C   -1.32310666642097     -0.79006329814808     -1.26407013177009
  N   -1.76947564665436     -1.17331367337513     -2.28133644481231
  N   -0.97106970987900      1.22024342216952      0.11134688067369
  H   -0.87017311490829      1.68984835903887     -0.78052980481484
  H   -1.87340451586840      1.45002354096803      0.50566119364856
