14
Coordinates from ORCA-job run
  C   0.58339314957653     -0.44628002982807      0.33047704335202
  C   -0.56972048630048      0.28635043525114     -0.39435720729416
  Br  -0.03857099360468     -1.32226190946226      1.92323214480927
  H   -0.11125781719787      0.74783592209444     -1.27491012022487
  C   1.20602697987028     -1.41038439619336     -0.56114207189374
  N   1.72414503691840     -2.18121601544207     -1.28214261271199
  N   1.64537341936401      0.63594655981602      0.66685442181596
  O   1.89519679428301      0.88714818830870      1.83037943927292
  O   2.11105683872051      1.16418578976147     -0.33559060088547
  C   -1.08584816186256      1.36484184834101      0.47003685789731
  N   -1.55278614106485      2.21318249717510      1.13628831704955
  N   -1.54519005601029     -0.68041277769422     -0.83586923253031
  H   -2.16096635997109     -0.95313941028239     -0.08002463941604
  H   -2.10085220272093     -0.30479670184552     -1.59323173924046
