14
Coordinates from ORCA-job run
  C   0.57958759695340     -0.39568550294953      0.39542001392299
  C   -0.58259635432207      0.22291483966696     -0.41617256365266
  Br  0.04385444704132     -0.77905301477311      2.20043506443080
  H   -0.17388976908322      0.40065811864338     -1.41607492933429
  C   1.05761398801808     -1.60549302329464     -0.25267281553250
  N   1.45975921567092     -2.57635938131534     -0.78011903489252
  N   1.73438336673440      0.64177637991097      0.36418772286378
  O   2.14289604804279      0.85550489749296     -0.77089151704059
  O   2.10136748640416      1.15945549950189      1.40180690721879
  C   -0.94764095939145      1.52817383247705      0.16639663465570
  N   -1.29429556376616      2.55745426582662      0.61581992227425
  N   -1.65480296381753     -0.73647392781849     -0.52026889060009
  H   -2.21654537904945     -0.75268184059466      0.32179133614585
  H   -2.25069115943519     -0.52019114277407     -1.30865785045951
