14
Coordinates from ORCA-job run
  C   0.58919560935773     -0.60750955729888      0.24650192124206
  C   -0.74499840367464     -0.17440628384838     -0.41000800226281
  Br  0.31974041884834     -2.11326222447317      1.42544231225190
  H   -1.01616537348877     -1.01965531561528     -1.05272895083447
  C   1.56486771654631     -0.96172293423218     -0.77366226577072
  N   2.30409980216823     -1.25510752452698     -1.64036547224361
  N   1.19497412942577      0.52909311765556      1.08876883763481
  O   0.43942087571825      1.44232378363818      1.39726612784272
  O   2.37031575436512      0.40607304768107      1.39187953653048
  C   -0.46694492846740      0.97722332869564     -1.29370173126377
  N   -0.29797183441509      1.90885006133411     -1.98990501589906
  N   -1.80778484163390      0.01871882170557      0.54240963035439
  H   -2.70572953464513     -0.07938216283065      0.08822242429941
  H   -1.74301939010481      0.92776384211536      0.97888064811868
