14
Coordinates from ORCA-job run
  C   0.50647238650931     -0.36350016102919      0.41370827892248
  C   -0.59078393266592      0.34048841737844     -0.46170256596885
  Br  -0.22208464203445     -1.01800895272555      2.06420705310753
  H   -0.05188684187380      0.70582913654355     -1.34338121784487
  C   1.08239487092279     -1.46007687406353     -0.34600040508485
  N   1.48291249640739     -2.34947798224260     -1.00346386543239
  N   1.61479437190411      0.68533207111903      0.65997253861144
  O   1.77693280607004      1.12864197242956      1.78135462428175
  O   2.19616014976873      1.00601216574435     -0.37066079068050
  C   -1.09625508171182      1.50248330030779      0.27831957661140
  N   -1.49567314074352      2.43164162777121      0.87494356134578
  N   -1.67281953198936     -0.49242843740955     -0.89792916818858
  H   -1.35481870092837     -1.21705202266021     -1.52894422659279
  H   -2.17534520963513     -0.90088426116328     -0.12042339308756
