14
Coordinates from ORCA-job run
  C   0.71171741065036     -0.49200875257388      0.08749204892389
  C   -0.79365072110380     -0.22583550812143     -0.10351147357711
  Br  1.14403144677693     -2.35401372509947     -0.18917648917771
  H   -1.30525070473533     -0.85773736953475      0.62727253882650
  C   1.50395958081369      0.34946161681663     -0.79169110872260
  N   2.07363907785257      1.03680323093742     -1.55744517335584
  N   1.02733666387047     -0.14748117831511      1.55405818180909
  O   1.99698401162789      0.56523518030892      1.75700694045616
  O   0.27583540126493     -0.64081395829467      2.37906948829122
  C   -1.20969707068352     -0.61813848584694     -1.45846781532302
  N   -1.57651405010916     -0.85819804188471     -2.54880100594775
  N   -1.01876223066585      1.16520490266443      0.22798157693451
  H   -1.95198948082725      1.30813780197871      0.59015426658504
  H   -0.87863933473194      1.76938428696486     -0.57294197572240
