14
Coordinates from ORCA-job run
  C   0.53314281120189     -0.64066985958953      0.12127470815241
  C   -0.80273587533658     -0.08361693411061     -0.48826997814659
  Br  0.16752882808116     -2.34261872728768      0.95892362615258
  H   -1.20633848555487     -0.92281458041192     -1.06556388374585
  C   1.57755775346403     -0.80147388160519     -0.87434285858549
  N   2.40573726485545     -0.92755289250711     -1.70109095976653
  N   1.06068163297559      0.36132826710695      1.17705127942922
  O   0.96920392708068      1.53154253335405      0.82730793569575
  O   1.52744308920326     -0.06905540014812      2.21571616175387
  C   -0.52570827338773      0.99484369459012     -1.44540515032628
  N   -0.33914953308442      1.82993399922331     -2.24931183169974
  N   -1.79498991462522      0.33424175303119      0.46021187191769
  H   -1.50502920628292      1.15039281741535      0.98156703558340
  H   -2.06834401859033     -0.41548078906077      1.08093204358555
