14
Coordinates from ORCA-job run
  C   0.53850516518460     -0.68095504948967      0.04127483863675
  C   -0.82871340218981      0.01923475484000     -0.07731041038108
  Br  0.39920277369840     -2.57438181328131     -0.31415979694457
  H   -1.48051479712709     -0.46863955449332      0.65222481677346
  C   1.51480095804481     -0.06893661404786     -0.84245129765285
  N   2.24013607529726      0.45479149523302     -1.60603105229069
  N   0.98608845873459     -0.50712559308803      1.50364505636793
  O   0.15004436160650     -0.79895114437782      2.34292381080493
  O   2.12650369621493     -0.11396910143852      1.68843646548518
  C   -1.38063729930532     -0.17500036428869     -1.42672718619002
  N   -1.82958861147067     -0.24944457871185     -2.51015622468154
  N   -0.62802789012424      1.39936806006900      0.31019579143584
  H   -1.46839969684918      1.79149248183818      0.71342971202036
  H   -0.33939979171477      1.97151702123687     -0.47429452338369
