14
Coordinates from ORCA-job run
  C   0.47165994959973     -0.65757700473425      0.04857030090829
  C   -0.89939827356775      0.03483900273540     -0.19786992001878
  Br  0.37795092675739     -2.55889208583965     -0.29017041216936
  H   -1.62363438833410     -0.49453906525368      0.42753128102805
  C   1.51482557257472     -0.04274283400443     -0.75239798028432
  N   2.29035931032494      0.50884701140761     -1.44391266820784
  N   0.81985849128355     -0.48722970526226      1.53603906142770
  O   -0.11997882814929     -0.58283459614182      2.31396958027182
  O   1.99471469520724     -0.29657342050647      1.81239942796329
  C   -1.25977162639732     -0.15128824535156     -1.60813810902880
  N   -1.53916837093282     -0.27215877467514     -2.74206496356284
  N   -0.92693414057627      1.43100030484794      0.13913055522263
  H   -0.84682152772313      1.58834806656299      1.13365126682032
  H   -0.25366179006689      1.98080134621532     -0.37873742037019
