14
Coordinates from ORCA-job run
  C   0.70864870116252     -0.48495284249671      0.13978025728893
  C   -0.80265663528203     -0.21780081403025      0.00540176912956
  Br  1.08894784591105     -2.37601176254366      0.24033677998726
  H   -1.26618097793479     -0.66226937843267      0.89011063748871
  C   1.44314301063416      0.12333882938312     -0.95518884621617
  N   1.96222002107733      0.61487717198668     -1.88919993379742
  N   1.14228159802939      0.15516504883924      1.47079466590713
  O   0.44973176750375     -0.12668947508064      2.43497286149255
  O   2.13468074562374      0.86490421689969      1.44413986419949
  C   -1.32858409777195     -0.87683695249219     -1.19967519784070
  N   -1.78276026178340     -1.33127087660959     -2.18365685193529
  N   -0.97963970546244      1.21833633785741      0.04493074168424
  H   -0.89037330630230      1.63292139630903     -0.87504661720325
  H   -1.88045870540500      1.46528910041055      0.43229986981498
