14
Coordinates from ORCA-job run
  C   0.59603680210453     -0.61172694227840      0.16158968943113
  C   -0.82838176351305     -0.06341140988280     -0.04558746788077
  Br  0.61236945753127     -2.54229607642320      0.21830117060206
  H   -1.41831076456964     -0.43351484784425      0.79704888278037
  C   1.49584614621057     -0.12566416572705     -0.86931574279207
  N   2.15210493858525      0.28137708574001     -1.75644748534682
  N   1.06081442274688     -0.09604395233259      1.53610115756260
  O   0.27187671591661     -0.26602246018635      2.45099057358238
  O   2.16793691576769      0.41467475656527      1.58770165899118
  C   -1.39375418507546     -0.58450322679330     -1.29950490447769
  N   -1.86271427367495     -0.92409613179319     -2.32211223393544
  N   -0.73778968072587      1.37930693912549      0.03231988909884
  H   -1.59872453711865      1.78151102033289      0.37804599114566
  H   -0.51831019418518      1.79040941149746     -0.86713117876143
