14
Coordinates from ORCA-job run
  C   0.61179087331988     -0.60789357035065      0.10846494984325
  C   -0.82134972368752     -0.08597140957200     -0.10735762608769
  Br  0.70970900951824     -2.52431413186837     -0.11436716668014
  H   -1.44195976559304     -0.59833728621843      0.63241424366874
  C   1.54809774874719      0.05463002749903     -0.78202389301855
  N   2.24383430460184      0.60552937015799     -1.55400953763723
  N   0.97266516859543     -0.28414311505408      1.56979116266333
  O   2.05111241507324      0.25221050823232      1.76598521191481
  O   0.13958106023989     -0.61420341009588      2.39786960539962
  C   -1.28858903280544     -0.43253960077299     -1.45809389828051
  N   -1.67968710203456     -0.62192190363670     -2.54991382443509
  N   -0.79990368857059      1.33128930099679      0.18690238152032
  H   -1.69653703172835      1.64626358310448      0.53249646271906
  H   -0.54876423567622      1.87940163757848     -0.62715807158992
