14
Coordinates from ORCA-job run
  C   0.54515852709984     -0.41350746748844      0.42289657373260
  C   -0.54526390008287      0.24004176515757     -0.45805535922279
  Br  -0.15925122210710     -0.93785196414925      2.13171635340834
  H   -0.04334146496893      0.49408055664989     -1.39692342417361
  C   1.12014948378333     -1.56213485880355     -0.25711817777920
  N   1.60570575896619     -2.48065274603580     -0.80761127632429
  N   1.67033926716748      0.64569864950516      0.58433778451117
  O   2.17174794762252      0.96449754911010     -0.48695221870663
  O   1.93322169254144      1.07514970413822      1.69148452204280
  C   -0.99616493297191      1.49531517245428      0.17201581211530
  N   -1.40633994820216      2.48628501096578      0.65306403059866
  N   -1.57841559094272     -0.72779756784640     -0.73462152678357
  H   -2.21818744571600     -0.81581747340232      0.04502573412087
  H   -2.10035817218911     -0.46430633025525     -1.56025882753965
