14
Coordinates from ORCA-job run
  C   0.62005080302994     -0.63313194848421      0.14090567946376
  C   -0.74381387625077     -0.11309800425109     -0.39191639277960
  Br  0.33810401380354     -2.30318125445671      1.06647915746126
  H   -1.16851794373693     -0.94831498190970     -0.96846745630446
  C   1.58755001013953     -0.82650341593930     -0.92433174427880
  N   2.34980862502475     -1.00599592282180     -1.80210149190560
  N   1.16446898974102      0.44401750050721      1.10903889118226
  O   1.15890272763571      0.22230708258699      2.30264243009529
  O   1.52002461454684      1.45969844945719      0.52729431863252
  C   -0.55264408002513      1.00048342287956     -1.32688341666580
  N   -0.49307219413024      1.87806743504190     -2.10511373078210
  N   -1.54174347217459      0.32393942056141      0.73765246368105
  H   -1.97597398648946     -0.46821525907428      1.19423191363053
  H   -2.26214423111421      0.96892747590282      0.44056937856969
