14
Coordinates from ORCA-job run
  C   0.51607376113177     -0.34730968605534      0.41513645538298
  C   -0.59960309703784      0.32148790930259     -0.46453287642996
  Br  -0.19651109531231     -1.02227916101926      2.06424227932246
  H   -0.06972981867109      0.70167611587673     -1.34538308689977
  C   1.12885125134875     -1.42594739419570     -0.34138665585344
  N   1.56009361818998     -2.30100144078090     -0.99875654799242
  N   1.59081026974086      0.73607678388939      0.66368828694926
  O   2.16777040016853      1.07110064555373     -0.36471645168367
  O   1.73248352615485      1.18777812125516      1.78445942690205
  C   -1.14257657053321      1.46794065243355      0.27296470423225
  N   -1.57118202034266      2.38341121272516      0.87044460894806
  N   -1.65474597796601     -0.54474872645554     -0.90228737382002
  H   -1.31219805915269     -1.26297015300351     -1.52776377017754
  H   -2.14853618771894     -0.96421487952606     -0.12510899888024
