14
Coordinates from ORCA-job run
  C   0.56579514070938     -0.57857598734665      0.03719183005779
  C   -0.89081134573606     -0.09612349691155     -0.21872779639086
  Br  0.77290473447560     -2.45795120279774     -0.36734721021360
  H   -1.53624387216155     -0.75366977231504      0.37032266002872
  C   1.51738260842796      0.21752967367372     -0.71668374282248
  N   2.21664399886599      0.90420442308322     -1.36741040946190
  N   0.85531782377366     -0.41189509039086      1.53770322946610
  O   1.98137981027752     -0.05424131378184      1.84923679362719
  O   -0.07342423776607     -0.67897075366201      2.28865267722442
  C   -1.19079765701452     -0.28205457302313     -1.64306534642018
  N   -1.42228054848866     -0.40037016902433     -2.78797402439770
  N   -1.13948301870413      1.26530276055795      0.16556788283267
  H   -1.10602439390377      1.39560121319589      1.16660279716691
  H   -0.55035904275536      1.93221428874238     -0.31606934069708
