14
Coordinates from ORCA-job run
  C   0.68020208374222     -0.53989617436315      0.03064775809893
  C   -0.80566559898420     -0.16418716550561     -0.12450031689048
  Br  0.99951363836499     -2.38385974075163     -0.44794031749139
  H   -1.35649486916452     -0.83906649406081      0.53595019452453
  C   1.52496026958146      0.34223917282483     -0.75478826231543
  N   2.13994111210257      1.07268075531139     -1.44147798342190
  N   1.01253480988812     -0.37671763557742      1.52472089882030
  O   2.02380920100805      0.24867555148847      1.79995298316607
  O   0.23038374728098     -0.91040668222381      2.29439119402573
  C   -1.24160505800815     -0.38366128418074     -1.51181797260642
  N   -1.62214939316500     -0.48694255500022     -2.61883360560394
  N   -0.94731889569634      1.19421366987562      0.35542842645375
  H   -0.76718007347014      1.87118290152537     -0.37632086076939
  H   -1.87193097348003      1.35374568063772      0.73258786400964
