14
Coordinates from ORCA-job run
  C   0.56100123028573     -0.45293464957122      0.35949645080805
  C   -0.55059517089239      0.28908252573519     -0.41889258939861
  Br  -0.12958184993363     -1.26609577873477      1.95746139799843
  H   -0.05484723813795      0.70981483795306     -1.29958604500470
  C   1.18191401839677     -1.45869980255087     -0.48615503754870
  N   1.69943024824956     -2.26359039303248     -1.16940376207819
  N   1.64192972376952      0.60996308504896      0.69615978494279
  O   2.14866468204478      1.09814994864717     -0.30673802138737
  O   1.86706933470401      0.88650127766110      1.85894298577269
  C   -1.05733916372180      1.40860945383204      0.39745707078269
  N   -1.51475694399127      2.29094182950634      1.02496361126138
  N   -1.54153149874684     -0.66247499558578     -0.85817245128378
  H   -2.18477111891117     -0.89510931928543     -0.11189219642037
  H   -2.06558625311532     -0.29515801962329     -1.64164119844432
