14
Coordinates from ORCA-job run
  C   0.62409456780098     -0.49956587594232      0.10645374640000
  C   -0.87778085265884     -0.22155333064618     -0.18652473064690
  Br  1.04066292741239     -2.38183841850515     -0.05336385072485
  H   -1.44519987624190     -0.85964186234118      0.49669923641222
  C   1.47824251415013      0.29215868865576     -0.76054423568408
  N   2.09161834790116      0.96399565624322     -1.50644642220487
  N   0.90691143051425     -0.11011255044678      1.56661898183402
  O   2.02012463764715      0.32864696146512      1.81395327355597
  O   -0.00578399576674     -0.30846149226407      2.35777433844758
  C   -1.15656929856915     -0.63299218194488     -1.56737961069352
  N   -1.37377552046837     -0.92862339267442     -2.68265030899117
  N   -1.27909012632669      1.14368655039348      0.01020334342728
  H   -1.24773382228605      1.41658694287637      0.98199343696502
  H   -0.77572093310832      1.79671430513105     -0.57578719809670
