13

C	-0.529693	0.109067	-1.417616
C	0.0	0.0	0.0
Cl	-0.217261	-1.48293	-2.285653
H	1.086857	0.0	0.0
H	0.121522	0.808754	-1.939591
H	-0.36309	0.869546	0.554851
N	-1.881792	0.544174	-1.497544
H	-2.182187	0.591542	-2.463147
H	-2.470167	-0.106511	-0.992869
N	-0.546726	-1.181872	0.7193
O	-1.7637	-1.380882	0.6225
O	0.212769	-1.862771	1.394735
Cl	3.408678	0.0	0.0
