13

C	-0.564292	-0.021175	-1.422346
C	0.0	0.0	0.0
Cl	-0.250843	-1.625796	-2.155344
H	1.087843	0.0	0.0
H	0.03448	0.689371	-1.995286
H	-0.362867	0.909845	0.485507
N	-1.962523	0.300149	-1.591078
H	-2.087648	1.285464	-1.386214
H	-2.495019	-0.225343	-0.906255
N	-0.553339	-1.120008	0.801177
O	-1.770488	-1.076147	1.034509
O	0.189156	-2.023101	1.163041
Cl	3.400679	0.0	0.0
