13

C	-0.526242	-0.041181	-1.40945
C	0.0	0.0	0.0
Cl	-2.415992	-0.063492	-1.314189
H	1.091243	0.0	0.0
H	-0.306231	-0.995922	-1.876982
H	-0.380098	0.861803	0.547009
N	-0.036637	1.026478	-2.170157
H	-0.373295	1.022988	-3.121462
H	-0.181457	1.925972	-1.738393
N	-0.437943	-1.195192	0.761073
O	-0.38076	-2.28256	0.190948
O	-0.794873	-1.028109	1.925955
Cl	3.356704	0.0	0.0
