13

C	-0.574726	-0.03483	-1.400332
C	0.0	0.0	0.0
Cl	-0.272776	1.627167	-2.129213
H	1.08779	0.0	0.0
H	-1.658162	-0.108234	-1.381859
H	-0.396405	0.838194	0.571479
N	-0.020206	-1.0989	-2.095986
H	0.958624	-1.290496	-1.994132
H	-0.555713	-1.657807	-2.728344
N	-0.513086	-1.233705	0.664406
O	0.262571	-2.148046	0.907057
O	-1.72528	-1.251645	0.910455
Cl	3.391439	0.0	0.0
