17
Coordinates from ORCA-job run
  C   0.78642691250118      0.14594797374314     -0.08228016248308
  C   -0.59595197973073      0.72123334220144      0.23677075215515
  F   1.53264243876155      1.19849053894030     -0.54648445615864
  H   -0.50351252551191      1.68814766641803      0.72413216474732
  N   1.42615409412247     -0.20580272098300      1.26381412714995
  O   2.19940810951548     -1.15197603822442      1.29738923330719
  O   1.15797381421219      0.55958759518011      2.18560740206686
  C   0.85125985413865     -0.98991318703868     -1.05476828392645
  H   0.24869681865463     -1.82998050175415     -0.71757938892396
  H   1.88893717711029     -1.30378398834711     -1.15283199035362
  H   0.49431510689626     -0.64383030672322     -2.02560729033638
  N   -1.43446327810140     -0.15197466055740      1.11307682526264
  O   -1.06843408671276     -1.30757857299897      1.29957271144787
  O   -2.44243759865116      0.38663442030922      1.55321716254092
  N   -1.34881702922537      0.91750268618966     -1.04776883719316
  O   -2.08435629613372      0.00591981917845     -1.40817602504719
  O   -1.10784153184566      1.96337593446659     -1.63808394425543
