17
Coordinates from ORCA-job run
  C   0.62124244703947      0.04316004588516     -0.29132800058590
  C   -0.74629459098424      0.23331355980520      0.35564676603342
  F   0.67115797957639      0.67357326267774     -1.48370425242330
  H   -0.70471176021067      0.01728781039695      1.42174218605417
  N   1.65768310236533      0.70030792252077      0.62723341627273
  O   1.57707501216414      0.38367601182478      1.80883392625422
  O   2.49737956239800      1.40722047660193      0.10011738904336
  C   1.01625483502885     -1.40603928136682     -0.43862483621689
  H   0.94372304145593     -1.93098411866508      0.51404059086001
  H   0.37308663816080     -1.88327176566591     -1.17829003407061
  H   2.04590449686478     -1.44577275188856     -0.79825469410431
  N   -1.74132558400961     -0.69102736264487     -0.26252588892713
  O   -1.92770283923981     -0.57014777582495     -1.46767089398816
  O   -2.25522427869696     -1.51142072831780      0.49423884490524
  N   -1.23243944157843      1.65235357909466      0.20902638996414
  O   -0.37785877056030      2.50346222902802      0.41770278749202
  O   -2.41794984977365      1.82330888653878     -0.02918369656302
