17
Coordinates from ORCA-job run
  C   0.67617375943663      0.07499633009252     -0.38293749752605
  C   -0.83357245948846      0.28967043384625     -0.28399852092605
  F   1.11083553874823      1.02710354601355     -1.25453993090617
  H   -1.27572163917555      0.10794048627152     -1.26340398918861
  N   1.35393498626350      0.32497847500717      0.95551682627467
  O   2.32607327296832      1.05779515439280      0.97232691127660
  O   0.87418643811030     -0.31594483128931      1.88383827144594
  C   1.10334928202891     -1.28796622202241     -0.86148884905111
  H   2.18700613883669     -1.26300113387743     -0.99429613793142
  H   0.83537233660913     -2.06015776735079     -0.14471072625490
  H   0.63353623410686     -1.50571703298380     -1.82123380272322
  N   -1.17790968900883      1.69993034837197      0.08123102282305
  O   -0.43257704885100      2.27944462238945      0.86129344366339
  O   -2.20785206320331      2.12984446335570     -0.42697708331113
  N   -1.54715240194969     -0.62656184991747      0.67777555307257
  O   -2.05152632651140     -0.13150117717979      1.67287562613200
  O   -1.57415635892033     -1.79885384511993      0.32672888313043
