17
Coordinates from ORCA-job run
  C   0.60727759084903      0.00764172837477     -0.31572737253633
  C   -0.76429318105782      0.08957912605894      0.34649684890387
  F   0.58866447990838      0.64990737373248     -1.50533002431303
  H   -0.82329392972134     -0.51688727404616      1.24583605993678
  N   1.58785547323381      0.72857920150634      0.60364225323991
  O   1.43315077208485      0.49944646836819      1.79961842564927
  O   2.46256927929733      1.39178336758938      0.07673353061254
  C   1.11765115511476     -1.40084950168418     -0.49508705754783
  H   2.12251218062710     -1.34120735621557     -0.91734166939886
  H   1.15185718327852     -1.92655543784488      0.45916715596055
  H   0.47399091654935     -1.94400564718044     -1.18579380133884
  N   -1.79404110479961     -0.42425535534313     -0.62161440604414
  O   -1.95701572862337     -1.64008109819546     -0.60339015216765
  O   -2.34127960514307      0.39309952833851     -1.34836331647806
  N   -1.17676521861763      1.48173006409872      0.72607004725200
  O   -2.21200979137785      1.53522001170895      1.37889857859037
  O   -0.47683047160244      2.41585480073354      0.35618489967944
