17
Coordinates from ORCA-job run
  C   0.72322586220320      0.06821763154879     -0.28550909070075
  C   -0.77987624840953      0.32618862029484     -0.38030174169071
  F   1.29599661098718      1.03942026614289     -1.04980142821134
  H   -1.09071663311440      0.19599858123237     -1.41677303526848
  N   1.22008104894121      0.24497219520137      1.14107381327797
  O   0.60227238234413     -0.41510874337526      1.96893785017447
  O   2.19996139852199      0.94537460844873      1.31909965992715
  C   1.17607828091811     -1.28777373379039     -0.76001850111934
  H   0.83478652047425     -1.45352505323987     -1.78242228612704
  H   0.79380017974335     -2.07811205856195     -0.11881260533179
  H   2.26800738588659     -1.29172105543816     -0.74544555127379
  N   -1.13336085555985      1.73165979311695     -0.00548312250574
  O   -2.07207813060359      2.21425928208731     -0.62978095272207
  O   -0.48671747325691      2.25568337229827      0.89295546091788
  N   -1.64023542123074     -0.60383542643996      0.43796266408652
  O   -2.26302352830897     -0.13076496484081      1.37508141511523
  O   -1.64820137953601     -1.76093331468512      0.03923745145181
