17
Coordinates from ORCA-job run
  C   0.62380653663470     -0.06407101852400     -0.27394540455411
  C   -0.77913959967938      0.16905800445824      0.27748907204811
  F   0.69351901544443      0.35127138010967     -1.55873907980855
  H   -0.91021662030255     -0.26320414735821      1.26542834794049
  N   1.57542481548485      0.78858295632480      0.55845835638873
  O   2.50205976963411      1.32155228313896     -0.02449253549133
  O   1.34507234509997      0.78674704222654      1.76414122309959
  C   1.09493926991525     -1.49336349386740     -0.16537592052282
  H   2.12414199019110     -1.53473635094972     -0.52677271227536
  H   1.05489065163051     -1.83920344846588      0.86755317058461
  H   0.47412193920642     -2.13682828952462     -0.78742780684681
  N   -1.76992920596255     -0.48672530985257     -0.64423830046604
  O   -1.97438940911901     -1.67530244749848     -0.41950103906495
  O   -2.24825901755348      0.19862583080762     -1.53708003950350
  N   -1.16365269712766      1.61640425015250      0.37509063457891
  O   -2.23004038336676      1.81240079015021      0.94523184427081
  O   -0.41334940012993      2.45079196867233     -0.11481981037778
