17
Coordinates from ORCA-job run
  C   0.78154439504790      0.19317117167935     -0.00364724318068
  C   -0.65833391441297      0.68879734739022      0.15577248878619
  F   1.51141926026930      1.28055056600963     -0.40908828788265
  H   -0.67500086383262      1.67079218052953      0.62096114568169
  N   1.29357901372055     -0.09941687816455      1.40940094842234
  O   2.10838436429643     -1.00038182309842      1.54602236392198
  O   0.88818655253679      0.66582705235348      2.27984782067762
  C   1.01292913426214     -0.95140900071899     -0.94002129526562
  H   2.06992770496242     -1.21048595742264     -0.91822679813411
  H   0.42114194427308     -1.81792694665474     -0.65453437699694
  H   0.74780873943572     -0.63733708617206     -1.95048682671939
  N   -1.52905255591155     -0.21431439240123      0.96744414669624
  O   -2.60003864638884      0.27672045358216      1.30212167315353
  O   -1.12419668847319     -1.34693647610433      1.20714455022988
  N   -1.28357363159097      0.80697964598449     -1.20480032375507
  O   -1.02816796785717      1.84352038391788     -1.80536168077086
  O   -1.93755684033702     -0.14915024070977     -1.60454830486416
