17
Coordinates from ORCA-job run
  C   0.74922693763668      0.26310408154672      0.04876949010051
  C   -0.74064444118624      0.58442619055179      0.17455673272882
  F   1.35171961536540      1.45106516004864     -0.28292823235316
  H   -0.88528275343953      1.48319796089374      0.76833726147203
  N   1.24996981450166     -0.03357619107762      1.46629733463161
  O   0.71401299786134      0.61188084208386      2.36239618946271
  O   2.18054041887578     -0.81750501401048      1.58460815309450
  C   1.15760383401151     -0.79952908805800     -0.92315108180543
  H   2.24215821026973     -0.88957840169784     -0.89686546185634
  H   0.84954727479214     -0.50482803126860     -1.92629612108489
  H   0.70964558352891     -1.75701254949504     -0.66887374562329
  N   -1.55341092932903     -0.50432711488523      0.80133858773323
  O   -0.99145490795492     -1.55545791341433      1.09021628862812
  O   -2.73244242121791     -0.22283423562426      0.97270127638592
  N   -1.30954446078678      0.83541821871609     -1.19080767699007
  O   -1.27186040707430      1.99866535941523     -1.57332026419389
  O   -1.71878436585442     -0.14310927372466     -1.80597873033037
