17
Coordinates from ORCA-job run
  C   0.74127383520721     -0.00483436534829     -0.24335784763783
  C   -0.73706383998041      0.30847142425868     -0.47025112306175
  F   1.41136150748874      0.82836712543649     -1.08707677552397
  H   -0.99319969157766      0.05535394925737     -1.49890585045085
  N   1.16093244170635      0.33635949944613      1.17842735325643
  O   0.46052719131613     -0.18031576869918      2.04169175547647
  O   2.16454789023812      1.00891676901502      1.32898699346994
  C   1.14634729032579     -1.43155485927658     -0.50698718166577
  H   0.85633252760593     -1.71592461523706     -1.51907842309995
  H   2.23383295592939     -1.48360790612517     -0.42163085288334
  H   0.68524792518630     -2.11099264121800      0.20545039427440
  N   -1.03267708052662      1.76680535486650     -0.30738872475432
  O   -1.90063914176347      2.20642208289973     -1.05399047361326
  O   -0.41569518859832      2.37469035373334      0.55840638614262
  N   -1.69413611043454     -0.46135489193547      0.40466189740889
  O   -1.74123430971717     -1.66007055761287      0.16211811646490
  O   -2.34575820240578      0.16226904653936      1.22692435619738
