17
Coordinates from ORCA-job run
  C   0.60076941311772      0.02097748922125     -0.32705352607272
  C   -0.75790596224936      0.07421579248167      0.36385088829452
  F   0.55356731896505      0.69301631827085     -1.49932615191089
  H   -0.79425617612172     -0.55518308463208      1.24850928101490
  N   1.59336886432886      0.72683685323306      0.59105882219010
  O   1.46447646764085      0.46586701790502      1.78359322750650
  O   2.45190604493176      1.41118257540011      0.06458130314374
  C   1.11891068300782     -1.37799881274351     -0.55260748204450
  H   1.17588260840238     -1.92815450396747      0.38665128634323
  H   2.11479204291602     -1.29876999907370     -0.99252739247685
  H   0.46610106853812     -1.90828614736904     -1.24475887858263
  N   -1.80240464141131     -0.42435604176099     -0.59641647554301
  O   -1.95554193082717     -1.64156040841517     -0.60489300065916
  O   -2.37015534856501      0.40590987252408     -1.29213608880609
  N   -1.17449453182818      1.45268860317274      0.78640851876257
  O   -2.19708654703930      1.48058536849374      1.46041208632122
  O   -0.48992937380655      2.40202910725944      0.42665358251906
