17
Coordinates from ORCA-job run
  C   0.72820274663053      0.07441908745324     -0.27139136984064
  C   -0.77388684946069      0.32906743908606     -0.38991512642211
  F   1.31138765651349      1.05709958353482     -1.01246020545157
  H   -1.06489743702960      0.21267730492776     -1.43376381704639
  N   1.19862515941344      0.23380844757409      1.16620504122395
  O   0.56820059281917     -0.43889487180668      1.97407792304952
  O   2.17295561668717      0.93463128607503      1.37087234486620
  C   1.19378056446728     -1.27413726641329     -0.75479956004252
  H   2.28528140578286     -1.27506514209008     -0.72031918158279
  H   0.87158646945095     -1.42805397093997     -1.78523049824711
  H   0.80246974935704     -2.07373026406431     -0.13075185341448
  N   -1.13903879875769      1.72795031027267     -0.00227795367906
  O   -0.50909187409810      2.24314397877803      0.91293527883774
  O   -2.06900118827671      2.21515163516220     -0.63603435276282
  N   -1.64596599461043     -0.61481583257388      0.39880099849466
  O   -2.28672905757175     -0.15745018909274      1.33154805781469
  O   -1.64387876131696     -1.76580153588294     -0.01749572579725
