17
Coordinates from ORCA-job run
  C   0.61940769449782     -0.04907124261781     -0.28716378639497
  C   -0.77522199605798      0.15246985084968      0.29655012879647
  F   0.66078318810410      0.40347506183815     -1.56060814959304
  H   -0.88164526587907     -0.30737496706437      1.27497819324616
  N   1.57747494206754      0.79070078840300      0.55174352086499
  O   2.48379320995479      1.35569648672979     -0.03294098001021
  O   1.37199333855103      0.74790075425900      1.76124675245428
  C   1.10772996750088     -1.47546340497531     -0.22801136349585
  H   0.48177448338098     -2.10840370799516     -0.85568755605936
  H   2.12997112058075     -1.49490490117748     -0.61045292395504
  H   1.09205741652638     -1.85008045565123      0.79546235945735
  N   -1.77588513968948     -0.49044406014139     -0.62357868662760
  O   -2.27659196726496      0.21221543858558     -1.49043178849522
  O   -1.96431252435228     -1.68646163996142     -0.42550657797999
  N   -1.17503714827030      1.59193788044332      0.44054144362606
  O   -0.44149908528285      2.44875826189972     -0.03607743263965
  O   -2.23479223436735      1.75904985657592      1.03193684680564
