17
Coordinates from ORCA-job run
  C   0.76863732752103      0.23346430886580      0.03580862438443
  C   -0.70158073388448      0.65780248807687      0.07987577421327
  F   1.46539170561913      1.33824021167562     -0.38096408015324
  H   -0.79836791814440      1.65568017561718      0.49926249498888
  N   1.20303967207593      0.03954677308516      1.49160270555345
  O   0.70141958465892      0.82109243250517      2.29469752232802
  O   2.05549841365676     -0.80498950486399      1.72450139832658
  C   1.12010597950687     -0.94202619836715     -0.82136656490330
  H   2.18683638256646     -1.13575322551384     -0.72409990765221
  H   0.56244321168824     -1.82630696955781     -0.52205246080685
  H   0.89918186578990     -0.69937659429269     -1.86156247701831
  N   -1.57894875418992     -0.25595125585128      0.87259206489352
  O   -1.12803503104128     -1.34649998639641      1.20657238807860
  O   -2.69963532223320      0.18345862969442      1.09793288046400
  N   -1.24049161121387      0.68800019592481     -1.32149741285687
  O   -1.01754390121758      1.71933765118187     -1.94355426688952
  O   -1.79995087115852     -0.32471913178374     -1.72574868295044
