17
Coordinates from ORCA-job run
  C   0.65549210543363      0.05640228671874     -0.19966851096257
  C   -0.78169966178422      0.21359544361922      0.28443579722412
  F   0.87832672351851      0.83318133717942     -1.28032457017635
  H   -0.89312955529494     -0.15893891867989      1.30114618118223
  N   1.57500833551193      0.54434473296695      0.92451809559064
  O   2.50184112643590      1.26803752353659      0.60820622480918
  O   1.32243423126685      0.09076632236121      2.03525890981792
  C   1.03089742563727     -1.37642898583495     -0.49021317331131
  H   0.81891428215734     -2.01933636502011      0.36418978614181
  H   0.47955936467474     -1.72471348576365     -1.36409743237535
  H   2.09769924138815     -1.41210106901181     -0.71760907333741
  N   -1.69940267960619     -0.56897525885519     -0.59484313162373
  O   -2.28101384018302     -1.51043308973574     -0.06087602733376
  O   -1.75357206421960     -0.23051958762164     -1.77126583157900
  N   -1.21445940076582      1.65647717082455      0.29137999824977
  O   -0.36203419414728      2.44507996669569      0.67875075483017
  O   -2.37386144002326      1.89556197662060     -0.00998799714636
