17
Coordinates from ORCA-job run
  C   0.71925953436828      0.06237431232884     -0.29642888597715
  C   -0.78240084057894      0.33652433979379     -0.36556688339475
  F   1.28982527831811      1.03154544964864     -1.06489388541380
  H   -1.11108464832222      0.21606803101905     -1.39769066883059
  N   1.24091426705513      0.22609915173417      1.12274593606987
  O   2.23155824830063      0.91436077958323      1.28810235962717
  O   0.62942088100127     -0.43156713402148      1.95715760192902
  C   1.15002279136747     -1.29586820380157     -0.78510075268399
  H   0.77104455304872     -2.08540959971196     -0.14095650057847
  H   2.24195719877299     -1.31055252169840     -0.78949019244665
  H   0.78934056035802     -1.45353078961944     -1.80210729932115
  N   -1.11503227880803      1.74348310513524      0.02257742628737
  O   -0.44753861883548      2.25687672703324      0.91185404838409
  O   -2.05933812176611      2.23872977054791     -0.58314454044756
  N   -1.63904863891200     -0.58917583811047      0.46082712255245
  O   -2.24179378990342     -0.11555896637111      1.41064120906158
  O   -1.66610637546441     -1.74339861348969      0.05447390518256
