17
Coordinates from ORCA-job run
  C   0.70677019402642     -0.07479816840847     -0.37582245218174
  C   -0.67764198502672      0.57909788075695     -0.36896664833671
  F   1.10721639417441     -0.08849489434208     -1.68709997748358
  H   -0.69688199357023      1.43469047411696     -1.03881991361062
  N   1.65429860421328      0.92050465630331      0.29931125184706
  O   1.41860929011969      2.10339284513785      0.06974315979262
  O   2.59549682869257      0.47081181019520      0.93652743564095
  C   0.82205091882232     -1.44969738118305      0.20444285196067
  H   0.48772727050404     -1.46846628926433      1.23901498722660
  H   0.21997489127016     -2.13629125151660     -0.39196137187097
  H   1.86407119755340     -1.76061182830347      0.15439600534542
  N   -1.12838563681042      1.04458979172270      0.97750868221939
  O   -2.12840926992804      1.75123751600866      0.96295103567657
  O   -0.49286479811075      0.67688777871329      1.95988463297147
  N   -1.68865548546393     -0.41810618408026     -0.85730918040925
  O   -2.26490217354715     -1.08814067606838     -0.00818434550746
  O   -1.79947424691905     -0.49560607978830     -2.07461615328041
