17
Coordinates from ORCA-job run
  C   0.74230853990339      0.02745708025109     -0.28606776006006
  C   -0.75483524747248      0.32638233640362     -0.40661749941094
  F   1.38930552273819      0.90090568490546     -1.11435175045487
  H   -1.05180544312214      0.20468203097494     -1.44796739320314
  N   1.26176873535428      0.36085880894262      1.11029620243309
  O   1.92491761892632     -0.48672213674047      1.69139467884751
  O   1.00674033625241      1.49522337348481      1.49768329782041
  C   1.07815961998734     -1.38470042847233     -0.67618252975190
  H   0.66083761212460     -2.10498086530455      0.02379829399497
  H   2.16184859879759     -1.49446894515044     -0.68041930076573
  H   0.69947629858370     -1.57271911585755     -1.68286362476622
  N   -1.15819836125468      1.73822559147963     -0.03043443064856
  O   -1.79970065624537      1.88694839268875      0.99800178079449
  O   -0.81128375448834      2.58910429392189     -0.83470505220736
  N   -1.57548697499867     -0.60968841118880      0.41062565406043
  O   -1.10866205686470     -0.96060466713111      1.49038324089076
  O   -2.66539038822144     -0.91590302320758     -0.06257380757288
