17
Coordinates from ORCA-job run
  C   0.77296839127045      0.20901899082029      0.05777104514672
  C   -0.68492842831186      0.61588084676224      0.28598601632169
  F   1.46894172094695      1.38077987093439     -0.09271648631081
  H   -0.74324487595946      1.46212423319113      0.96529935248026
  N   1.27468358991803     -0.35958784036465      1.38808567700007
  O   2.13258180223222     -1.22947632773170      1.34694270602885
  O   0.81777870633578      0.17745427076940      2.39311365403969
  C   1.06156848181714     -0.70373856255421     -1.09302358244321
  H   0.50464906989999     -1.63368317542591     -1.00640843881944
  H   0.79371910080180     -0.19760698851869     -2.02114776183853
  H   2.12843751372868     -0.91959182072651     -1.10415392678279
  N   -1.54477839678026     -0.47323818672055      0.84182377634332
  O   -1.09251780579164     -1.61295066104933      0.86738051887538
  O   -2.65283880065438     -0.10703726561471      1.21275942800020
  N   -1.28533054361477      1.03119878111654     -1.02603761280674
  O   -1.08815333813776      2.19760593368797     -1.34420915721414
  O   -1.86553618770094      0.16584790142430     -1.67146520802052
