17
Coordinates from ORCA-job run
  C   0.71356533546595     -0.12317868305836     -0.35132398046154
  C   -0.64711088086306      0.57472552228134     -0.42760259449175
  F   1.15138989303377     -0.23476831914822     -1.64559813147323
  H   -0.62237942614129      1.37941339045203     -1.15759428088085
  N   1.67561083094154      0.88262007547562      0.28781882566055
  O   2.58239994502107      0.44455783023434      0.98059026355793
  O   1.48770577479241      2.05484015729147     -0.02534411801011
  C   0.76356252022525     -1.46029116354735      0.31919804467198
  H   0.39903327801764     -1.39985448660538      1.34193860443876
  H   1.79464685151621     -1.80931106507937      0.32173293782546
  H   0.15490697575207     -2.16360630736849     -0.25064037064359
  N   -1.11207606969001      1.15159720663487      0.87027369485873
  O   -0.52596743922403      0.81869538449671      1.89487557545833
  O   -2.07310090798715      1.90503100046928      0.77736460744446
  N   -1.68016847498384     -0.42238033350506     -0.86784310669156
  O   -1.74972368350608     -0.59943987584512     -2.07785596738006
  O   -2.31229452237043     -0.99665033317831      0.01100999611648
