17
Coordinates from ORCA-job run
  C   0.73381159679924      0.29909688026936      0.13571158997622
  C   -0.77755876323664      0.52550156211609      0.22380736030949
  F   1.29712789949572      1.54771770912140      0.07360632008695
  H   -1.00133648485306      1.34890295772877      0.89679935523198
  N   1.16717620855817     -0.24286437790732      1.50079399337028
  O   2.11354630671668     -1.01587919904611      1.53298492970509
  O   0.56175405440495      0.22102063610261      2.46292926658719
  C   1.23848438684344     -0.54227597332994     -0.99456825293962
  H   1.00687262441340     -0.04339624322372     -1.93647145235217
  H   2.31907833841373     -0.63546226385534     -0.90222711527566
  H   0.78670539481312     -1.53130796808907     -0.97945615443124
  N   -1.54851405558575     -0.66666543047685      0.69100380117021
  O   -0.97289262832324     -1.74876939014539      0.73312524074250
  O   -2.71757201113763     -0.43705237446037      0.97451792587961
  N   -1.29559242362014      0.88460933669643     -1.13908411914652
  O   -1.72098744889139     -0.03130194953043     -1.83340329155325
  O   -1.19110299481062      2.06712608802990     -1.44106939736105
