17
Coordinates from ORCA-job run
  C   0.65899901996447     -0.03555695771134     -0.42085836673312
  C   -0.76725858709620      0.49374932256860     -0.26936044762011
  F   0.85020310239339     -0.14139150386660     -1.77720171685953
  H   -0.88406008867152      1.41056569363490     -0.84320652525985
  N   1.59607165557799      1.10287500326968      0.00808442251473
  O   2.62919375985403      0.79942424107013      0.58638743933996
  O   1.25077812279631      2.22896459705157     -0.33609440948699
  C   1.01755791347895     -1.32752635196061      0.24460618977891
  H   0.37743395532778     -2.11914909832329     -0.14185712320019
  H   2.05573776369668     -1.55554299220524      0.00882927349892
  H   0.90463931128813     -1.25939306361224      1.32381491977368
  N   -1.16075060230372      0.79648785306099      1.14422602492780
  O   -0.26880899368215      0.81787813815138      1.98623469281691
  O   -2.34613571345762      1.04611548280322      1.31360234502252
  N   -1.74062413728599     -0.50818426797661     -0.80940888497747
  O   -1.99207653183534     -1.46851845541576     -0.08882439342017
  O   -2.17889995004518     -0.28079764053876     -1.93097344011600
