17
Coordinates from ORCA-job run
  C   0.75261293298435      0.20609612201884     -0.11973044445268
  C   -0.67394601001820      0.57562130230960      0.30393505350516
  F   1.23980790168409      1.32347094757090     -0.72655326593349
  H   -0.65535836187498      1.33432548610499      1.08342634885943
  N   1.52323807625297      0.03677246023969      1.18661721312519
  O   2.57691564761856      0.63897222817089      1.31215518827895
  O   1.00139569007372     -0.73787115031010      1.98346170114477
  C   1.01675732952822     -1.00827424576582     -0.96489292612469
  H   0.46359978942796     -0.93441049904402     -1.89768483847215
  H   0.73037803160162     -1.91843552679173     -0.44363052561445
  H   2.08909533079504     -1.02215059513496     -1.17328067545776
  N   -1.51402437977163     -0.55805092218007      0.81624091767870
  O   -2.02218301509227     -0.38649124868840      1.91824693012403
  O   -1.64953384786551     -1.52469019302055      0.07529336274831
  N   -1.43312374056646      1.17835329445704     -0.84776960589690
  O   -1.38932124156726      0.59480279371267     -1.92373431877966
  O   -2.05631013321021      2.20195974635102     -0.58310011473278
