17
Coordinates from ORCA-job run
  C   0.74632197890295      0.20720321098110     -0.10781341380736
  C   -0.68522396603237      0.56449370323668      0.30793638643958
  F   1.22440851917178      1.33262655382102     -0.71197375172194
  H   -0.67673966759263      1.32837790023448      1.08187437796029
  N   1.51986474896071      0.04227852900526      1.19563427483533
  O   2.63059556301298      0.54288146366511      1.26119316480131
  O   0.94891078608359     -0.63317592992192      2.04767454126228
  C   1.02748665303071     -0.99728322947625     -0.96138920621292
  H   0.77348831647946     -1.91636347264459     -0.43898979247737
  H   2.09579987605106     -0.97880600800683     -1.18835466884899
  H   0.45460671550864     -0.93775597865748     -1.88388633318420
  N   -1.53048326862724     -0.56409851817000      0.81927221777542
  O   -1.56959739952707     -1.58791465070944      0.14801711141850
  O   -2.14896766841886     -0.32747895844706      1.85133270682781
  N   -1.42252027070655      1.16101525423103     -0.86219654428754
  O   -1.88966158082294      2.27985220343885     -0.67700158565870
  O   -1.50028933547421      0.48214792742004     -1.87932948512150
