17
Coordinates from ORCA-job run
  C   0.74624474401187      0.02465455903001     -0.27620704621220
  C   -0.74816865052865      0.32735210464338     -0.41728047262065
  F   1.40656222667799      0.89452716039881     -1.09728053407510
  H   -1.03191169749843      0.20387695795341     -1.46209231158322
  N   1.24746921085390      0.35934253609910      1.12679606079469
  O   0.99433283552842      1.49708366873141      1.50556462531128
  O   1.89542617879996     -0.49063925793005      1.72119591741003
  C   1.08323215780694     -1.38929550357221     -0.65878627800227
  H   0.72176589834437     -1.57607027991445     -1.67200267410492
  H   0.65063755964365     -2.10752622739347      0.03394109661742
  H   2.16637210336568     -1.50355617054967     -0.64368626722970
  N   -1.15253581382458      1.74153096625240     -0.05036252154028
  O   -0.79335781238814      2.58857109714837     -0.85326832964736
  O   -1.80657431569907      1.89512452851533      0.96938179106232
  N   -1.58254408307683     -0.60423216154428      0.39137409939465
  O   -1.13216241017325     -0.95107296734391      1.47937749066484
  O   -2.66578813184384     -0.91067101052418     -0.09666464623953
