17
Coordinates from ORCA-job run
  C   0.69843949018061      0.08409497416847     -0.39322765216533
  C   -0.80691242981609      0.35056184727824     -0.31704280193533
  F   1.16840828537945      0.89409667135232     -1.38067885428433
  H   -1.17969317326313      0.35138385240179     -1.34196175789704
  N   1.39772834712289      0.47132640754054      0.89938361720965
  O   2.42947303373462      1.11204343910629      0.81444973718581
  O   0.87003246265975      0.01509210728189      1.90693695244914
  C   1.06801255270310     -1.34815946617077     -0.68743035665728
  H   0.77840359772479     -2.00742058956154      0.12891958596657
  H   2.15137639006692     -1.38366833502039     -0.81834735494965
  H   0.58492839156003     -1.67796808739633     -1.60686091190540
  N   -1.17890983495536      1.69421504026284      0.24863359714161
  O   -2.38234261500276      1.91274981949240      0.28263068205739
  O   -0.27236616523923      2.45504888317967      0.56302994918018
  N   -1.58966844309689     -0.71044401468078      0.40739538787418
  O   -1.89550554352003     -0.51682529951713      1.57379893805355
  O   -1.84040434623865     -1.69812724971753     -0.27762875732370
