17
Coordinates from ORCA-job run
  C   0.72890966961736      0.06523556502498     -0.27154751602944
  C   -0.77067568877594      0.33269139586837     -0.39330641729153
  F   1.32153584610328      1.03632077934665     -1.02049855483597
  H   -1.06217828811011      0.21016494837721     -1.43630570815078
  N   1.19980880923699      0.23252158387464      1.16495851522773
  O   0.56291659827646     -0.42818233163364      1.97772422678453
  O   2.18041328658850      0.92605597679836      1.36457895209844
  C   1.18261180802506     -1.29145037473602     -0.74336887248489
  H   0.78363834427265     -2.08230470322780     -0.11309609312376
  H   2.27403432734846     -1.30183030557614     -0.70803641214965
  H   0.85979056180590     -1.45086928483090     -1.77276087617910
  N   -1.12310164752084      1.73819297422572     -0.01783705914017
  O   -0.48946022819339      2.25498469786156      0.89397371766393
  O   -2.04813083921267      2.22869666529294     -0.65630887748932
  N   -1.65191265657832     -0.59637502879925      0.40307370199790
  O   -2.28938128245134     -0.12496468110572      1.33107206839157
  O   -1.65981862043205     -1.75088787676097     -0.00331479528948
