17
Coordinates from ORCA-job run
  C   0.67010617987080     -0.08633817945386     -0.39730879983073
  C   -0.74714717863435      0.48428005696123     -0.33251166366793
  F   0.89173409346365     -0.31631061593733     -1.73384851613074
  H   -0.82701701776529      1.35212074526685     -0.98366236921190
  N   1.62181621224797      1.06472681320891     -0.04680210699197
  O   2.62028400282773      0.79900375005860      0.60610528346734
  O   1.32412471988757      2.15648234159968     -0.52163428747042
  C   0.98099912668878     -1.32083093338659      0.38998478364325
  H   0.85205519191538     -1.14675144476761      1.45556941822247
  H   0.32437609586948     -2.12822962341369      0.07031099837530
  H   2.01604158010080     -1.59795966230758      0.19698767946422
  N   -1.17093902235830      0.90923065577157      1.04139033835630
  O   -0.29500078718008      1.01370425057154      1.89379323465434
  O   -2.36042972894925      1.16528001414414      1.16531822492085
  N   -1.73216178934118     -0.53519286303690     -0.81521234993779
  O   -2.00263343148217     -1.44518833685453     -0.03849052906377
  O   -2.16420824716155     -0.36902696842442     -1.94998933879883
