17
Coordinates from ORCA-job run
  C   0.72712037309659      0.06118426156084     -0.27647698937966
  C   -0.77064044156717      0.34506084843251     -0.38247251063657
  F   1.32344142768097      1.03620308658414     -1.01749023861816
  H   -1.07269439623616      0.23802994416799     -1.42417011876772
  N   1.21126267233077      0.20495362293047      1.15818874343942
  O   2.20136434085658      0.88483318076333      1.35796023634455
  O   0.57385865402841     -0.45877437471156      1.96803010357406
  C   1.16358982119336     -1.29342265972478     -0.76991213434934
  H   0.83083169117359     -1.43569146002792     -1.79865995450172
  H   0.76198036774347     -2.08876532354986     -0.14699966948154
  H   2.25510977670036     -1.31482092697925     -0.74383857969578
  N   -1.10494583118247      1.74951843923772      0.01263741288329
  O   -2.02758704463501      2.25896275288073     -0.61436055414701
  O   -0.46042414628434      2.24716445448548      0.92749412545656
  N   -1.65454413405158     -0.58453249969568      0.41027542314888
  O   -2.28168345543941     -0.11754239820708      1.34747878690320
  O   -1.67603967540794     -1.73436094814708     -0.00868408217246
