17
Coordinates from ORCA-job run
  C   0.76162185661904      0.20118603122177     -0.02503447694165
  C   -0.69550782428013      0.55399447940305      0.29727889730153
  F   1.31477214581894      1.36425012663363     -0.46830107074728
  H   -0.74395306708414      1.23099979172948      1.14740140743075
  N   1.40480537853959     -0.11189134721937      1.32236338023639
  O   0.78448145653373     -0.92477503458518      2.00210793215047
  O   2.46885399424887      0.42405759571963      1.58519084343789
  C   1.09426611531775     -0.92782289035827     -0.95974474303539
  H   0.62973722817992     -0.75436069107471     -1.92707204036955
  H   0.75439267648126     -1.88015807441854     -0.55988085237575
  H   2.18115215153836     -0.93810114107717     -1.06943627793167
  N   -1.59531004992667     -0.60569860770022      0.60800877343888
  O   -2.22065056743590     -0.52601737242256      1.65898981172576
  O   -1.65756744344432     -1.49742669023134     -0.23051270133168
  N   -1.33048292469523      1.28589452354813     -0.85560025623132
  O   -1.20203344649317      0.80210579379239     -1.97343473929368
  O   -1.94857767991791      2.30176350703930     -0.55232388746370
