17
Coordinates from ORCA-job run
  C   0.74629931408687      0.01573219729582     -0.27642935942380
  C   -0.74442443867751      0.33555754775896     -0.41862627699386
  F   1.41743768694393      0.87412121776729     -1.10104914260200
  H   -1.02895540669572      0.21424706606805     -1.46349784116447
  N   1.25164991257903      0.34992648664085      1.12497005126985
  O   1.00626736342120      1.48983576705392      1.50237409395116
  O   1.89631712316639     -0.50264465706019      1.71937909856420
  C   1.06593417600814     -1.40382250928743     -0.65315238194490
  H   2.14792292358154     -1.52915125778385     -0.64389305414396
  H   0.63032378648985     -2.11332679154599      0.04672565286668
  H   0.69637070345169     -1.59350564288749     -1.66289735610707
  N   -1.13344868700509      1.75470562437736     -0.05417494276347
  O   -0.75879892287892      2.59710945516880     -0.85488725679685
  O   -1.79338726156226      1.91673106152351      0.96048748785501
  N   -1.58744918507679     -0.58643002348515      0.39139129858880
  O   -2.67003919714998     -0.89144406277858     -0.09913836385309
  O   -1.14301989068237     -0.92864147882587      1.48341829269775
