17
Coordinates from ORCA-job run
  C   0.69348291260342     -0.08955001260274     -0.39675327193370
  C   -0.70106776608311      0.54199433094878     -0.38130283205733
  F   1.04635271280980     -0.18662781834103     -1.71788288050797
  H   -0.76247621584145      1.34966914808091     -1.10581966780546
  N   1.64777284515419      0.96463174839190      0.17297286697251
  O   1.37909277447869      2.12603870427518     -0.12063801609655
  O   2.62484274420854      0.57226384333430      0.79401151170161
  C   0.85443547373245     -1.41931782762622      0.27095236025662
  H   0.55722114052618     -1.37255784896812      1.31589764471190
  H   0.24346249980578     -2.15405225595570     -0.25499103399232
  H   1.89919034770251     -1.71737179184205      0.20382082797889
  N   -1.10954257773342      1.09116305251774      0.94720574384787
  O   -2.12140709538885      1.78059804114673      0.92289923168086
  O   -0.43121840027883      0.80238913491537      1.92737898649950
  N   -1.71146621978984     -0.50186248906813     -0.76221119147268
  O   -1.86211015552115     -0.66602455618456     -1.96669686451354
  O   -2.24656502038490     -1.11938340302234      0.15115658472978
