17
Coordinates from ORCA-job run
  C   0.74697755724068      0.01774228295394     -0.27438232132888
  C   -0.74418684650449      0.33454691924960     -0.41968528524830
  F   1.41837117985451      0.87923991096681     -1.09569478114461
  H   -1.02613577218866      0.21334584434194     -1.46528176850652
  N   1.24800565079292      0.35036761368873      1.12899278491711
  O   1.89269601194804     -0.50206354231052      1.72356599922871
  O   0.99939492169893      1.48912033402653      1.50778681523676
  C   1.07104216398928     -1.40016723343439     -0.65328821625190
  H   2.15321837812623     -1.52339525114025     -0.63973694003959
  H   0.63363338575818     -2.11244480713052      0.04262214344534
  H   0.70620036868595     -1.58747590557425     -1.66519456290017
  N   -1.13703632984736      1.75220048851860     -0.05455602823352
  O   -0.76320174418145      2.59641578132661     -0.85376610960016
  O   -1.79851498129507      1.91174347776437      0.95952799780297
  N   -1.58762138171561     -0.59002197308731      0.38735410146064
  O   -1.14385723822512     -0.93590992809506      1.47845455199757
  O   -2.66998532413696     -0.89324401206485     -0.10471838083545
