15
Coordinates from ORCA-job run
  C   -0.77733795618101     -0.14909894392714      0.20755119423986
  C   0.64739077044621     -0.57469862535329      0.55219843050005
  H   -1.46274557403366     -0.73023954397192      0.85705280423488
  H   0.72254085736663     -1.66022736178951      0.41056219263609
  H   0.80507761845714     -0.40117937686910      1.62416135252084
  N   -1.03517340553081     -0.41062946526998     -1.20537611927623
  H   -0.97763656615460     -1.41039538228732     -1.36581660972461
  H   -1.98202173205730     -0.13142242430276     -1.43933733261071
  N   -0.92394567371403      1.28622512719333      0.43025313924928
  H   -0.78851400932186      1.47670256309926      1.41714744144519
  H   -1.87019004916171      1.57412066867128      0.20452398268839
  C   1.71262938062127      0.14496788340954     -0.26686168689316
  H   1.65083077683313      1.22171895138600     -0.11202734877100
  H   2.71212105968103     -0.19454004079345      0.01740356918369
  H   1.56797450274957     -0.04230402919495     -1.33043500942255
