15
Coordinates from ORCA-job run
  C   -0.65414120389635     -0.10006154449826     -0.32018162373852
  C   0.70832827471907     -0.64950675267312      0.07845502760984
  H   -0.61020068071333      0.19175454814448     -1.38268465918251
  H   0.62611224445355     -1.03830117099143      1.09979652880088
  H   0.91547790069928     -1.49901030793714     -0.57765961239993
  N   -1.00409991980813      1.02554012538911      0.55559941966605
  H   -0.34607468240967      1.78741528866732      0.43141835031976
  H   -1.91527138082399      1.38097847898443      0.28594480910776
  N   -1.63685919938170     -1.16400494840616     -0.22904135162323
  H   -2.51641837964986     -0.86580098578571     -0.63544661563027
  H   -1.80573961087484     -1.34867742052698      0.75464652966134
  C   1.83690421842711      0.37417134215626     -0.00028091198261
  H   1.73184096099335      1.14867571900257      0.76286858897545
  H   2.80720936816782     -0.10186491798719      0.15737975669371
  H   1.86393209009769      0.85769254646182     -0.98181423627773
