15
Coordinates from ORCA-job run
  C   -0.62061540173458      0.03375304812702     -0.27746098527360
  C   0.66960822826218     -0.60146267250585      0.22629714858384
  H   -0.49383760285835      0.27271897057598     -1.34581898121214
  H   0.78915688899311     -1.58214799911813     -0.25015505397751
  H   0.54914477445881     -0.78815580499961      1.29958927260502
  N   -0.84286740958149      1.29859480179519      0.40054680093092
  H   -1.58364939592976      1.81684039710098     -0.05738907116657
  H   -1.15984097091628      1.08799891361028      1.34201992272997
  N   -1.72775972808207     -0.89858222004789     -0.03462100220001
  H   -2.57034256480577     -0.54766048094349     -0.47740724502789
  H   -1.52349811788311     -1.80066655099384     -0.45175230920093
  C   1.89596877004770      0.26138132683463     -0.04014559670319
  H   1.77518077152168      1.24068282068159      0.42185142374192
  H   2.80076442342118     -0.20655057857169      0.35524030293945
  H   2.04058733508675      0.41225602845483     -1.11379462676927
