14

C	0.0	0.0	0.0
C	-0.498721	0.143595	-1.436106
Cl	1.830813	0.0	0.0
H	-1.598255	0.165794	-1.364868
H	-0.211603	-0.738755	-2.015
N	-0.45772	1.118294	0.760503
H	-1.481201	1.065781	0.736847
H	-0.153497	1.030832	1.723105
N	-0.463979	-1.255822	0.490633
H	-0.323973	-1.343622	1.487345
H	-0.042657	-2.038248	0.00673
C	0.003086	1.336534	-2.107999
N	0.379195	2.278568	-2.697614
Cl	-3.696971	0.0	0.0
