14

C	0.0	0.0	0.0
C	-0.23066	0.580512	-1.424682
Cl	1.840458	0.0	0.0
H	0.087823	1.625456	-1.381175
H	0.470742	0.052681	-2.07358
N	-0.459746	0.920269	0.998884
H	-1.477228	0.954323	0.863768
H	-0.302715	0.509375	1.914269
N	-0.4294	-1.371176	0.044394
H	-0.197771	-1.751686	0.956311
H	-1.452813	-1.328068	-0.011218
C	-1.500839	0.52785	-2.155272
N	-2.279399	0.571798	-3.034583
Cl	-3.481074	0.0	0.0
