14

C	0.0	0.0	0.0
C	-0.447151	0.089331	-1.46956
Cl	1.804215	0.0	0.0
H	-0.105965	1.03986	-1.888079
H	-1.543685	0.08608	-1.461243
N	-0.435766	1.123699	0.794352
H	-1.457378	1.086303	0.798587
H	-0.143662	1.996814	0.368891
N	-0.461575	-1.24588	0.536326
H	-1.475645	-1.256233	0.401308
H	-0.294715	-1.218807	1.53765
C	0.04369	-0.995596	-2.312826
N	0.415185	-1.843285	-3.033745
Cl	-3.563429	0.0	0.0
