14

C	0.0	0.0	0.0
C	-0.444183	-0.064239	-1.471959
Cl	1.804217	0.0	0.0
H	-0.091907	-1.002155	-1.909049
H	-1.541609	-0.072242	-1.460411
N	-0.460982	1.235043	0.556649
H	-1.47646	1.247524	0.429068
H	-0.284262	1.19992	1.555884
N	-0.433673	-1.137392	0.773763
H	-0.14183	-2.003587	0.332719
H	-1.455836	-1.099632	0.777809
C	0.03524	1.045455	-2.289413
N	0.397717	1.914069	-2.990676
Cl	-3.556189	0.0	0.0
