14

C	0.0	0.0	0.0
C	-0.163441	0.001176	-1.555454
Cl	1.854175	0.0	0.0
H	0.375281	0.877869	-1.928755
H	0.381557	-0.86609	-1.939032
N	-0.559495	1.088672	0.71068
H	-0.340093	1.963519	0.250544
H	-1.582448	0.936137	0.665067
N	-0.495413	-1.190801	0.548011
H	-0.614851	-1.121437	1.547987
H	0.015728	-2.014102	0.275305
C	-1.461964	-0.010149	-2.234562
N	-2.287311	-0.047578	-3.068638
Cl	-3.655143	0.0	0.0
