14

C	0.0	0.0	0.0
C	-0.491663	-0.16574	-1.437011
Cl	1.837986	0.0	0.0
H	-1.590441	-0.174227	-1.35669
H	-0.131747	-1.118221	-1.828591
N	-0.44382	1.25442	0.505975
H	-0.218962	1.354758	1.486595
H	-0.061366	2.03547	-0.012625
N	-0.464663	-1.128695	0.749349
H	-0.155554	-1.042425	1.712913
H	-1.489477	-1.047693	0.734816
C	-0.072056	0.926268	-2.306801
N	0.252628	1.81088	-3.006848
Cl	-3.665802	0.0	0.0
