14

C	0.0	0.0	0.0
C	-0.440579	0.318858	-1.423225
Cl	1.917454	0.0	0.0
H	-0.051647	-0.445648	-2.096977
H	-1.540812	0.278021	-1.392614
N	-0.408572	1.025291	0.879323
H	-0.271933	0.775286	1.847776
H	0.016217	1.919488	0.67543
N	-0.463066	-1.301164	0.336171
H	-1.489063	-1.224506	0.319687
H	-0.179686	-1.529328	1.283131
C	-0.0143	1.640834	-1.864446
N	0.331315	2.707764	-2.211811
Cl	-3.625064	0.0	0.0
