14

C	0.0	0.0	0.0
C	-0.464637	0.203138	-1.448401
Cl	1.848352	0.0	0.0
H	-1.563878	0.204955	-1.378042
H	-0.110195	1.168685	-1.817204
N	-0.460312	1.009328	0.901533
H	-0.207475	1.929764	0.563997
H	-1.482807	0.920834	0.904413
N	-0.477798	-1.234752	0.474838
H	-0.160567	-2.022969	-0.069318
H	-0.265216	-1.345505	1.455686
C	-0.023075	-0.849719	-2.354055
N	0.315808	-1.706542	-3.081439
Cl	-3.660082	0.0	0.0
