14

C	0.0	0.0	0.0
C	-0.462975	-0.227421	-1.446931
Cl	1.84333	0.0	0.0
H	-1.56238	-0.183181	-1.392279
H	-0.098009	0.56747	-2.103575
N	-0.474119	1.26232	0.419407
H	-0.080122	2.022315	-0.115466
H	-0.303542	1.385133	1.407876
N	-0.465452	-0.966757	0.943047
H	-0.192543	-1.89851	0.651353
H	-1.489181	-0.888856	0.921585
C	-0.034754	-1.518254	-1.969542
N	0.296475	-2.563408	-2.389168
Cl	-3.667742	0.0	0.0
