13

C	0.0	0.0	0.0
C	-0.521379	0.243897	-1.407428
F	1.393941	0.0	0.0
H	-1.616091	0.150643	-1.358747
H	-0.317963	-0.99303	0.328495
H	-0.272915	1.262129	-1.723502
C	-0.486646	1.056975	0.960793
H	-1.578418	1.049083	0.973502
H	-0.107122	0.850997	1.964369
H	-0.122757	2.039556	0.645226
C	0.037898	-0.694371	-2.376832
N	0.500949	-1.444625	-3.150803
Cl	-3.741625	0.0	0.0
