13

C	0.0	0.0	0.0
C	-0.509306	0.176524	-1.423777
F	1.391731	0.0	0.0
H	-0.194923	-0.671754	-2.038933
H	-0.327062	-0.981332	0.354216
H	-1.607238	0.186373	-1.379086
C	-0.472494	1.090118	0.93213
H	-1.564462	1.133149	0.927574
H	-0.124748	0.878584	1.946382
H	-0.056483	2.050404	0.615536
C	-0.007993	1.405017	-2.033726
N	0.407664	2.389305	-2.519603
Cl	-3.743996	0.0	0.0
