13

C	0.0	0.0	0.0
C	-0.509586	0.33544	-1.39456
F	1.391776	0.0	0.0
H	-1.607523	0.334238	-1.341117
H	-0.33243	-1.012788	0.242397
H	-0.192069	-0.432475	-2.105821
C	-0.473119	0.978649	1.047583
H	-0.083295	1.975787	0.827849
H	-0.106314	0.670838	2.029763
H	-1.564225	0.992826	1.054333
C	-0.01622	1.629214	-1.862427
N	0.394658	2.659525	-2.246869
Cl	-3.728389	0.0	0.0
