12

C	-0.319313	0.097724	0.020305
C	-0.597274	0.035194	-1.492305
Br	1.369537	-0.810731	0.452775
H	-0.657194	-1.022727	-1.753934
H	-1.118573	-0.448513	0.537696
H	0.242823	0.484349	-2.03246
C	-0.229289	1.473072	0.486009
N	-0.167165	2.603235	0.803757
N	-1.842143	0.670644	-1.868389
H	-1.848526	1.639017	-1.569054
H	-2.592498	0.179012	-1.383956
Cl	-3.240374	-1.483396	0.282708
