12

C	-0.315655	0.104896	-0.01289
C	-0.596333	-0.317618	-1.465953
Br	1.362596	-0.69308	0.62909
H	-0.666706	-1.406798	-1.465464
H	-1.120866	-0.289681	0.620248
H	0.247511	-0.020228	-2.097461
C	-0.207947	1.550781	0.107722
N	-0.134081	2.723303	0.150363
N	-1.835512	0.220786	-1.984921
H	-2.589383	-0.131536	-1.395761
H	-1.831651	1.232826	-1.928516
Cl	-3.257693	-1.325033	0.622196
