15
Coordinates from ORCA-job run
  C   0.53045432846816     -0.13732771663737     -0.84386959173261
  C   -0.78246590884319      0.18675559124104     -0.08923114602373
  Cl  0.30766378209164     -1.55502379694012     -1.86080701725385
  H   -1.55428991713589      0.22865589673848     -0.86630188064123
  C   0.98327834312836      0.98316876588119     -1.65605093382220
  N   1.30880411670858      1.88126696819795     -2.34151908422945
  N   1.61080082912898     -0.41706640473274      0.22698771211080
  O   2.08927251639965      0.59465904586252      0.72293193755518
  O   1.82501707867314     -1.57689451084223      0.53291740813029
  C   -0.70585130347218      1.51105326042340      0.53072329194377
  N   -0.70122476249044      2.56128376149789      1.05695133208969
  C   -1.15169782281022     -0.87423434739327      0.95189630139594
  H   -0.45972147297964     -0.85384371990036      1.79463087420105
  H   -1.14612213585262     -1.87026291778184      0.50998996016303
  H   -2.15291767101434     -0.66318987561455      1.32975083611332
