15
Coordinates from ORCA-job run
  C   0.49547958370425      0.00844312721081     -0.86534302160781
  C   -0.81118641484235     -0.14116917560723     -0.06655706046987
  Cl  0.19889761211743     -0.14240088564261     -2.59711556957744
  H   -1.24804471024600     -1.09326765578742     -0.38628965598504
  C   1.17323645979785      1.26287466436751     -0.57439373118221
  N   1.66228041711450      2.30305614030255     -0.32685948111119
  N   1.39620186527274     -1.16637342492459     -0.42998382780732
  O   0.92198134591546     -2.27662746981674     -0.61326265950405
  O   2.46567164919078     -0.88630634534615      0.09247738096649
  C   -1.71971603564007      0.94198968851663     -0.43898262534207
  N   -2.45941125367379      1.81620661543195     -0.69915488054144
  C   -0.55705686863041     -0.15216296797108      1.44405579835851
  H   0.05279143515040     -1.01125944339484      1.72810759163171
  H   -0.06021140966830      0.76502859138901      1.76570933176479
  H   -1.51091367556250     -0.22803145872778      1.96759241040694
