15
Coordinates from ORCA-job run
  C   0.70744921556936     -0.36885258920273     -0.38203770559236
  C   -0.44789708573466      0.35686232966185      0.33866041035905
  Cl  0.91013814511884     -2.01545795014044      0.17750951248145
  H   -0.44282941954210      1.37931604012615     -0.05570311651966
  C   0.50396873571606     -0.33906691473314     -1.82493431338449
  N   0.29874483954810     -0.32163364298267     -2.98245592061346
  N   1.99294427068805      0.46409372611588     -0.09041255876501
  O   2.86238625492527     -0.02529780844717      0.60415835490681
  O   1.95861877421682      1.58231080031128     -0.58648879620412
  C   -0.15309616072388      0.42446516912469      1.77056762840889
  N   0.05509099769364      0.47955737280175      2.92513566522623
  C   -1.80724909923922     -0.29147837389701      0.07353226833561
  H   -2.58565949578864      0.29514600907827      0.56346628143021
  H   -1.84030314316247     -1.30732276294312      0.46625064732952
  H   -2.01330682928517     -0.31164140487358     -0.99824835739866
