15
Coordinates from ORCA-job run
  C   0.53786310915323     -0.00649709754614     -0.83943797740420
  C   -0.80745910626683     -0.13642089591982     -0.10434710978738
  Cl  0.32583517854172     -0.17930624963051     -2.58192241325793
  H   -1.23366916770606     -1.09087601995001     -0.43139647675506
  C   1.21002300644378      1.24718296918301     -0.53336268893789
  N   1.69499033540750      2.28724298575449     -0.27727499011993
  N   1.40718264429833     -1.18127313622738     -0.34504769865093
  O   2.45231372592546     -0.90155032206077      0.22476947350878
  O   0.93369275927572     -2.29058793467430     -0.53551726104851
  C   -1.69084966236436      0.94523185101596     -0.53620813829969
  N   -2.41397746671096      1.81790259056270     -0.84390986191100
  C   -0.62817956312927     -0.12689488299382      1.41704467535192
  H   -0.14027014967126      0.79119988968408      1.74971663346610
  H   -0.04013913697084     -0.98632407740964      1.74317232097584
  H   -1.60735650622618     -0.18802966978787      1.89372151286987
