15
Coordinates from ORCA-job run
  C   0.75822227970800     -0.29806071258361     -0.34535944426347
  C   -0.49702298455682      0.31657723332329      0.30820297552023
  Cl  1.14828891157276     -1.87212744201237      0.31490219383420
  H   -0.60745872539055      1.30855237018079     -0.14440732652946
  C   0.59150956254768     -0.37626568669333     -1.79108100417524
  N   0.41441924174058     -0.44887084424265     -2.95112520735014
  N   1.92213357244492      0.70424541020560     -0.07872495262168
  O   2.82619827080410      0.36797651576537      0.66128123086730
  O   1.76307895058003      1.77923967049202     -0.64137157527014
  C   -0.25254147283126      0.49877636128266      1.73968472984962
  N   -0.08570813204079      0.64316901969901      2.89334283056223
  C   -1.75842656480394     -0.50990640934105      0.05381151937034
  H   -2.61576673143706      0.00023224458891      0.49531725245673
  H   -1.67527143757628     -1.49949331759344      0.50244504878450
  H   -1.93265474076138     -0.61304441307121     -1.01891827103502
