15
Coordinates from ORCA-job run
  C   0.54296333158190     -0.14876028828819     -0.83475949372302
  C   -0.77803671948194      0.19955192242358     -0.10559370541545
  Cl  0.31459809645049     -1.56487178809302     -1.85252212400027
  H   -1.53557806014798      0.24863900364952     -0.89610115581251
  C   1.03173758396770      0.96169885557106     -1.63967838701398
  N   1.38340583258930      1.85262213608797     -2.32173672946565
  N   1.59704583914139     -0.44581912299661      0.25880260787599
  O   1.79067783363374     -1.60884087754981      0.56551694402587
  O   2.07677081994376      0.55886893308717      0.76755031650335
  C   -0.69308694611856      1.52545179839739      0.50966403867592
  N   -0.68118109656884      2.57712202035638      1.03259058544375
  C   -1.18065429647604     -0.85014187200524      0.93447864404194
  H   -2.18396112066085     -0.62085060052716      1.29585294488640
  H   -0.50148588714158     -0.83594923122984      1.78774538727388
  H   -1.18421521071248     -1.84872088888321      0.49819012670377
