15
Coordinates from ORCA-job run
  C   0.58970084366998      0.03086220711440     -0.80276580304490
  C   -0.79827652965481     -0.14074886140418     -0.16093935894985
  Cl  0.49187947677769     -0.07884742717358     -2.56028958148857
  H   -1.19105625799209     -1.08572880255848     -0.55120041875921
  C   1.22464659665448      1.27947819552212     -0.40830540738613
  N   1.67897359387472      2.31541432137285     -0.08743369285594
  N   1.44070726171083     -1.15210039622886     -0.29609698372807
  O   2.44174274144311     -0.88227422457244      0.35218743027431
  O   0.99606484818423     -2.25868276157117     -0.55824637048861
  C   -1.66389148451064      0.94909349159800     -0.60803331539934
  N   -2.37278751954258      1.82818122578585     -0.93027841348278
  C   -0.71593181785197     -0.18934234856169      1.36801596274206
  H   -0.25496424633332      0.71646987980860      1.76635770331459
  H   -1.72278621499928     -0.27150416922406      1.77937514966162
  H   -0.14502129143036     -1.05927032990733      1.69665309959082
