15
Coordinates from ORCA-job run
  C   0.57680121910144      0.04343324212281     -0.81080523922834
  C   -0.80373686944932     -0.11657116077453     -0.15114988656037
  Cl  0.44729732896927     -0.00182206655831     -2.56919873468848
  H   -1.22554122781333     -1.03911323690130     -0.56416333990575
  C   1.25031520990635      1.26056969896519     -0.38388776328008
  N   1.73564740875532      2.27200457787067     -0.03179220612753
  N   1.40661575158597     -1.17813802772745     -0.36184303496944
  O   2.42675278452849     -0.95694889564686      0.27498212992245
  O   0.92971016478937     -2.26325523721109     -0.65533399667348
  C   -1.65144168376560      1.00618466370771     -0.54882365114234
  N   -2.34535148214278      1.91047934659126     -0.83141356985439
  C   -0.69808364692634     -0.21381665169424      1.37379740359322
  H   -0.22111564076329      0.67457459284594      1.79160355197935
  H   -1.69925841385413     -0.29771803895517      1.79842583737121
  H   -0.13161090292142     -1.09886280663463      1.66760249956398
