15
Coordinates from ORCA-job run
  C   0.62999926036167      0.02758914743961     -0.77142900158645
  C   -0.79168844954043     -0.12220273049258     -0.20189379076927
  Cl  0.61742430221421     -0.05533571323686     -2.53316530523647
  H   -1.18392764898747     -1.05404959161243     -0.62306208080990
  C   1.27045019601243      1.25637271199038     -0.32706718133999
  N   1.72853776399285      2.27696198070919      0.03489850364237
  N   1.42955378349697     -1.18038403774929     -0.24175763170419
  O   0.97557371798181     -2.27326137404303     -0.54303668300564
  O   2.40391178459361     -0.94207023251720      0.45763930709492
  C   -1.61140234630273      0.99100182169010     -0.67724951884532
  N   -2.28476210077174      1.88910342744378     -1.02232104783909
  C   -0.78749016584316     -0.18923461944725      1.32841649540725
  H   -0.24436314574316     -1.06946552352627      1.67617433575943
  H   -1.81494609331544     -0.26352266720805      1.68698538789055
  H   -0.33687085814939      0.70649740055988      1.75986821134180
