15
Coordinates from ORCA-job run
  C   0.53058967759921     -0.16331732807679     -0.83838899199449
  C   -0.77815857232670      0.20162539636057     -0.09530441509449
  Cl  0.28188041616605     -1.59434033761677     -1.83051024276187
  H   -1.54570864671319      0.24584645490661     -0.87653415454733
  C   1.00928290912121      0.93270882229750     -1.66888085189632
  N   1.35292175672118      1.81127916344319     -2.37074701421792
  N   1.60086857016620     -0.44670523675156      0.24170364098493
  O   2.10126643101685      0.56320072857094      0.71951497435511
  O   1.78786048569639     -1.60503546310453      0.57021161052501
  C   -0.67576814834420      1.53495719477830      0.50092482161272
  N   -0.64763924064493      2.59394329093897      1.00841458077751
  C   -1.17390333419616     -0.83254618384479      0.96294605300989
  H   -1.18675106155370     -1.83638688316167      0.53915979390356
  H   -0.48539862243884     -0.81092357232585      1.80853811625019
  H   -2.17234262026937     -0.59430604641413      1.33195207909349
