15
Coordinates from ORCA-job run
  C   0.65357662806766     -0.33632112173563     -0.49246970627074
  C   -0.39775584202999      0.31291788585571      0.43188154589243
  Cl  0.72501631671488     -2.07514773731603     -0.29924043114077
  H   -0.31417307344255      1.39178159701945      0.25850145551497
  C   0.39289828820387      0.01414096387595     -1.88295680997894
  N   0.14078215128051      0.29357452977762     -2.99679860590779
  N   2.02162874938926      0.30737505509530     -0.11333161957573
  O   2.07041491093434      1.50413898290915     -0.36434224999753
  O   2.87014420796112     -0.38750604466131      0.41118970066294
  C   -0.03763878505106      0.05059907171129      1.82593619578682
  N   0.22376235284164     -0.15781326876150      2.95184963335027
  C   -1.82165726355101     -0.15080064374228      0.12155330303278
  H   -2.52066809158473      0.38386358658912      0.76623039697943
  H   -1.93328081047738     -1.21977585028711      0.30054445639555
  H   -2.07304973925655      0.06997299367025     -0.91754726474370
