15
Coordinates from ORCA-job run
  C   0.64689462601118     -0.31019981868215     -0.51758468286443
  C   -0.39079838550536      0.28677809534196      0.45579632763000
  Cl  0.68280667541603     -2.06001638893322     -0.45948852772763
  H   -0.28406827319865      1.37386696529396      0.36747918989971
  C   0.39319739676493      0.15118062610256     -1.87669917795308
  N   0.14629595352217      0.51710457658061     -2.96638450925029
  N   2.02792653331260      0.27422324769025     -0.09247252358985
  O   2.10199290084876      1.48516991649319     -0.25267871351325
  O   2.86143699454554     -0.47603094229507      0.37692575929479
  C   -0.03809796557157     -0.09155322383420      1.82488554077160
  N   0.21510691032541     -0.39191791814539      2.93174419412241
  C   -1.82412877910691     -0.12067786709157      0.11162322487431
  H   -1.95782597096105     -1.19811407940542      0.20415932760785
  H   -2.07089994336953      0.18779806830936     -0.90599841801080
  H   -2.51183867303353      0.37438874257513      0.79869298870864
