15
Coordinates from ORCA-job run
  C   0.56667633558527      0.06387763623588     -0.81877636939007
  C   -0.80817733783947     -0.09388131317031     -0.14554957290281
  Cl  0.41106518335447      0.08889700014606     -2.57533503805549
  H   -1.25607755688804     -0.98862976436159     -0.59090894590708
  C   1.26815683990342      1.25146249309164     -0.35488563119165
  N   1.77252016646311      2.24008690691359      0.03314981937303
  N   1.37705290328789     -1.18882425860149     -0.42791323775744
  O   0.87383589646588     -2.25237468667502     -0.75455195543468
  O   2.40947948984556     -1.01209539425895      0.20309119523248
  C   -1.63437659074090      1.06464142918241     -0.48070428776839
  N   -2.30682564922362      2.00034444945125     -0.70761369048183
  C   -0.68259111825811     -0.26015336012985      1.37208968359835
  H   -1.67915981150322     -0.33034129828739      1.80955593529642
  H   -0.14145121306437     -1.17522896730784      1.61757626576013
  H   -0.17012753738787      0.59321912777162      1.81977582962902
