15
Coordinates from ORCA-job run
  C   0.59097320939853     -0.12496358846471     -0.75144061457726
  C   -0.75022960437972      0.16695305800418     -0.03796414028836
  Cl  0.54096728833936     -1.67002324142567     -1.61427357173405
  H   -1.44464209329123      0.39304277782720     -0.85692551838295
  C   0.88978805423934      0.94541629911106     -1.69648553774716
  N   1.04618945033216      1.81917480530420     -2.46761407761212
  N   1.76296433194055     -0.21115413974492      0.24712479847876
  O   1.52308056659860     -0.77066208904756      1.30590376358285
  O   2.83057605800498      0.25065753694908     -0.12686744090156
  C   -0.57646325991578      1.39793255179885      0.73790682535209
  N   -0.43727798410575      2.37183016770766      1.37958610532993
  C   -1.36781312674679     -0.94465742613408      0.81727991177517
  H   -0.77483237873533     -1.14338298084783      1.70496330977044
  H   -1.47105330763643     -1.86078394674335      0.23673652110492
  H   -2.36422720404251     -0.61737978429411      1.12006966584930
