15
Coordinates from ORCA-job run
  C   0.55733111997103     -0.14751364361747     -0.82418227155176
  C   -0.78304228124846      0.17323994988660     -0.11755910115210
  Cl  0.38556458648373     -1.58898377147313     -1.81729902447688
  H   -1.53125287459728      0.18379675132675     -0.91838914025400
  C   1.02112635852941      0.96199699891489     -1.64508325034235
  N   1.35715727958837      1.84864249957397     -2.34045339606778
  N   1.60682166761576     -0.39019539390879      0.28611860222447
  O   2.04732191686876      0.63862180538020      0.78231204227933
  O   1.83517290566798     -1.54060581797315      0.61590611470339
  C   -0.74553172223187      1.51283752270899      0.47212943711448
  N   -0.76760920278624      2.57587440158453      0.97127703541991
  C   -1.16642607229881     -0.86936383330114      0.93692790299733
  H   -2.18112288423397     -0.66536559588242      1.28131061193906
  H   -1.13324920595302     -1.87513486010194      0.51863879899488
  H   -0.49926159137539     -0.81884701311788      1.79834563817205
