15
Coordinates from ORCA-job run
  C   0.54460622040727     -0.13067919129059     -0.83648100965341
  C   -0.78498605801634      0.17680542192666     -0.10345451138127
  Cl  0.35490605744448     -1.54867854881727     -1.85965448512765
  H   -1.54464150116197      0.20583253746664     -0.89296926938080
  C   0.99979850313745      0.99690185375451     -1.63697641132726
  N   1.32697238791400      1.90424264438526     -2.30964093721133
  N   1.60878266539189     -0.40161679157921      0.25343858813628
  O   1.83540556329032     -1.55988926931112      0.55575506251860
  O   2.06195098739390      0.61423749185152      0.76444349413020
  C   -0.73559263896888      1.50352462299435      0.51389277346962
  N   -0.74504815913333      2.55573985005097      1.03582196865938
  C   -1.15435583371111     -0.88743528829737      0.93412596977135
  H   -1.12408145083476     -1.88455081927672      0.49547761780654
  H   -0.47740058825335     -0.85253474572433      1.78862336423815
  H   -2.16531615489954     -0.69289976813330      1.29459778535159
