15
Coordinates from ORCA-job run
  C   0.76085684531087     -0.28019753922895     -0.35317184599640
  C   -0.50392707668482      0.31138359675390      0.30340225633088
  Cl  1.26969467198549     -1.77214263594855      0.40936825416330
  H   -0.69183880710732      1.25546796690193     -0.22037375091444
  C   0.54532302360273     -0.48250832516759     -1.78036616430940
  N   0.33211797623164     -0.65867897111427     -2.92310912169727
  N   1.87100227663378      0.80524161843515     -0.21363691959021
  O   2.82043277123358      0.58149083532923      0.51201261707148
  O   1.62646892848869      1.82105624355511     -0.85075719390389
  C   -0.21641336414246      0.62167991761044      1.70444098698424
  N   -0.01298240502640      0.86629038455626      2.83502141163599
  C   -1.72109575069126     -0.60468689782639      0.16836944796367
  H   -1.56271056969797     -1.54636003287542      0.69320621176559
  H   -1.92605460316851     -0.80787273301584     -0.88439692964727
  H   -2.59187391696803     -0.10916342796503      0.59999074014372
