15
Coordinates from ORCA-job run
  C   0.61260512506315     -0.12844370254726     -0.73220361385049
  C   -0.75241334354299      0.14754411782288     -0.05843932415410
  Cl  0.62571985077079     -1.69990696973927     -1.54767074633037
  H   -1.43202003131706      0.34086934069885     -0.89793706267614
  C   0.90523918333584      0.91950983911646     -1.70398801716138
  N   1.05762165080315      1.76773639180119     -2.50391533023120
  N   1.76131619105187     -0.15112583111103      0.29669210417368
  O   2.82038365790111      0.34349732355741     -0.05898565635921
  O   1.51477252362233     -0.69774483719078      1.36044578624616
  C   -0.62507672784829      1.39781480172298      0.69532478267164
  N   -0.52393174524027      2.38754885840735      1.31967316373345
  C   -1.36498845988890     -0.96081320932843      0.80447347627357
  H   -1.45128129836679     -1.88478205275482      0.23374988409014
  H   -2.36840379686187     -0.64238287218438      1.09338359034507
  H   -0.77854277948208     -1.14132119827117      1.70039696322921
