15
Coordinates from ORCA-job run
  C   0.56033200218494     -0.03484832351080     -0.82311594584291
  C   -0.80841899021437     -0.11574950651814     -0.12492729476716
  Cl  0.39208064378435     -0.22601750474813     -2.56855104786577
  H   -1.25255152294721     -1.06250351435852     -0.45033658449775
  C   1.25948031692682      1.20353241173686     -0.51478580203440
  N   1.76551988872359      2.23369505134211     -0.25951904092288
  N   1.38153963644728     -1.22660585794287     -0.28897837515833
  O   2.41812342407165     -0.96865899973643      0.30624670939522
  O   0.88273388514726     -2.32493242900669     -0.47888390080787
  C   -1.64634471058986      0.98496381239959     -0.59745844220394
  N   -2.33118431508679      1.87576102188490     -0.93881914674584
  C   -0.67158147803646     -0.08823889581406      1.40060469630219
  H   -1.66491463152590     -0.11557762289913      1.85031934767337
  H   -0.11650611378274     -0.95810181082288      1.75543241531083
  H   -0.16830803510255      0.82128216799420      1.73377241216525
