15
Coordinates from ORCA-job run
  C   0.52599745633058     -0.14444933985969     -0.84403997500645
  C   -0.78179455868052      0.19106747752288     -0.08542046024836
  Cl  0.28938671773726     -1.56407519046086     -1.85526549152729
  H   -1.55681737424626      0.23338128814494     -0.85928961622786
  C   0.98444928839275      0.96982941677145     -1.66140387647419
  N   1.31043006481847      1.86622115224286     -2.34907184479923
  N   1.60828245104821     -0.42880936250342      0.22434276148420
  O   1.81910495433540     -1.58937270729371      0.52960619567533
  O   2.09165078150900      0.58134200286916      0.71881263217104
  C   -0.69528875902241      1.51862045568055      0.52593682966661
  N   -0.68272505140561      2.58189257531715      1.02493711300304
  C   -1.15187958364340     -0.86342507582527      0.96196612322270
  H   -1.15398408082570     -1.86154017521921      0.52463622524322
  H   -0.45572440324223     -0.84328597178977      1.80134465357409
  H   -2.15008790310555     -0.64539654559706      1.34390873024315
