15
Coordinates from ORCA-job run
  C   0.54217674778025     -0.13883690844341     -0.83556253661780
  C   -0.77861646883572      0.19844017358195     -0.10083033703796
  Cl  0.31817690855341     -1.54757370899878     -1.86468142604794
  H   -1.53616467744090      0.25817623116654     -0.89075681168150
  C   1.02345537880925      0.98028751296579     -1.63303290058531
  N   1.37099375396600      1.87797596343330     -2.30822692433169
  N   1.60129361378057     -0.43986937811191      0.25166772683247
  O   1.79209199584326     -1.60416906203184      0.55588746331152
  O   2.08940835139050      0.56200723503705      0.75809713152505
  C   -0.69229925256319      1.51660644568245      0.53075293368198
  N   -0.67722732123494      2.56195744076583      1.06629946547735
  C   -1.18133924733573     -0.86475892224719      0.92541028483010
  H   -1.18382015017214     -1.85738813861630      0.47579432182004
  H   -0.50298343874809     -0.86152173962124      1.77935978675331
  H   -2.18514619379252     -0.64133314456225      1.28882182207038
