15
Coordinates from ORCA-job run
  C   0.60188601995303      0.03929920162806     -0.79465564597765
  C   -0.80140846688167     -0.09648158009310     -0.17836278194162
  Cl  0.52387529808700      0.01548654363210     -2.55637191175890
  H   -1.23222351053552     -1.00302030891271     -0.61656680159450
  C   1.28828504993987      1.23671626425670     -0.33377216721042
  N   1.78420530965582      2.23269610681523      0.04643092243755
  N   1.39010231059563     -1.20474354778670     -0.33396218490668
  O   0.89751887867429     -2.27556453681265     -0.65262832648147
  O   2.39375159400854     -1.01304534268624      0.33764388850163
  C   -1.60844918613880      1.05365831971783     -0.58188845524749
  N   -2.26756499788654      1.98409921784148     -0.86307447887427
  C   -0.74344730758118     -0.21811150356877      1.34766406807486
  H   -1.75872317542848     -0.28258980978328      1.74108465931000
  H   -0.25684388028070      0.65155721796883      1.79310184208252
  H   -0.20896393618131     -1.12195624221679      1.64435737358643
