15
Coordinates from ORCA-job run
  C   0.62957281664611      0.06559420898367     -0.77021150586362
  C   -0.79666540971377     -0.06673996716956     -0.20801153829145
  Cl  0.61099573716241      0.13593714277678     -2.53214818098974
  H   -1.23285783677681     -0.93899967639502     -0.70641877045307
  C   1.32776124313700      1.21960813982669     -0.22411463295264
  N   1.83373338024257      2.18236184709927      0.22261958260387
  N   1.37232345005738     -1.22050515781709     -0.35079553541113
  O   2.35760743252720     -1.08947564369449      0.36134834331701
  O   0.86690288382167     -2.26062327623856     -0.74296235662720
  C   -1.56388840622220      1.12073165087933     -0.58020531131704
  N   -2.19458852069848      2.07620057259554     -0.84168409374009
  C   -0.79369794077058     -0.26675509075912      1.31066760459881
  H   -0.29236084009929     -1.19835335049801      1.57796727753334
  H   -0.30081482609409      0.56585368437134      1.81597170314728
  H   -1.82302316321910     -0.32383508396078      1.66697741444568
