15
Coordinates from ORCA-job run
  C   0.56634975603040     -0.15880082781073     -0.81631016961084
  C   -0.77854117466029      0.18417018743433     -0.12921860657298
  Cl  0.38653259332458     -1.60034141471703     -1.80764457439758
  H   -1.51560252112722      0.20268912852009     -0.94022186835037
  C   1.05812619062650      0.94148425854143     -1.63331040437216
  N   1.41540797286115      1.82280512934842     -2.32481901636267
  N   1.59686564465234     -0.41401919538137      0.30920914650495
  O   2.04389301448467      0.60963116358180      0.81007946613571
  O   1.80587549033189     -1.56678061850952      0.64320589255866
  C   -0.73088783667904      1.52537153353027      0.45621562603450
  N   -0.74954402366433      2.59027079267873      0.95168001496097
  C   -1.19116301769967     -0.84874876244199      0.92374541660756
  H   -2.20766458932492     -0.62935122843588      1.25298025761152
  H   -0.53558728259861     -0.80371439717342      1.79437812309513
  H   -1.16606021655746     -1.85666574916513      0.51003069615759
