15
Coordinates from ORCA-job run
  C   0.61885125542087     -0.13004201329828     -0.72391345360984
  C   -0.75185695192611      0.15197984563580     -0.06498393934488
  Cl  0.63108392521256     -1.69930720296822     -1.54440118099073
  H   -1.42060997788699      0.34778277372436     -0.91260839939318
  C   0.92815100252868      0.91939904900487     -1.68918417799031
  N   1.09391147966500      1.77185176883759     -2.48182921710245
  N   1.76005641791013     -0.16388487973562      0.31240970832370
  O   1.48720435791510     -0.65691495155576      1.39623847388485
  O   2.84217529230050      0.26355672838060     -0.06040007379715
  C   -0.62791771043544      1.40214643719466      0.68954080751076
  N   -0.52934093030623      2.39354669538230      1.31159106255750
  C   -1.37959071224502     -0.95406164743627      0.78997826246331
  H   -2.38527977809587     -0.63191459897330      1.06653236706618
  H   -0.80503484568894     -1.13662792783030      1.69309772007976
  H   -1.46280282436824     -1.87751007636241      0.21793204034247
