15
Coordinates from ORCA-job run
  C   0.56168851063747     -0.16679540250180     -0.81754333474071
  C   -0.77525898591620      0.19805806710220     -0.12674407014236
  Cl  0.35647139335565     -1.60537350917585     -1.80844887374231
  H   -1.51317216093534      0.23487538211583     -0.93627838725588
  C   1.06775714987796      0.92572512612188     -1.63622322739060
  N   1.43294513916719      1.80301367654649     -2.32871785851336
  N   1.59215968799007     -0.43878694229986      0.30478710859817
  O   1.77444401587046     -1.59445235740315      0.64508947340312
  O   2.06814011204679      0.57645163280760      0.79602806374748
  C   -0.69925126299953      1.53517152130198      0.46492684720737
  N   -0.69338822504392      2.59685782484266      0.96756631724506
  C   -1.20609727532151     -0.83079743869380      0.92290847934114
  H   -0.55038649285579     -0.79937110334300      1.79395024625358
  H   -1.19786341211488     -1.83788635501729      0.50652850821779
  H   -2.21918819375840     -0.59569012240392      1.25217070777150
