15
Coordinates from ORCA-job run
  C   0.53707255075803     -0.15699284761588     -0.83521302066051
  C   -0.77660715306242      0.20268027375239     -0.09824197180529
  Cl  0.29745113309083     -1.58389098317214     -1.83554387805242
  H   -1.53730393856010      0.25926888538616     -0.88545756212430
  C   1.01724346850121      0.94399032339072     -1.65823166640412
  N   1.36061024460612      1.82691164022442     -2.35470308776527
  N   1.60272500465742     -0.44316734247730      0.24890462226897
  O   2.11316671580890      0.56434822662835      0.72085018901212
  O   1.77699998957883     -1.60158517177891      0.58431999231808
  C   -0.67220757850773      1.52831823253796      0.51483139284244
  N   -0.64004909533618      2.57941400840307      1.03818527445197
  C   -1.18649268341181     -0.84170630861175      0.94455727337255
  H   -0.50296369859299     -0.83744907394946      1.79444385132100
  H   -1.20555732137795     -1.83994061317081      0.50784389973455
  H   -2.18508763815217     -0.59919924954683      1.31045469149024
