15
Coordinates from ORCA-job run
  C   0.68287903270339      0.14819497337404     -0.70996889586167
  C   -0.77710326520309     -0.06322983714548     -0.27268396330462
  Cl  0.79354517971121      0.38011857054394     -2.45479394092757
  H   -1.15037660171913     -0.89635596178273     -0.87774420081526
  C   1.30821675696064      1.26036762311658     -0.01017601819150
  N   1.75532817688906      2.18546234143597      0.56135030990591
  N   1.42679591735600     -1.15573232458051     -0.35367282605444
  O   2.35739064739611     -1.07067152184594      0.43502809501833
  O   0.97628019977129     -2.16580599532915     -0.87129612488852
  C   -1.54713140103032      1.13584591310509     -0.59835754693192
  N   -2.18385739646989      2.09573551780573     -0.82710936427438
  C   -0.88207528973897     -0.39893529296959      1.21817999564782
  H   -1.93322539386988     -0.50914452273461      1.48762801151060
  H   -0.45089130870563      0.39465923175939      1.83122714828259
  H   -0.37677525405079     -1.34050871475273      1.43938932088465
