15
Coordinates from ORCA-job run
  C   0.54564220467908     -0.13830857226977     -0.83429329993162
  C   -0.78368424643583      0.18334458142049     -0.10728357857242
  Cl  0.34477596017070     -1.55514805443929     -1.85700433222018
  H   -1.54219818863892      0.20692516696841     -0.89795555046146
  C   1.01707948673042      0.98227756742560     -1.63540048353519
  N   1.35717055673967      1.87918363838470     -2.31529881066750
  N   1.60137726471884     -0.41858416493580      0.26062097800302
  O   1.84629581448718     -1.57855366586806      0.54023167167708
  O   2.02946532627112      0.59414316332169      0.79945924542282
  C   -0.73339534222311      1.51535773509325      0.49819328796251
  N   -0.74895069060986      2.57277748543508      1.00922774341262
  C   -1.15716254529512     -0.87103305105854      0.93913796213175
  H   -2.16572008759934     -0.66751749832638      1.30127308979163
  H   -0.47725473529511     -0.83325826836642      1.79134010306366
  H   -1.13444077769971     -1.87160606278495      0.50775197392328
