15
Coordinates from ORCA-job run
  C   0.55987318740353     -0.15308088907226     -0.82076382394166
  C   -0.77821030952781      0.18718744598058     -0.11972611753638
  Cl  0.37035454858443     -1.58891994475223     -1.81876496842085
  H   -1.52118295520820      0.21892818927324     -0.92496029711134
  C   1.04389250714322      0.95132847848937     -1.63707592117146
  N   1.39278962177280      1.83468168012522     -2.33020951479772
  N   1.60154764338743     -0.41512755210697      0.29300600769800
  O   1.80315823724664     -1.56951113468252      0.62627063327865
  O   2.06486114282991      0.60482829479660      0.78630220904896
  C   -0.71915096867921      1.52145094881025      0.48051482088076
  N   -0.72771246182154      2.58086238184185      0.98787630794552
  C   -1.18908630622798     -0.85526827327294      0.92444218982672
  H   -0.52643739040224     -0.82517162695391      1.79023405467622
  H   -1.17415476322936     -1.85835161952000      0.49879163776074
  H   -2.20154173327162     -0.63283637895629      1.26406278186385
