15
Coordinates from ORCA-job run
  C   0.56496443206026     -0.15176492101985     -0.81876730458941
  C   -0.77688639943232      0.18964946188853     -0.12510530901377
  Cl  0.37807126717436     -1.58350950437832     -1.82321398181742
  H   -1.51412477684931      0.22722878988852     -0.93529153302728
  C   1.05578812945684      0.95506823944723     -1.62746497896440
  N   1.40763219486046      1.84385286652907     -2.31211478888985
  N   1.59858535652583     -0.42085543453327      0.30051255735937
  O   2.06480379535455      0.59564943501532      0.79825481831239
  O   1.79199102266470     -1.57686902046678      0.63297847916177
  C   -0.71661050686936      1.52040601803637      0.48269914202315
  N   -0.72169962076195      2.57381380553702      1.00249048908593
  C   -1.19785440625235     -0.85540675812090      0.91244234991761
  H   -1.17983334139099     -1.85745923045471      0.48462419582156
  H   -0.54281526594361     -0.82780881855517      1.78407245699837
  H   -2.21301188059712     -0.63299492881304      1.24388340762199
