15
Coordinates from ORCA-job run
  C   0.53642498588598     -0.14784279025101     -0.83696387478377
  C   -0.77603900652797      0.20224148289304     -0.09318425734843
  Cl  0.29838661383567     -1.56767842426977     -1.84806820620500
  H   -1.53754149460427      0.27090585364134     -0.87867181602297
  C   1.00983304838649      0.96153037729735     -1.65276182472285
  N   1.34891760179100      1.85138130368104     -2.34252295018780
  N   1.60636337010091     -0.44028395615457      0.24085022910644
  O   1.76030369634762     -1.59888623006816      0.58696518424500
  O   2.13902239202533      0.56130030396834      0.70062918637480
  C   -0.66778857486942      1.51968718979658      0.53685660464333
  N   -0.63005719461196      2.56502082001447      1.07133413132669
  C   -1.18774213091003     -0.85437374368050      0.93641273247483
  H   -0.50761086946444     -0.85882728933556      1.78878208972911
  H   -2.18830078534696     -0.61765444908083      1.30092384123807
  H   -1.20317165203795     -1.84752044845177      0.48841893013255
