16
Coordinates from ORCA-job run
  C   0.65926228814935     -0.09489922523455      0.86913690172920
  C   -0.75010268812876      0.19348916305928      0.35250662869543
  Br  1.22939239693322      1.36547583827355      2.04260282403637
  H   -1.40112849371792      0.38753812925284      1.20575965603040
  H   0.55817928721673     -0.95340392917168      1.53867524668471
  C   1.73635845411795     -0.36917223059965     -0.16495881797261
  H   1.90931242585180      0.49789571908094     -0.79948352338791
  H   1.44853683336386     -1.21241229673394     -0.79763927227556
  H   2.66771472518048     -0.62632784275097      0.34121516915899
  C   -1.30234546334554     -0.92812087009357     -0.51303887227437
  H   -0.73798188058575     -1.02184427850988     -1.43947511084260
  H   -1.25927633233788     -1.87392421156468      0.03185549910346
  H   -2.34611510290229     -0.72590588896666     -0.76253978856555
  N   -0.79141016320981      1.47022065033970     -0.43514921917495
  O   -1.42188040734307      2.40845093509320      0.04550684886532
  O   -0.20151587924237      1.48194033852608     -1.51497416981035
