16
Coordinates from ORCA-job run
  C   0.73828812124929     -0.49418329106597      0.39042545361249
  C   -0.60791268179123      0.18801495197987      0.15183511165716
  Br  0.73239734818291     -1.21901359223997      2.20702473247777
  H   -0.74196462580204      1.00373410618364      0.86461243385139
  H   0.82322449515450     -1.35981587397155     -0.26900560362359
  C   1.92396643852336      0.43914996434970      0.22234685730471
  H   1.99559077395852      0.76950876777425     -0.81707240500486
  H   2.85150300919975     -0.07405396535311      0.47744195257061
  H   1.82409148570729      1.31627810962517      0.86511357395991
  C   -1.80722256861283     -0.74112180720716      0.12327494014342
  H   -1.96386905140861     -1.17873476759345      1.10846469414325
  H   -2.70588516564993     -0.18608257418989     -0.15476096939263
  H   -1.64944245513232     -1.53921291292045     -0.60340968012364
  N   -0.50411231811073      0.86144578921487     -1.18809310791657
  O   -0.56982795661694      2.08810110376985     -1.21826776647910
  O   -0.33982484885099      0.12698599164420     -2.16093021718030
