16
Coordinates from ORCA-job run
  C   0.66698821048425     -0.10017778219066      0.86278350378899
  C   -0.74443708316789      0.20087257939034      0.35927184918666
  Br  1.26183120528335      1.35535694183006      2.03003992857870
  H   -1.38489883043147      0.40329433981149      1.21862797111447
  H   0.56522470628044     -0.95701011468824      1.53433222921563
  C   1.73144906643036     -0.38413011568999     -0.18176068785284
  H   1.90820857636445      0.48266988492877     -0.81568511336838
  H   2.66450060795741     -0.65260263162795      0.31539464288385
  H   1.42888293046839     -1.22250190400377     -0.81399904623824
  C   -1.31733373096203     -0.91690758022551     -0.49755465339942
  H   -0.76194298705367     -1.02168041924153     -1.42820850088032
  H   -2.36035965029056     -0.70211906392178     -0.73968029975295
  H   -1.28242231013852     -1.86090547133278      0.05105782080235
  N   -0.78011038941664      1.47569297566736     -0.43096517599866
  O   -1.39310384108475      2.42300651574145      0.05441594321034
  O   -0.20347648072312      1.47714184555276     -1.51807041129019
