14
Coordinates from ORCA-job run
  C   0.89898928738669      0.56828565766654     -0.28694217654149
  C   -0.59786114355796      0.32105722537882     -0.16978053368839
  F   1.14805856101768      1.50826766258552     -1.23072111081574
  H   -0.95276934085922      0.12162075637819     -1.18725862258041
  H   1.37747901833467      0.84583495458813      0.65257082329058
  N   1.53968635816493     -0.72122218332725     -0.72788898078399
  O   2.18395672229646     -1.32885550948752      0.12295624610636
  O   1.31663046005011     -1.07346396404755     -1.88035670695130
  C   -1.22603851152768      1.55377549733790      0.30774503854097
  N   -1.73015708992386      2.52924708293370      0.72262586282282
  C   -0.92403030014094     -0.86073002700697      0.74888014519602
  H   -0.54962579417192     -1.79255926410202      0.32362453360242
  H   -0.48021965685567     -0.72283128910738      1.73658287715702
  H   -2.00409857021329     -0.94942659979012      0.86596260464514
