14
Coordinates from ORCA-job run
  C   0.82923530964375     -0.40006754852265     -0.38051997438861
  C   -0.52180099104169      0.20967822922949     -0.03545875070472
  F   1.31917599643988     -1.11839258332703      0.65253965952395
  H   -0.83197781595915      0.80129517223305     -0.90226450329426
  H   0.77278868251873     -1.02592935284579     -1.27372432241958
  N   1.80140601718066      0.70870974559443     -0.71764542398703
  O   2.75214242136643      0.89504355439549      0.02519371964048
  O   1.50875811832959      1.33250552591099     -1.73309872120467
  C   -0.37779332345569      1.11657312112833      1.10637097629247
  N   -0.28254964695870      1.83523902377418      2.02959555592443
  C   -1.55027256611682     -0.88722162628021      0.25542026240540
  H   -1.23782281054765     -1.48816849301483      1.10936142671649
  H   -1.66068200923845     -1.53748185570127     -0.61543353171535
  H   -2.52060738216090     -0.44278291257418      0.47866362721099
