14
Coordinates from ORCA-job run
  C   0.79003792591938      0.58088290871758     -0.50208269858537
  C   -0.64061953741718      0.12970064121606     -0.24751044081908
  F   0.89138672208417      1.15870933574929     -1.72357196048169
  H   -0.92645017564318     -0.47554342068831     -1.11530592372963
  H   1.18677670635360      1.24989612217018      0.26182250853229
  N   1.66250834296242     -0.64679837462275     -0.48980852542636
  O   2.38244212824118     -0.79458268127596      0.49415769931652
  O   1.53738048787795     -1.41283800396776     -1.43801565835671
  C   -1.49314750537972      1.31868029684624     -0.20997079606678
  N   -2.17713623874086      2.27032480782358     -0.14540280386902
  C   -0.77387704438234     -0.69017172575955      1.03972410948605
  H   -0.39350035469578     -0.13438691807749      1.89917242128621
  H   -1.82316482553234     -0.92598439127844      1.21837638149741
  H   -0.22263663164731     -1.62788859685268      0.95741568721615
