14
Coordinates from ORCA-job run
  C   0.89164564660511     -0.39243903037986     -0.20819670552935
  C   -0.53224569428552      0.13792549606466     -0.12266700312931
  F   1.34614015011597     -0.76979202678762      1.00596380678836
  H   -0.81186001931847      0.45678726786047     -1.13148021435998
  H   0.97006405275907     -1.22626675529218     -0.90913282118371
  N   1.79163872906605      0.69175037473958     -0.75871496942664
  O   2.65194621842336      1.15982227721734     -0.02987544053524
  O   1.53955197381842      1.00337393100023     -1.91855735695671
  C   -0.57072518822335      1.31226371034205      0.75297764184713
  N   -0.62226100290884      2.24464426796978      1.46425075492216
  C   -1.48545793034994     -0.95293597001805      0.37415519340776
  H   -2.50635012241431     -0.57176581616468      0.41023942307737
  H   -1.46048283677495     -1.80943359233739     -0.30333421414007
  H   -1.20160397651262     -1.28293413421434      1.37337190521824
