14
Coordinates from ORCA-job run
  C   0.83108063548655     -0.40283157463818     -0.37309080664278
  C   -0.52339995231953      0.20486842498898     -0.03823361424663
  F   1.33211667997993     -1.08813813472182      0.67692102153398
  H   -0.84122017182818      0.77250976152935     -0.91820004077699
  H   0.77588019459156     -1.05376588771547     -1.24827405787633
  N   1.79218483613212      0.70428143322400     -0.74569247753480
  O   1.48979704009974      1.29684446240127     -1.77689482592644
  O   2.74514966675823      0.91885013297037     -0.01334103278840
  C   -0.38215800987507      1.14070172388944      1.08053501177799
  N   -0.28943735239520      1.88168443208543      1.98622881276093
  C   -1.54221039117740     -0.89195761976477      0.28460244021859
  H   -2.51457753561419     -0.44935601648527      0.50249412640298
  H   -1.65250507221842     -1.56422290026485     -0.56931893429413
  H   -1.22070056762014     -1.46946823749848      1.15126437739202
