14
Coordinates from ORCA-job run
  C   0.66642713465355      0.01872115540774     -0.97361672008198
  C   -0.71034377183018      0.18727188079298     -0.33202002866075
  F   0.69849315042235     -1.15482595222855     -1.64906335278190
  H   -1.41961112332920      0.00006289740553     -1.14698334569008
  H   0.94031475177749      0.83862075128452     -1.63849466457135
  N   1.71806208433329     -0.02037874124846      0.10835986859226
  O   1.97376686522126      1.07248898370038      0.60356369450568
  O   2.17696344905976     -1.10834478877919      0.42575828545276
  C   -0.91789110767764      1.56218304669568      0.12229368916811
  N   -1.12584780638502      2.65759097271938      0.48973370188899
  C   -0.95169335984040     -0.82660012534544      0.79065736045273
  H   -0.32657844983861     -0.60660784882004      1.65711495491929
  H   -1.99541686757192     -0.78864755642101      1.10367510249277
  H   -0.72564494899473     -1.83353467516354      0.43802145431349
