14
Coordinates from ORCA-job run
  C   0.61070380825764      0.00916370532820     -1.00842919122413
  C   -0.73074075095678      0.17293584876129     -0.29542869417849
  F   0.62257350902689     -1.17794087570374     -1.66041888144545
  H   -1.48153180944992     -0.03224539842159     -1.06790681467448
  H   0.83555648735770      0.81811709481611     -1.70431899354165
  N   1.72230799972592      0.00743415002561      0.01279223347838
  O   2.21273089720713     -1.06764710266490      0.32768479522364
  O   1.99558806167485      1.11486180825077      0.46443748462937
  C   -0.92720856253550      1.55175886990057      0.15270801362680
  N   -1.12392841208768      2.64840592313484      0.52224268258114
  C   -0.89953224840650     -0.82721138846273      0.85271664573814
  H   -0.23224310276896     -0.58647175016075      1.68139769773936
  H   -0.67969826737219     -1.83655136229525      0.50322689190986
  H   -1.92557760967261     -0.79660952250845      1.22029613013751
