14
Coordinates from ORCA-job run
  C   0.62995437278726      0.01131963570063     -0.99697066941840
  C   -0.71779861471022      0.20432643602752     -0.30376299020328
  F   0.61445595148154     -1.16143420843570     -1.67444796746316
  H   -1.46088252853448      0.04388432867335     -1.09407149434671
  H   0.89350735518122      0.82705430449410     -1.67105626158663
  N   1.72230921142597     -0.04886153374525      0.04292807259904
  O   2.16931291228609     -1.14637067638691      0.34471321734935
  O   2.02422420475511      1.03919187815503      0.52255757357807
  C   -0.87687140612204      1.57812310311519      0.17387557995290
  N   -1.04751049047666      2.67109477281179      0.56674845766548
  C   -0.94228734785144     -0.81634208431289      0.81621086999219
  H   -1.97166418586070     -0.75410340134660      1.17019345920036
  H   -0.27863242809670     -0.62346448498784      1.66012000312393
  H   -0.75711700626493     -1.82441806976241      0.44396214955687
