14
Coordinates from ORCA-job run
  C   0.81440564587113     -0.35056786428597     -0.45272755979213
  C   -0.52041547958747      0.21734166994965      0.00720870562477
  F   1.32216957724873     -1.20551099873915      0.46083526970835
  H   -0.84570405276031      0.92393191095004     -0.76248075556383
  H   0.72888235687036     -0.84974048154557     -1.42030536227909
  N   1.79075996758942      0.78571854202566     -0.66347093306191
  O   1.48053704996062      1.54202521440959     -1.57867386829420
  O   2.76174807536349      0.86286578399618      0.07239870943057
  C   -0.33739264033130      0.95820416921607      1.25826076722462
  N   -0.21148845585212      1.54189274847910      2.26882634940718
  C   -1.55306105657560     -0.90125512798101      0.17385733301270
  H   -2.51355390477225     -0.48412947706663      0.47759277579858
  H   -1.68966211681470     -1.42897095266687     -0.77276678980414
  H   -1.22722496621001     -1.61280513674109      0.93244535858854
