14
Coordinates from ORCA-job run
  C   0.86641014412353      0.53353910567752     -0.41874546285269
  C   -0.61515623265389      0.24072502987434     -0.23259321091505
  F   1.06695690824423      1.24093312101680     -1.55699550838746
  H   -0.95639613928895     -0.20645194090797     -1.17307099939925
  H   1.32652253348899      1.04654261800276      0.42613683788669
  N   1.57668719719356     -0.78732411240117     -0.55524595799199
  O   1.37611612165207     -1.40808779304835     -1.59271621619694
  O   2.24948228033704     -1.14680774555869      0.40725565030663
  C   -1.30899205014236      1.51582074173298     -0.04604661918489
  N   -1.85132955737529      2.54215972400473      0.12829006276650
  C   -0.87887312545803     -0.71356844951991      0.93652268608346
  H   -0.44040832253487     -0.33155239510414      1.86035875123120
  H   -0.45824482928659     -1.69847710192706      0.73017339026366
  H   -1.95277492829945     -0.82645080184184      1.08567659639013
