14
Coordinates from ORCA-job run
  C   0.61052325905643      0.00259300247202     -1.00863784650274
  C   -0.73136469227977      0.16507655713372     -0.29617155012095
  F   0.63093977805823     -1.19272679469173     -1.64532911656848
  H   -1.48158109703184     -0.04972756167692     -1.06654589183327
  H   0.82803863301506      0.80426816004063     -1.71518571398064
  N   1.72324601301392      0.02305443033879      0.01069999422362
  O   2.21385969508794     -1.04522724289214      0.34763728741458
  O   1.99524795445592      1.13939185439039      0.44055565390410
  C   -0.93426652944292      1.54640620855700      0.14128795933957
  N   -1.14000911958428      2.64523106591532      0.49932023324194
  C   -0.89485627645469     -0.82668629228824      0.85988723852868
  H   -0.67355464782259     -1.83805471947821      0.51735757298235
  H   -0.22615678155266     -0.57905726769544      1.68534077913562
  H   -1.92006618851875     -0.79554140012518      1.22978340023562
