14
Coordinates from ORCA-job run
  C   0.62934192458891      0.01204293789472     -0.99760291179191
  C   -0.71861375012630      0.20292074902656     -0.30411143683751
  F   0.61574900298389     -1.16114358501655     -1.67429042204127
  H   -1.46168856313197      0.04006617348938     -1.09392590690089
  H   0.89169823610310      0.82764218401287     -1.67240643507576
  N   1.72215378935958     -0.04542679100249      0.04227635884102
  O   2.17074730699323     -1.14189305539663      0.34537602275770
  O   2.02222059034668      1.04369837885077      0.52061815762424
  C   -0.88013246002884      1.57631196634199      0.17360244136807
  N   -1.05245025372508      2.66901590432038      0.56660323105661
  C   -0.94018012364520     -0.81760812719974      0.81684402875707
  H   -1.97080859417520     -0.76049157115383      1.16820819833880
  H   -0.74858011224348     -1.82535543037272      0.44679582033502
  H   -0.27945699329931     -0.61977973379470      1.66201285356882
