17

C	0.0	0.0	0.0
C	-0.56139	-0.141252	-1.427024
Br	1.973538	0.0	0.0
H	-1.646834	-0.123349	-1.237788
C	-0.365439	1.281913	0.611107
N	-0.562015	2.333461	1.097151
C	-0.39383	-1.114737	0.865158
N	-0.601437	-2.032474	1.569641
C	-0.187056	-1.475095	-2.057121
H	0.887752	-1.550377	-2.248149
H	-0.495818	-2.314132	-1.42917
H	-0.711547	-1.569894	-3.011674
C	-0.190147	1.04312	-2.307626
H	-0.710129	0.943891	-3.264055
H	0.885298	1.085973	-2.505683
H	-0.506738	1.9876	-1.859632
Cl	-3.529421	0.0	0.0
