17

C	0.0	0.0	0.0
C	-0.417288	-0.100511	-1.533587
Br	1.972076	0.0	0.0
H	0.531411	-0.138499	-2.073134
C	-0.40584	1.245734	0.645378
N	-0.609123	2.28604	1.153463
C	-0.402221	-1.150173	0.806422
N	-0.634319	-2.09613	1.464116
C	-1.162343	1.142558	-2.012468
H	-2.121738	1.222423	-1.498129
H	-1.351286	1.033342	-3.084982
H	-0.576703	2.054399	-1.857094
C	-1.164694	-1.39503	-1.842156
H	-1.337372	-1.438904	-2.921993
H	-0.576541	-2.273878	-1.563224
H	-2.127139	-1.409623	-1.329558
Cl	-3.665181	0.0	0.0
