17

C	0.0	0.0	0.0
C	-0.480085	-0.080863	-1.508496
Br	1.966927	0.0	0.0
H	0.441698	-0.14277	-2.092756
C	-0.390466	1.233669	0.684836
N	-0.636371	2.254884	1.213322
C	-0.40031	-1.154745	0.806178
N	-0.641193	-2.111296	1.445468
C	-1.226086	1.181375	-1.93152
H	-1.445769	1.109846	-3.000848
H	-0.631134	2.085822	-1.766381
H	-2.173127	1.256898	-1.392443
C	-1.303692	-1.335396	-1.780305
H	-1.53039	-1.369736	-2.850233
H	-2.246873	-1.292912	-1.230848
H	-0.759368	-2.247642	-1.523672
Cl	-3.968398	0.0	0.0
