17

C	0.0	0.0	0.0
C	-0.497625	-0.200586	-1.488938
Br	1.960327	0.0	0.0
H	0.417847	-0.287036	-2.080684
C	-0.391543	1.281488	0.590465
N	-0.616094	2.335962	1.059398
C	-0.387663	-1.083399	0.904825
N	-0.623408	-1.977415	1.630525
C	-1.275981	1.014644	-1.98629
H	-1.520452	0.860535	-3.040837
H	-0.688446	1.93403	-1.908813
H	-2.21063	1.120081	-1.4316
C	-1.304368	-1.486402	-1.650465
H	-0.744541	-2.366013	-1.323194
H	-1.538959	-1.613028	-2.711692
H	-2.243832	-1.407777	-1.098853
Cl	-4.02701	0.0	0.0
