17

C	0.0	0.0	0.0
C	-0.558751	0.130236	-1.431224
Br	1.968529	0.0	0.0
H	-1.643352	0.11768	-1.242137
C	-0.387453	1.132923	0.84512
N	-0.576705	2.085858	1.507209
C	-0.382734	-1.269044	0.626361
N	-0.563569	-2.324298	1.111833
C	-0.190875	-1.064174	-2.299795
H	-0.705706	-0.968853	-3.259802
H	-0.515899	-2.002663	-1.845337
H	0.885525	-1.115964	-2.492471
C	-0.180234	1.456873	-2.075051
H	-0.710322	1.545507	-3.026656
H	-0.48092	2.302055	-1.452476
H	0.893567	1.525072	-2.273538
Cl	-3.514375	0.0	0.0
