17

C	0.0	0.0	0.0
C	-0.574785	0.154743	-1.419975
Br	1.972848	0.0	0.0
H	-1.657424	0.134168	-1.219838
C	-0.382762	1.112613	0.874518
N	-0.589882	2.018747	1.593698
C	-0.379843	-1.275677	0.620471
N	-0.614694	-2.322079	1.103236
C	-0.212456	-1.021761	-2.314713
H	0.859879	-1.060229	-2.527391
H	-0.521724	-1.970463	-1.868601
H	-0.745208	-0.915654	-3.263198
C	-0.210975	1.495784	-2.038514
H	0.860506	1.577656	-2.24277
H	-0.513764	2.326184	-1.396229
H	-0.748923	1.600861	-2.983722
Cl	-3.561181	0.0	0.0
