12

C	-0.479061	0.083309	-1.445558
C	0.0	0.0	0.0
Br	-0.145335	-1.593928	-2.406516
H	1.092079	0.0	0.0
H	0.10675	0.847181	-1.960352
H	-0.387801	-0.91107	0.470538
C	-1.901542	0.385457	-1.551159
N	-3.049195	0.631154	-1.606616
N	-0.406243	1.243882	0.651501
H	-1.190874	1.103975	1.272774
H	0.387168	1.58204	1.185111
H	2.897746	0.0	0.0
