12

C	-0.44573	-0.035713	-1.443885
C	0.0	0.0	0.0
Br	-2.42345	-0.177633	-1.620259
H	1.094884	0.0	0.0
H	-0.067121	-0.946159	-1.911193
H	-0.357464	0.921255	0.475932
C	-0.03413	1.134006	-2.210213
N	0.281195	2.076907	-2.836166
N	-0.408062	-1.228863	0.672644
H	0.386966	-1.536316	1.222255
H	-1.188222	-1.068248	1.293874
H	2.857019	0.0	0.0
