12

C	-0.433678	-0.063535	-1.447352
C	0.0	0.0	0.0
Br	-2.397598	-0.297336	-1.638211
H	1.094632	0.0	0.0
H	-0.006292	-0.953166	-1.90926
H	-0.362134	0.927804	0.460133
C	-0.077825	1.125868	-2.213756
N	0.173624	2.080259	-2.84955
N	-0.395997	-1.223385	0.687626
H	-1.202901	-1.072935	1.278353
H	0.387835	-1.506299	1.266975
H	2.85902	0.0	0.0
