12

C	-0.419799	-0.033222	-1.453519
C	0.0	0.0	0.0
Br	-2.316694	-0.566154	-1.702179
H	1.101646	0.0	0.0
H	0.158397	-0.790498	-1.988399
H	-0.328803	-0.931049	0.469079
C	-0.253275	1.254957	-2.118835
N	-0.14428	2.283108	-2.674892
N	-0.554744	1.167679	0.685173
H	0.196766	1.847599	0.758919
H	-0.798666	0.91377	1.634315
H	2.893873	0.0	0.0
