12

C	-0.597729	-0.089363	-1.400166
C	0.0	0.0	0.0
Br	-0.199783	1.516191	-2.457538
H	1.09769	0.0	0.0
H	-1.687258	-0.124685	-1.33587
H	-0.360699	0.929018	0.452879
C	-0.166819	-1.271344	-2.141585
N	0.107742	-2.233351	-2.757008
N	-0.485513	-1.184387	0.729173
H	0.335083	-1.752715	0.918895
H	-0.860809	-0.902788	1.627285
H	2.924127	0.0	0.0
