12

C	-0.531059	-0.062214	-1.432896
C	0.0	0.0	0.0
Br	0.100479	1.445886	-2.528094
H	1.092649	0.0	0.0
H	-1.620495	0.046392	-1.453065
H	-0.350394	-0.916985	0.491658
C	-0.201226	-1.309356	-2.113581
N	0.016387	-2.343471	-2.626808
N	-0.439184	1.176165	0.733276
H	-1.31025	1.551196	0.376511
H	0.278041	1.884449	0.633215
H	2.905594	0.0	0.0
