12

C	-0.518241	-0.041077	-1.438093
C	0.0	0.0	0.0
Br	-0.05755	1.594668	-2.425414
H	1.092313	0.0	0.0
H	-1.612616	-0.06061	-1.459052
H	-0.378682	0.913807	0.468853
C	-0.051465	-1.206325	-2.18497
N	0.235094	-2.170993	-2.791475
N	-0.414069	-1.184955	0.743139
H	0.296866	-1.897445	0.623129
H	-1.30529	-1.556598	0.437457
H	2.910619	0.0	0.0
