13
Coordinates from ORCA-job run
  C   0.88286613993681     -0.14950515654081      0.35921755917901
  C   -0.66007686173844     -0.06856825348253      0.46497153315532
  F   1.34183285327773     -0.11715811252863      1.65751091440206
  H   -0.98778690906218     -0.85356941960587      1.15044888505921
  C   1.26291009123422     -1.42982819758664     -0.25669331906534
  N   1.53582155782847     -2.46929920471247     -0.73224937482090
  C   1.47014293775684      0.97732506117019     -0.37450299448818
  N   1.98584319363943      1.89089296116509     -0.90438119058409
  N   -1.29058822554797     -0.37310503937751     -0.87725873210372
  O   -0.83278142005166      0.23806837285753     -1.83507083638076
  O   -2.19571336124229     -1.19595468823413     -0.87139730174296
  C   -1.08697662751596      1.24473972789753      0.92270170932013
  N   -1.42549336851500      2.30596194897827      1.29670314807022
