13
Coordinates from ORCA-job run
  C   0.87630283277736      0.11249050115354     -0.18899287358198
  C   -0.58496149842464      0.09923793037448      0.32743030813164
  F   0.98543405312045      0.89998225433505     -1.29806760114565
  H   -0.62075763430548     -0.36701953595763      1.31533700402020
  C   1.72250480111523      0.66797920799412      0.88140792233855
  N   2.37412635093450      1.11409718811956      1.75169947607903
  C   1.30273232962497     -1.26081618187535     -0.50173802535379
  N   1.62208872259840     -2.36979391620106     -0.72303088029180
  N   -1.45709864885151     -0.76247993738910     -0.56973252515369
  O   -1.33255233856140     -0.59254889951063     -1.77445115148399
  O   -2.20907532694012     -1.53442793402704      0.01071845156207
  C   -1.12336607533130      1.45131490916294      0.36589998050606
  N   -1.55537756775645      2.54298441382112      0.40351991437334
