13
Coordinates from ORCA-job run
  C   0.84061584813171      0.03727977657425     -0.30181949653640
  C   -0.55624085146893      0.06091949971612      0.35477346222829
  F   0.77753689662132      0.67035503787688     -1.51202911039067
  H   -0.52366370021172     -0.45712022503606      1.31942570899804
  C   1.76212969994558      0.77138931054261      0.58404142752399
  N   2.48240058741859      1.35355473540658      1.30762450149541
  C   1.33497283295956     -1.34024043901734     -0.45844095254532
  N   1.77527289316742     -2.42792468749645     -0.51550817471075
  N   -1.58939965222188     -0.69932065908109     -0.47735600310005
  O   -2.73148721584509     -0.62427021026604     -0.05171023158369
  O   -1.18844139156662     -1.31991644990668     -1.45068348085279
  C   -1.01941254390167      1.43086644127507      0.52972287893538
  N   -1.36528340302828      2.54442786941215      0.67195947053857
