13
Coordinates from ORCA-job run
  C   0.84386247991895     -0.20655542749882      0.42453523826878
  C   -0.69245821147210     -0.03931778062484      0.36911642543522
  F   1.17511227358146     -0.07458231095679      1.75684668405860
  H   -1.14693763267570     -0.83855512387376      0.96323495735897
  C   1.23421945787566     -1.55117962287925     -0.02098861003406
  N   1.53532382646495     -2.64957347609793     -0.30992849287802
  C   1.53552542171893      0.83709398747208     -0.34156466575683
  N   2.09958420614787      1.70002486852049     -0.90551514448930
  N   -1.23055104216074     -0.20829344234369     -1.04228083410185
  O   -2.44549428417189     -0.14960678820753     -1.14233247801715
  O   -0.40947972036434     -0.39879598969110     -1.93185291397575
  C   -1.09528301569516      1.26214521491590      0.88146560984405
  N   -1.40442375916792      2.31619589126526      1.29826422428733
