13
Coordinates from ORCA-job run
  C   0.86647576458368      0.03782456987517     -0.25084422497466
  C   -0.55623566043035      0.16423924281287      0.35005175091874
  F   0.94971683076265      0.71302944862154     -1.43370644511250
  H   -0.55498245601584     -0.21156005833378      1.37633402305395
  C   1.81106141959145      0.63219765875234      0.71093778951554
  N   2.54031775527125      1.11832851258789      1.49381147116706
  C   1.19132721824290     -1.38274931895203     -0.45727054979689
  N   1.43729487556075     -2.52454728492932     -0.58663730152361
  N   -1.53319110139447     -0.71486807332968     -0.41194415792296
  O   -1.49140397343421     -0.64246134946670     -1.63216897652232
  O   -2.27714100379439     -1.39807263131713      0.27938441003857
  C   -1.01065168308794      1.54631795257473      0.29736326011788
  N   -1.37258798585548      2.66332133110412      0.26368895104124
