13
Coordinates from ORCA-job run
  C   0.79769341254038     -0.39017828686767     -0.21492769064535
  C   -0.68241629317164     -0.27428446506597      0.21513155235178
  F   0.83375154208165     -1.24413810715589     -1.29088234298985
  H   -1.03163348088790     -1.26431005382187      0.51727490967506
  C   1.38933014033750      0.90137005336915     -0.59144284512545
  N   1.92153153955954      1.91059395978002     -0.87318733683072
  C   1.55598394670108     -0.97576759679827      0.90151856169732
  N   2.13527036123208     -1.45881942234642      1.80281592293736
  N   -1.50524875143231      0.10875737293868     -1.00154568066417
  O   -2.29337552835384     -0.73851258497776     -1.39832644488087
  O   -1.28837842274884      1.21817913989586     -1.46981447728911
  C   -0.85281221995999      0.70990250577480      1.27070001246906
  N   -0.97969624589768      1.49720748527533      2.13368585929493
