13
Coordinates from ORCA-job run
  C   0.81470745448086      0.00752083577287     -0.29288289145184
  C   -0.56177851686577      0.11743011205191      0.40784074569747
  F   0.72108192134951      0.58194617089208     -1.53240802518209
  H   -0.51338269389714     -0.36223928387532      1.38877304582567
  C   1.80831039556434      0.73140462329128      0.51575656815347
  N   2.58689824969675      1.31132266711286      1.17818209042388
  C   1.22204903620345     -1.39884639688924     -0.43662181625549
  N   1.56661008296232     -2.51639362747263     -0.55225079653574
  N   -1.56967832436780     -0.67686793558377     -0.40723920902721
  O   -1.67098853156207     -1.85626981552155     -0.08949801362846
  O   -2.14859066377905     -0.08491676021318     -1.30663779106704
  C   -0.97077975688211      1.50963379013410      0.50848129497747
  N   -1.28345865290323      2.63627562030054      0.62050479806994
