13
Coordinates from ORCA-job run
  C   0.79751087121331     -0.38630203895574     -0.21880764171550
  C   -0.68625156866151     -0.27724894632554      0.19982370181985
  F   0.84075026746235     -1.20681629981355     -1.32036215051725
  H   -1.04219495074959     -1.27424598848435      0.46948763139007
  C   1.39863760188132      0.91356626392638     -0.54880714005367
  N   1.93877760679956      1.92903690575124     -0.78998900047229
  C   1.54297116850374     -1.00969913792931      0.88577254293044
  N   2.11569264874122     -1.52381810638709      1.77413711178365
  N   -1.49546874309316      0.14450837033316     -1.01322915742710
  O   -2.28544461722150     -0.68635697932623     -1.43992493682461
  O   -1.26653337362983      1.26439829715517     -1.44941924898709
  C   -0.86346439294623      0.67580008974678      1.28251323217452
  N   -0.99398251829966      1.43617757030906      2.16880505589894
