13
Coordinates from ORCA-job run
  C   0.85658134204725      0.13007062238363     -0.00102320490917
  C   -0.64451355102031     -0.18347602765552      0.21370630246548
  F   0.99535446506421      1.47354156421472     -0.22438267660143
  H   -0.77640299443609     -1.25742307412043      0.36785867086809
  C   1.58946189076547     -0.25023856479192      1.21705192669662
  N   2.15426250248512     -0.57101057802328      2.19666714578476
  C   1.39035167375502     -0.61435281967723     -1.15241288282560
  N   1.83918600489606     -1.20641609935752     -2.06282535672044
  N   -1.38541526899460      0.15776360009371     -1.06930354536537
  O   -1.46422586103398     -0.76139550502807     -1.87630131476357
  O   -1.79619568851482      1.30320615006811     -1.18715264447206
  C   -1.17111813840040      0.58966746335141      1.32750076817019
  N   -1.58732637661285      1.18806326854242      2.24861681167249
