13
Coordinates from ORCA-job run
  C   0.78556890879665     -0.40954531383833     -0.22207491301055
  C   -0.68825563156029     -0.25768929952620      0.21771152879814
  F   0.79274456583910     -1.25732863719087     -1.30387541400608
  H   -1.06180319545152     -1.24057758486916      0.51400155430157
  C   1.40845768986443      0.86814191518120     -0.59501956890027
  N   1.96366778933707      1.86488652677849     -0.87685296226352
  C   1.53500964968703     -1.02236526118302      0.88565191572256
  N   2.10441219413080     -1.52767334165359      1.78115329625845
  N   -1.50710445311325      0.15718626368743     -0.99132953664730
  O   -1.27088267012204      1.26863320220251     -1.44504193047549
  O   -2.31050359523863     -0.67055388164062     -1.39839848441133
  C   -0.82579822190976      0.72198280223225      1.28222571504455
  N   -0.92551303025959      1.50690260981995      2.15084879958925
