13
Coordinates from ORCA-job run
  C   0.78382562395828     -0.40458657691952     -0.23970899333000
  C   -0.68918189964901     -0.26300602636752      0.20625831138903
  F   0.78641381530868     -1.20690531451602     -1.35538439080655
  H   -1.06755713535991     -1.25547135852631      0.46168154522940
  C   1.41396836645518      0.88419459458171     -0.55894443104021
  N   1.97304503183243      1.89041249431396     -0.79583821365772
  C   1.52984442751850     -1.06617561548761      0.84205334654974
  N   2.09728937919772     -1.60765164326576      1.71737464569443
  N   -1.50638099387504      0.20515929793406     -0.98431382909134
  O   -2.31864531777391     -0.59899392861460     -1.42024309111815
  O   -1.26079153137685      1.33082588472624     -1.39595569828765
  C   -0.82242701409515      0.67260845394208      1.31016985693689
  N   -0.92140275214093      1.41958973819929      2.21185094153215
