13
Coordinates from ORCA-job run
  C   0.86724328428236     -0.24446439015761      0.32070157066965
  C   -0.66996831573694     -0.11253930599410      0.46545327394833
  F   1.36218584977474     -0.34040941395354      1.59980866320639
  H   -1.03779768953519     -1.00584918446320      0.97521654363854
  C   1.20582085140704     -1.46736282695140     -0.42188195298718
  N   1.47907057482225     -2.45190951395426     -1.00265411401162
  C   1.45144512808271      0.93084264374962     -0.33848359329019
  N   1.94343621727939      1.86863436365121     -0.84832263734628
  N   -1.29426434525452     -0.10855179604380     -0.91563066990250
  O   -1.70699317596417     -1.19352981103199     -1.30828256042623
  O   -1.29194876073052      0.95952883215428     -1.51470409247522
  C   -1.01570495456934      1.09933787673768      1.19012287452453
  N   -1.29252466385785      2.06527252625715      1.79865669445178
