14

C	-0.503639	0.079173	-1.426492
C	0.0	0.0	0.0
Cl	-0.182083	1.720144	-2.118176
H	1.093442	0.0	0.0
H	-1.592968	-0.01373	-1.441301
H	-0.325255	-0.97952	0.374199
C	0.175109	-0.95562	-2.302433
H	-0.158665	-0.879444	-3.339301
H	-0.062972	-1.957343	-1.930559
H	1.257925	-0.821324	-2.254861
N	-0.610162	1.025833	0.855838
H	-0.210302	1.91638	0.578654
H	-0.269236	0.863193	1.796941
Br	3.751996	0.0	0.0
