14

C	-0.505624	-0.141489	-1.431118
C	0.0	0.0	0.0
Cl	-0.42854	1.453534	-2.275842
H	1.093827	0.0	0.0
H	-1.566122	-0.403046	-1.416761
H	-0.354136	0.941001	0.434548
C	0.297193	-1.163416	-2.203843
H	1.345931	-0.864953	-2.223002
H	-0.07442	-1.280551	-3.224422
H	0.221223	-2.118099	-1.680228
N	-0.445012	-1.183511	0.754226
H	-1.202245	-0.942483	1.38032
H	0.329038	-1.51281	1.31712
Br	3.71357	0.0	0.0
