14

C	-0.500849	-0.060742	-1.428435
C	0.0	0.0	0.0
Cl	-0.181985	1.50687	-2.273279
H	1.100935	0.0	0.0
H	-1.589818	-0.157932	-1.436437
H	-0.323982	-0.939152	0.467505
C	0.182614	-1.173635	-2.199432
H	1.264554	-1.030319	-2.164805
H	-0.051602	-2.135259	-1.731916
H	-0.150569	-1.201077	-3.239146
N	-0.612537	1.103345	0.750183
H	-0.210869	1.963524	0.39129
H	-0.277722	1.032056	1.705208
Br	3.75905	0.0	0.0
