14

C	-0.407296	-0.070342	-1.456943
C	0.0	0.0	0.0
Cl	-2.222924	-0.182718	-1.591592
H	1.099101	0.0	0.0
H	-0.042852	-1.009696	-1.87847
H	-0.337418	-0.910196	0.513474
C	0.093406	1.10852	-2.259466
H	-0.308187	2.031794	-1.844276
H	1.183981	1.130181	-2.17236
H	-0.186324	1.022771	-3.311996
N	-0.463138	1.23425	0.633035
H	0.226918	1.521888	1.315288
H	-1.341515	1.079422	1.111669
Br	3.672799	0.0	0.0
