13

C	0.0	0.0	0.0
C	-0.476609	0.204067	-1.428956
Cl	1.791241	0.0	0.0
H	-1.571178	0.124136	-1.409549
H	-0.310298	-0.987979	0.335172
H	-0.149122	1.163376	-1.828006
N	-0.505314	0.980557	0.913999
H	-0.360276	1.908727	0.530934
H	-1.515496	0.818251	0.968672
N	0.036182	-0.834351	-2.358768
O	0.457778	-0.465569	-3.455811
O	-0.016117	-2.003361	-1.98272
Cl	-3.539342	0.0	0.0
