13

C	0.0	0.0	0.0
C	-0.505424	0.036244	-1.424979
Cl	1.844637	0.0	0.0
H	-1.601346	0.136342	-1.358008
H	-0.269551	-0.972086	0.409944
H	-0.219189	-0.859022	-1.972248
N	-0.518695	1.016756	0.802273
H	-0.308331	0.910695	1.780729
H	-0.322443	1.94011	0.45304
N	0.032815	1.173635	-2.217239
O	0.327923	0.953495	-3.389922
O	0.125189	2.273458	-1.672931
Cl	-3.697557	0.0	0.0
