13

C	0.0	0.0	0.0
C	-0.525326	0.120328	-1.413534
Cl	1.845582	0.0	0.0
H	-0.232335	-0.727642	-2.026203
H	-0.265648	-0.997745	0.346181
H	-1.621933	0.195574	-1.322998
N	-0.528015	0.951239	0.868218
H	-0.370981	0.771661	1.844175
H	-0.379262	1.905686	0.591432
N	-0.024693	1.320901	-2.129731
O	-0.017236	2.396311	-1.530975
O	0.33191	1.173756	-3.298232
Cl	-3.785977	0.0	0.0
