13

C	0.0	0.0	0.0
C	-0.432557	0.204002	-1.448419
Cl	1.872536	0.0	0.0
H	-0.109222	-0.617238	-2.084288
H	-0.2839	-1.017762	0.265886
H	-1.526198	0.29339	-1.432174
N	-0.478194	0.892673	0.992929
H	-0.390361	1.841878	0.65149
H	-1.476436	0.689954	1.088559
N	0.124039	1.432603	-2.066951
O	0.641886	1.328964	-3.178535
O	0.018952	2.490117	-1.44528
Cl	-3.505453	0.0	0.0
