13

C	0.0	0.0	0.0
C	-0.49612	0.219183	-1.41201
Cl	1.786106	0.0	0.0
H	-1.59183	0.158038	-1.390963
H	-0.283903	-1.002414	0.327704
H	-0.154386	1.175558	-1.800669
N	-0.503512	1.08075	0.807233
H	-1.525159	1.019796	0.731849
H	-0.270329	0.894237	1.776116
N	-0.016624	-0.823878	-2.352234
O	0.270392	-0.464545	-3.494596
O	0.025582	-1.985295	-1.951933
Cl	-3.552978	0.0	0.0
