13

C	0.0	0.0	0.0
C	-0.444889	0.064866	-1.460396
Cl	1.839998	0.0	0.0
H	-1.538756	0.152666	-1.446316
H	-0.295156	-0.985255	0.361619
H	-0.117954	-0.809962	-2.019374
N	-0.490362	0.983916	0.902712
H	-1.493706	0.801744	0.982569
H	-0.387729	1.897788	0.477809
N	0.109388	1.234593	-2.185882
O	0.70282	1.027372	-3.244975
O	-0.066074	2.349966	-1.695258
Cl	-3.510928	0.0	0.0
