15
Coordinates from ORCA-job run
  C   -1.03116512581894     -0.20329044370357     -0.51001689492617
  C   0.39597712395193      0.34334545507779     -0.47084786955601
  Cl  -1.12451447698094     -1.32284021552133     -1.90639947470847
  H   0.67198044294265      0.68377843712967     -1.47020327696742
  H   -1.71465667990859      0.61561893352818     -0.76320687847423
  N   -1.36859491831984     -0.93576214153196      0.68400475066850
  H   -1.42232864063960     -0.27103034063555      1.44778883257406
  H   -2.27715551737913     -1.36929499684547      0.57209256460859
  C   1.42966088407634     -0.62737633924245      0.07226424936312
  H   2.42416670429383     -0.18624061667963     -0.00581987656766
  H   1.21419652038528     -0.87679573202323      1.11022457845352
  H   1.40108517153099     -1.54851134835531     -0.50959952871039
  N   0.44441507311583      1.59165055624801      0.36723249062147
  O   1.36454298424928      2.36859698455584      0.13602437900522
  O   -0.40660954549910      1.73915180799902      1.24646195461587
