15
Coordinates from ORCA-job run
  C   -0.85655666362221     -0.68332718521876     -0.03063144978540
  C   0.31235175622946      0.25348239647763     -0.33496051929374
  Cl  -0.43120629294933     -1.91129488103062      1.20912126034816
  H   0.00816513088102      0.85327777564584     -1.19722557460062
  H   -1.01439003359651     -1.27662304136650     -0.94059667832321
  N   -1.99137088849542      0.05822111416443      0.42875869751465
  H   -2.11507450353367      0.92343911843593     -0.08065023195199
  H   -2.83481390884755     -0.49693654583740      0.39599249793422
  C   1.63345323706191     -0.43523463477973     -0.59400583822805
  H   2.37855846215993      0.29327509094393     -0.91885463516671
  H   1.51018714129938     -1.18073630201216     -1.38274535663532
  H   1.99226728188650     -0.92853280299224      0.30608420286996
  N   0.44454305046397      1.25831828420311      0.77248934817374
  O   -0.15976304969905      2.31986143969278      0.62064127318673
  O   1.12464928076158      0.95181017367375      1.74558300395759
