15
Coordinates from ORCA-job run
  C   -1.11900701974633     -0.20350116306922     -0.50292468750352
  C   0.30978465102619      0.36349304768731     -0.49809653798573
  Cl  -1.20290252196776     -1.30231277321569     -1.92068004900226
  H   0.56616794318283      0.71423304376866     -1.49951169912968
  H   -1.81619617569576      0.60978245485679     -0.70827796462085
  N   -1.58013571306820     -0.90779155132297      0.65476232989376
  H   -0.97738332534187     -1.68669674348854      0.88530326234983
  H   -1.63648500846739     -0.26612938451353      1.43488197349208
  C   1.37291858293089     -0.58935023072943      0.01834224112525
  H   2.36031315147522     -0.14203467268458     -0.09549506443712
  H   1.21314576123056     -0.81068198951482      1.07529039606853
  H   1.34381527532870     -1.52021819651351     -0.54940774579183
  N   0.36427839412177      1.60632429564860      0.35140294073329
  O   1.32475355094556      2.34646056946191      0.16690236492060
  O   -0.52306754595441      1.78742329362902      1.18650823988766
