15
Coordinates from ORCA-job run
  C   -1.06765072567772     -0.19463286104217     -0.37318499447041
  C   0.34546070622546      0.36789353382407     -0.50737270816102
  Cl  -1.25625285518375     -1.48533893027276     -1.67104940394352
  H   0.47789924504191      0.71430157675388     -1.53423814504218
  H   -1.78204069358988      0.57392791045187     -0.65994086110991
  N   -1.33265722930130     -0.62791655667002      0.94301885047753
  H   -0.79439438575305     -1.44420196558321      1.20078759434997
  H   -2.31468631884811     -0.81745804572070      1.08831241964137
  C   1.45781494940236     -0.56390232410554     -0.08515949922582
  H   1.38424121051364     -0.81313465604513      0.97258439458256
  H   2.42621455013017     -0.08865589426642     -0.24064710947371
  H   1.41712536158591     -1.47366361248042     -0.68519050862159
  N   0.35380523891096      1.63432447690091      0.31934897282543
  O   -0.42103622515451      2.51393534722982     -0.05011163931599
  O   1.10715717169789      1.70552200102582      1.28384263748728
