15
Coordinates from ORCA-job run
  C   -0.88256038768197     -0.69181721583701     -0.04799749523601
  C   0.30738122674208      0.27081625959368     -0.25665790025915
  Cl  -0.54622111651022     -1.70316679098960      1.39954471183937
  H   -0.00797830591691      0.98138132939239     -1.02655473875941
  H   -0.87179294548873     -1.37774154369611     -0.89828313136366
  N   -2.18745443148746     -0.12190105508313      0.05576052573188
  H   -2.18357463593252      0.68897076857432      0.66088595906463
  H   -2.53774660935299      0.13636097111383     -0.85726613948468
  C   1.59979258863596     -0.41374356473437     -0.64024685880919
  H   1.91935919580068     -1.11131857877346      0.13113729971584
  H   1.44903941880414     -0.95881605606962     -1.57543247794984
  H   2.39333204035791      0.31827652313012     -0.79287981382716
  N   0.48390827270456      1.11599603025153      0.97247792833118
  O   -0.42719758914905      1.90886244206112      1.22014283644784
  O   1.48971327847455      0.95884048106630      1.65536929455840
