15
Coordinates from ORCA-job run
  C   -0.90070263360837     -0.39695384228535      0.40390782606245
  C   0.22656445230409      0.50395399236409     -0.07654222990301
  Cl  -2.04932528676397      0.63046225834799      1.39419803837849
  H   -0.18094557367291      1.34857813187067     -0.63576866697467
  H   -0.50579649571041     -1.12775688708509      1.10830297565287
  N   -1.51547370528265     -1.05053072642514     -0.69417066417166
  H   -2.17896022828527     -1.74634279407964     -0.38026383165567
  H   -2.00046039051812     -0.38947953419113     -1.28927137704896
  C   1.27892613518647     -0.25362205230867     -0.86765881332658
  H   0.83950557730636     -0.64971453721377     -1.78114665399675
  H   1.66664136835817     -1.08450039898681     -0.27611788599615
  H   2.10467428374262      0.41354728373134     -1.12437840114140
  N   0.89646145248689      1.11941281560422      1.11392659979476
  O   1.27805969389557      0.34662299674349      1.98989103921866
  O   1.04083135056155      2.33832329391378      1.11509204510759
