15
Coordinates from ORCA-job run
  C   -0.86577476102449     -0.71572873146224     -0.03301043962009
  C   0.29545514118791      0.27657449599101     -0.26470076983366
  Cl  -0.47994231576992     -1.71774929385911      1.40652585084520
  H   -0.05130846539592      0.97734309714503     -1.03003051686398
  H   -0.85594668413987     -1.40038663817110     -0.88448228389688
  N   -2.18358766136531     -0.17852884058403      0.09712037331870
  H   -2.54226319538571      0.09922782875405     -0.80739240313960
  H   -2.18846340600151      0.61950333911724      0.71963667268218
  C   1.59810769680699     -0.37560018005507     -0.66918900721011
  H   2.37037002313290      0.37605895383151     -0.83521189958641
  H   1.44581672088091     -0.92522167079698     -1.60146039222860
  H   1.94768373334809     -1.06408996586593      0.09727756120894
  N   0.47172444588011      1.12858698333859      0.95961153650913
  O   1.48839771836333      0.99086298470894      1.63075889769003
  O   -0.44826899051752      1.90914763790812      1.21354682012511
