16

C	-0.451672	0.110746	-1.456526
C	0.0	0.0	0.0
F	-0.217603	-1.110423	-2.090207
H	1.096539	0.0	0.0
H	-1.537363	0.271539	-1.505358
C	0.308511	1.180971	-2.208699
H	0.072398	1.113265	-3.273473
H	0.034288	2.178687	-1.860875
H	1.38057	1.033762	-2.05884
C	-0.525906	-1.225919	0.594387
N	-1.003588	-2.169252	1.105862
C	-0.450217	1.212215	0.824006
H	0.050055	2.111696	0.462871
H	-0.163689	1.075638	1.867862
H	-1.53484	1.354661	0.775018
Br	3.548508	0.0	0.0
