16

C	-0.458971	0.097823	-1.455142
C	0.0	0.0	0.0
F	-0.242251	-1.132293	-2.078152
H	1.096497	0.0	0.0
H	-1.543837	0.269305	-1.498267
C	0.304329	1.153787	-2.224865
H	1.376633	0.994448	-2.087551
H	0.052744	1.080902	-3.285836
H	0.04805	2.157739	-1.879815
C	-0.523793	-1.220065	0.608266
N	-0.996591	-2.159742	1.130651
C	-0.447762	1.219232	0.81522
H	-1.533121	1.357942	0.773075
H	-0.152323	1.093683	1.858063
H	0.046675	2.116904	0.44157
Br	3.55508	0.0	0.0
