16

C	-0.454607	0.02337	-1.463958
C	0.0	0.0	0.0
F	-0.069275	1.2493	-2.009958
H	1.096131	0.0	0.0
H	0.1	-0.747692	-2.007807
C	-1.946045	-0.124431	-1.684496
H	-2.487631	0.681299	-1.184588
H	-2.163656	-0.068789	-2.753529
H	-2.303692	-1.082383	-1.302377
C	-0.459196	-1.245514	0.609739
N	-0.876892	-2.240005	1.076186
C	-0.475166	1.211412	0.805001
H	-0.142888	2.118749	0.300744
H	-0.017076	1.18724	1.79509
H	-1.56186	1.237516	0.921938
Br	3.535827	0.0	0.0
