14
Coordinates from ORCA-job run
  C   1.02797342481043     -0.13992352504460     -0.04439279656991
  C   -0.41067640266652      0.11971847932351     -0.50375039080194
  F   1.42770357940695      0.89452992063570      0.77900730630642
  H   -0.73243497738953     -0.75393516957766     -1.08525164468158
  H   1.71110158702306     -0.11278289309584     -0.90467437049419
  N   1.08543610995622     -1.34732752346163      0.73599114166537
  H   0.86367131633389     -2.14864970496014      0.15739141878832
  H   2.02572761367001     -1.46734186599086      1.09356249975724
  C   -0.42779098038752      1.27168068983703     -1.40874406772940
  N   -0.44132243310806      2.19972170295397     -2.12698831597274
  C   -1.36130105335897      0.33184919007683      0.67721459174910
  H   -1.32433592621062     -0.53466896273203      1.33576721205169
  H   -2.38230307741314      0.47614667890365      0.32067571685457
  H   -1.06044878066619      1.21298298313207      1.24319169907706
