14
Coordinates from ORCA-job run
  C   0.70902572636477     -0.54251708252694      0.42338443702397
  C   -0.30376341110935      0.30131859690612     -0.35099643803978
  F   0.52804353147089     -1.87195771460242     -0.01484650465024
  H   -0.01128189625969      0.26507990955299     -1.40843908676173
  H   0.47364599688335     -0.54583477936721      1.49082041615506
  N   2.02594749684674     -0.07864224680134      0.23100159836057
  H   2.69130565427810     -0.59329760766857      0.79145114135547
  H   2.29722731260150     -0.12637517029831     -0.74272445991699
  C   -0.21890240227418      1.69324939335484      0.09438019920570
  N   -0.20662603702658      2.80789723447922      0.46158125490247
  C   -1.73233048599419     -0.22888005599518     -0.20488627666510
  H   -1.78618268114918     -1.25037206086556     -0.57905542917515
  H   -2.03558215302404     -0.22222484452213      0.84448187533521
  H   -2.43052665160814      0.39355642835450     -0.76615272712946
