14
Coordinates from ORCA-job run
  C   0.71308507133696     -0.53300899424068      0.42049273423562
  C   -0.31551749824131      0.29256625823084     -0.35314006792865
  F   0.50730397386496     -1.87514697240051      0.03436985902165
  H   -0.05425103649016      0.21858073162997     -1.41679826595971
  H   0.50950340640601     -0.49673487903683      1.49383650551155
  N   2.02785501418323     -0.08974061375187      0.17327047604493
  H   2.70429916820082     -0.59233282414439      0.73142775811352
  H   2.26930874341692     -0.17417927439247     -0.80580450340294
  C   -0.20541116605748      1.69749689950426      0.04283183499956
  N   -0.12715675491044      2.81633427487118      0.38849299598110
  C   -1.74299167543092     -0.22103804858879     -0.14837729328001
  H   -2.45257190921359      0.38548497607907     -0.71274763054260
  H   -2.01683450420718     -0.17327500267203      0.90789192874627
  H   -1.81462083285782     -1.25500653108776     -0.48274633154029
