14

C	0.0	0.0	0.0
C	-0.499486	-0.035688	-1.426478
F	1.362768	0.0	0.0
H	-1.589362	-0.193975	-1.41357
H	-0.247029	0.895463	-1.925942
N	-0.364203	1.350152	0.646255
O	-0.446903	1.360508	1.865363
O	-0.394168	2.319509	-0.100689
C	-0.446458	-1.082537	0.880916
N	-0.589161	-1.978206	1.628199
N	0.15519	-1.130356	-2.186431
O	0.374754	-2.192217	-1.607808
O	0.392639	-0.904716	-3.371888
Br	-3.466241	0.0	0.0
