14

C	0.0	0.0	0.0
C	-0.166997	-0.196936	-1.52433
F	1.374741	0.0	0.0
H	0.507351	0.545142	-1.948927
H	0.204953	-1.2005	-1.723513
N	-0.351487	1.395188	0.485398
O	-0.498959	1.529669	1.692056
O	-0.268621	2.282917	-0.354614
C	-0.46917	-1.028054	0.923316
N	-0.528215	-1.902824	1.709021
N	-1.40487	-0.056173	-2.347971
O	-1.887055	-1.098788	-2.780318
O	-1.724216	1.080401	-2.673417
Br	-3.196037	0.0	0.0
