16

C	-0.319706	0.016334	-1.488671
C	0.0	0.0	0.0
F	0.114168	-1.228928	-1.987237
H	1.087848	0.0	0.0
C	-1.735057	0.120525	-1.90395
N	-2.828513	0.190789	-2.327452
N	0.447979	1.08577	-1.998004
H	1.415117	0.959707	-1.677988
H	0.399304	1.124849	-3.008752
N	-0.530274	-1.14175	0.745459
O	-0.114078	-1.279012	1.89701
O	-1.334327	-1.890168	0.181939
N	-0.436251	1.229985	0.692298
O	-1.411746	1.83778	0.238599
O	0.21095	1.555936	1.688209
H	2.514988	0.0	0.0
