16

C	-0.303724	0.003376	-1.510057
C	0.0	0.0	0.0
F	-0.142778	-1.319177	-1.901468
H	1.089486	0.0	0.0
C	-1.687568	0.408628	-1.845519
N	-2.761151	0.75888	-2.165224
N	0.630815	0.786313	-2.248971
H	0.394519	1.764363	-2.134369
H	1.547563	0.634521	-1.811518
N	-0.553498	-1.17668	0.704234
O	0.157933	-1.718148	1.543669
O	-1.698281	-1.518635	0.401055
N	-0.46162	1.190235	0.675632
O	-0.75711	1.110616	1.873316
O	-0.421608	2.247467	0.026676
H	2.492811	0.0	0.0
