16

C	-0.506216	-0.028369	-1.435587
C	0.0	0.0	0.0
F	-0.079906	1.120708	-2.073789
H	1.088733	0.0	0.0
C	0.130955	-1.147725	-2.186274
N	0.515701	-2.02429	-2.867922
N	-1.936965	-0.034964	-1.498034
H	-2.231849	-0.189372	-2.45621
H	-2.271889	-0.804143	-0.929287
N	-0.388334	-1.133373	0.769803
O	0.021439	-1.151159	1.944378
O	-0.922069	-2.110282	0.187468
N	-0.410856	1.255418	0.667973
O	-1.372161	1.228771	1.43738
O	0.246643	2.252846	0.375492
H	2.358772	0.0	0.0
