14
Coordinates from ORCA-job run
  C   -0.61083120517936      0.09277717162330     -0.31043227824777
  C   0.68740785759322      0.88464693657810     -0.17160400259167
  Cl  -1.55472101674328      1.00233787916311     -1.61085764914139
  H   0.48116828856294      1.83689115817427      0.31386577624332
  H   1.17479818661075      1.02343891342807     -1.13365563359788
  N   -0.30237223194185     -1.24030687757140     -0.70069477909529
  H   -1.13914926918228     -1.80389657200259     -0.78115113705548
  H   0.21361173426429     -1.28312002121755     -1.57171446696708
  N   -1.40177368139853      0.19299321051093      0.87811717630450
  H   -2.29859372414632     -0.26011962341515      0.75237039234227
  H   -0.89864765850094     -0.23881177042036      1.64504059519286
  N   1.64635595797464      0.12563326664628      0.68277911958312
  O   2.65265905496512     -0.32085370484995      0.13987719763255
  O   1.35008770712159     -0.01160996664707      1.86805968939794
