14
Coordinates from ORCA-job run
  C   -0.53502761463598      0.00062783472503     -0.20666885271413
  C   0.58220550914647      0.50199182170691      0.71195160112065
  Cl  -0.91980898302929      1.30538123402934     -1.42670298391349
  H   0.69288094947664     -0.20435550741338      1.53318969094461
  H   0.36473070507238      1.50499012056500      1.07646685442427
  N   -0.08021498476279     -1.12355792360855     -0.96681883738589
  H   0.07220466427091     -1.91265841767344     -0.34910477785162
  H   -0.74703148299326     -1.37234701589089     -1.68595722046223
  N   -1.66342939597478     -0.28333760388531      0.63365053887606
  H   -2.42712306095970     -0.64149497132044      0.07137954774848
  H   -1.99053276200233      0.55279201148669      1.10602030257499
  N   1.89026151707455      0.55004539939344      0.00957269403698
  O   2.60088344009709     -0.44748557941657      0.10909010702956
  O   2.15900149922010      1.57140859730219     -0.61606866442824
