14
Coordinates from ORCA-job run
  C   -0.46840951690376     -0.07052927755150     -0.32323596130375
  C   1.04368442842381     -0.03109900245589     -0.08774802991779
  Cl  -0.93421688783392      1.34799532609931     -1.37666976281817
  H   1.33900744581315     -0.96058677112041      0.39644633669689
  H   1.57904744355592      0.11703201671689     -1.02455959381459
  N   -0.75273134492621     -1.32077825814887     -0.96830076862708
  H   -1.75046710652746     -1.40480273537595     -1.12678562705446
  H   -0.28843750771617     -1.38494280970358     -1.86805503795091
  N   -1.16437150273831      0.11572593889311      0.91346254593663
  H   -2.15575379349148      0.24598461835860      0.75888783586172
  H   -1.01082100482400     -0.68607437248010      1.51431209686428
  N   1.42750923356130      1.07098475863172      0.83135312122664
  O   1.50393715912746      0.78607507157752      2.02421890876072
  O   1.63302295447968      2.17501549655915      0.33567393613987
