14
Coordinates from ORCA-job run
  C   -0.56541932679162     -0.07663431618726     -0.28627581546262
  C   0.49275429980709      0.40245854897578      0.71292271565736
  Cl  -0.53049574467159      1.17702435806272     -1.65135771108490
  H   0.21324067336628      1.36962631774962      1.12308656932395
  H   0.59193848550466     -0.34872455553535      1.50018125229400
  N   -0.33095915788435     -1.40055424697912     -0.69849118065191
  H   -1.02583766269988     -1.68036835619580     -1.37850704114009
  H   0.60737329371737     -1.53067172749017     -1.05115228568658
  N   -1.89949721072374     -0.02046756524544      0.24015401537902
  H   -1.99022997645406     -0.67639564626348      1.00644611841891
  H   -2.15869002201311      0.91346071071327      0.52811168804847
  N   1.85349908093611      0.58240985854411      0.12627026121269
  O   2.32990592454968     -0.36936926218569     -0.49128057645629
  O   2.41141734335716      1.65720588203681      0.31889199014800
