14
Coordinates from ORCA-job run
  C   -0.57332828041457     -0.06864581123996     -0.27191607062747
  C   0.94608070746720     -0.10943129769063     -0.07854904865599
  Cl  -0.91556804290562      1.60753213021562     -0.98580650058202
  H   1.20604324107243     -1.03971621146083      0.43221600856755
  H   1.45033721190448     -0.03188638449609     -1.03848896999032
  N   -1.03762420727140     -0.99925598601744     -1.26108304398276
  H   -0.61492069545900     -0.83950835463658     -2.16558864385194
  H   -0.86957675721853     -1.94577802764320     -0.94243296047517
  N   -1.25829485524858     -0.34877007903454      0.92389332623727
  H   -0.95855848052489      0.24574066649609      1.68446185837238
  H   -2.25695697732464     -0.28624919223538      0.77444159042641
  N   1.48759759120233      0.99957069340769      0.76112039608723
  O   0.97685377003964      1.16770659611806      1.86796756475762
  O   2.41791577468114      1.65169125821718      0.29976449371722
