14
Coordinates from ORCA-job run
  C   -0.55355892238834      0.02684264160883     -0.41391223060103
  C   0.67417068689453      0.89717281672646     -0.15567492233471
  Cl  -1.64565414209424      1.08965530954787     -1.45694141023442
  H   0.39678772631846      1.86908478358585      0.24528421828273
  H   1.25118805918712      0.99270641467590     -1.07378547073235
  N   -0.22053149950753     -1.09963426710996     -1.23109919601734
  H   0.43516880843947     -1.68763045352667     -0.72909008793731
  H   -1.05009158979786     -1.62914001561059     -1.46943420123870
  N   -1.15640373628511     -0.30740350209879      0.83103810714966
  H   -1.42919834843210      0.50974717431224      1.36457112990923
  H   -1.96324062970715     -0.90446073137066      0.70113597125185
  N   1.54018113632642      0.24749550541987      0.87118862380152
  O   1.63264260257702      0.80192052154229      1.96244679779489
  O   2.08653984846930     -0.80735619770262      0.55427267090597
