14
Coordinates from ORCA-job run
  C   -0.61257493642437      0.08889138228668     -0.30878473499233
  C   0.67319777762241      0.89803314237646     -0.15530367026360
  Cl  -1.57028582760670      1.00757195583444     -1.59291052074131
  H   1.15825223114728      1.06170789159536     -1.11460261137036
  H   0.45285755147426      1.83807129874828      0.34747013882335
  N   -0.28366800294322     -1.23192959937348     -0.72386897679005
  H   -1.11187907006932     -1.80650711313139     -0.81477858686654
  H   0.23167848918743     -1.25007575482078     -1.59616386105424
  N   -1.40477006575031      0.15488282197233      0.88105617968041
  H   -2.29311253068525     -0.31264565389352      0.74833531344737
  H   -0.89332018004160     -0.27926045889894      1.64107905450086
  N   1.64416287503140      0.13857016151777      0.68550068033374
  O   2.65741197460039     -0.28215045085914      0.13495488455006
  O   1.35004971445760     -0.02515962335407      1.86801671074263
