14
Coordinates from ORCA-job run
  C   -0.54900987974107     -0.14433181357347     -0.29219030386187
  C   0.47975520893796      0.61451370327810      0.55213622007321
  Cl  -0.29291501283485      0.47572021216840     -2.02069467116160
  H   0.27183929446707      1.68131032019620      0.53032032424578
  H   0.44682177129543      0.22496039328684      1.57248177157127
  N   -0.42096664391135     -1.53665280160975     -0.14281489385133
  H   0.52160591376313     -1.85544245286268     -0.32085894754238
  H   -1.09183776257201     -2.01186039508677     -0.73244309097167
  N   -1.90388770444684      0.19986113181338      0.03251958128172
  H   -2.08769894367563      1.18701251948682     -0.08558533378915
  H   -2.11410762866089     -0.10012531516749      0.97664633849641
  N   1.88978273363300      0.46148349151090      0.08638628361965
  O   2.54039680048274      1.48708190787454     -0.08221667330262
  O   2.30822185326332     -0.68453090131502     -0.07368660480742
