14
Coordinates from ORCA-job run
  C   -0.51800297930215      0.05327046720838     -0.33737806055435
  C   0.57596235317761      0.75358903961331      0.46949196384497
  Cl  -0.61262068468168      0.77964714631025     -1.97814751699769
  H   0.46048909574216      0.50425008522623      1.52489983916005
  H   0.51629397401886      1.82704341848403      0.31395828094933
  N   -0.18561169145812     -1.32964468234583     -0.50744296493356
  H   0.09745495575253     -1.76423861686798      0.36207151399588
  H   -0.94199344015264     -1.84305279293911     -0.93981906278462
  N   -1.76507552409449      0.41233079725100      0.32456683650460
  H   -2.54860676190804      0.27784682189468     -0.30323715230491
  H   -1.89174052929885     -0.19132452127949      1.13045387576419
  N   1.93371565769329      0.29437079036087      0.07820201739836
  O   2.38454599063235     -0.67189852385575      0.69347457847515
  O   2.49518958387919      0.89681057093939     -0.83109414851739
