14
Coordinates from ORCA-job run
  C   -0.55872210974165     -0.09956063648780     -0.10266607691403
  C   0.62015650373467      0.52830339214481      0.63083469180068
  Cl  -0.56789688943049      0.75263229929710     -1.81380670087344
  H   0.42773000655364      1.57957374660227      0.82693068645625
  H   0.76829528418290     -0.02434191710996      1.56018437088342
  N   -0.44484230433538     -1.49558874941491     -0.22085434355663
  H   0.47517940333488     -1.75713346045714     -0.55026610642089
  H   -1.14940947883983     -1.87089625834853     -0.84324313076421
  N   -1.73634774149091      0.25045819073664      0.61047377901050
  H   -2.49046616835514     -0.39576322261905      0.42003494061842
  H   -2.03457293799266      1.19296194193541      0.39915079335612
  N   1.90270446617515      0.46703727525849     -0.12394205990751
  O   2.51827498465590      1.51536248534232     -0.28004436287907
  O   2.27091698154892     -0.64204508687965     -0.51178648080961
