14
Coordinates from ORCA-job run
  C   -0.59391005372917     -0.12198893704353     -0.18483264141475
  C   0.55704108444512      0.58557808636423      0.54794674991905
  Cl  -0.73541304327711      0.72468724016279     -1.81329605529194
  H   0.31167075961853      1.62457393965730      0.76004667385506
  H   0.76681106426207      0.03802905177614      1.46834548656086
  N   -0.44869937924960     -1.51674922145294     -0.46605928667181
  H   0.39338444860357     -1.68919036991317     -0.99898449347865
  H   -0.39245084325967     -2.01852817755059      0.41332355861182
  N   -1.74721791089202      0.02503412047964      0.62926726316585
  H   -2.51454130438829     -0.48282034068909      0.20489876377972
  H   -2.00931980502971      0.99501347912198      0.74732679856099
  N   1.81741877946991      0.60952417072024     -0.24087547357969
  O   2.28757830655933     -0.47935638594927     -0.56958216885269
  O   2.30564789686702      1.70519334431629     -0.49852517516383
