14
Coordinates from ORCA-job run
  C   -0.59490643922911      0.13275918408730     -0.40093821265792
  C   0.75080977393987      0.82548547134568     -0.22611809882300
  Cl  -1.46483230920740      1.15122438332099     -1.60133574155473
  H   1.28794352932648      0.85351532585011     -1.17287071508005
  H   0.60982236040852      1.83401955144924      0.15982568817598
  N   -0.40046204307884     -1.15591793534242     -1.03101054421604
  H   0.00500808050445     -1.78753909805256     -0.34965244277910
  H   -1.29103603870320     -1.53131835162314     -1.33520648715553
  N   -1.35304870773593      0.22225413114707      0.82857660250019
  H   -0.94125860948792     -0.41003777495497      1.50550002125192
  H   -2.31362530786565     -0.05517246335006      0.66437967430331
  N   1.66586890023019      0.13965322817519      0.74369021259537
  O   2.75977615815510      0.66458576610287      0.90138596799475
  O   1.28094065274344     -0.88351141815531      1.31377407544485
