14
Coordinates from ORCA-job run
  C   -0.58887801862312     -0.11230857704282     -0.22001327738560
  C   0.54733666412000      0.45323023266811      0.63784023133734
  Cl  -0.75809230637197      1.08384710672108     -1.62722298270093
  H   0.26956495305394      1.42568947303186      1.03653407064373
  H   0.76343378610549     -0.25628884272218      1.44032351445216
  N   -0.34010762480239     -1.44129902495084     -0.60560563674278
  H   0.55906808678085     -1.54714719753396     -1.05508248299111
  H   -1.09139399274893     -1.77894196753609     -1.19305825873061
  N   -1.85924935805912     -0.08877943692645      0.44671550424300
  H   -1.83853629239949     -0.71616472498504      1.24133666271714
  H   -2.12944204211473      0.84463856407824      0.72569748912183
  N   1.82941311164032      0.66250416604698     -0.09776070340091
  O   2.36310626091539      1.76154514964248      0.00594013323814
  O   2.27377677250375     -0.29052492049140     -0.73664426380140
