14
Coordinates from ORCA-job run
  C   -0.57717586571307     -0.06810530345820     -0.26404292541677
  C   0.54257587547804      0.45618955413665      0.64064568772901
  Cl  -0.47754710353641      0.97529753559882     -1.79365168410142
  H   0.35358630260371      1.49174712239758      0.91201896691963
  H   0.60068865912010     -0.18154751265649      1.52600393938093
  N   -0.46167912077273     -1.45135831489200     -0.48830847690355
  H   0.45315752439980     -1.70815809392666     -0.83308131871188
  H   -1.19511160301438     -1.76445803992756     -1.11086494594731
  N   -1.88753548216233      0.17292072323548      0.26919280056999
  H   -2.01136140683352     -0.36006152866618      1.12133269940221
  H   -2.06323705200643      1.15621686572450      0.42553820596939
  N   1.89791111007156      0.43629015550973      0.01530324315038
  O   2.27720185441067     -0.62803319177595     -0.47194492631143
  O   2.54852630795500      1.47506002870028      0.05085873427081
