14
Coordinates from ORCA-job run
  C   -0.55082376397004     -0.11545179064415     -0.30122241373279
  C   0.95358920336746     -0.05698348529813     -0.01747618581658
  Cl  -0.94125745514643      1.50168023654379     -1.12022092250756
  H   1.51029806073773      0.00543522640304     -0.94909811103045
  H   1.23389549370086     -0.94559376414162      0.55326456094104
  N   -0.90045884099522     -1.11827567511049     -1.26640416155219
  H   -0.70126302337454     -2.03699366199180     -0.88980936937633
  H   -0.43297133172701     -0.97811776954912     -2.15184051567962
  N   -1.29157716599101     -0.37694917625059      0.86493791916630
  H   -1.07319525148325      0.27002206679776      1.61024230657058
  H   -2.28102970086774     -0.38100678841441      0.65399034700120
  N   1.38029820696337      1.11997530445717      0.79558667771388
  O   2.30374742555653      1.79894391600205      0.35986918285826
  O   0.79074814322930      1.31331536119650      1.85818068544427
