14
Coordinates from ORCA-job run
  C   -0.61907283076476      0.07582084672690     -0.22962351093809
  C   0.57730097493602      0.48961657045475      0.64480624025646
  Cl  -0.75213777616389      1.30170116852142     -1.53692836369621
  H   0.71771245962681     -0.24712689973852      1.44024397708595
  H   0.41364766332914      1.48423594937325      1.04960799858132
  N   -0.55644610958203     -1.20762839646857     -0.87994337243058
  H   0.26210289899690     -1.28005913410611     -1.47246934380472
  H   -0.49476671565983     -1.93535317374066     -0.17583083248620
  N   -1.77583506970288      0.20451852647863      0.61795860374014
  H   -1.70452338150027     -0.44611360737267      1.39407794577227
  H   -2.59463690165323     -0.04364828524047      0.07273887351032
  N   1.85418387348695      0.52849986880824     -0.11583186617456
  O   2.26671625707635     -0.54133819252675     -0.56578758267975
  O   2.40675465757471      1.61687475883056     -0.24201876673635
