14
Coordinates from ORCA-job run
  C   -0.50233367273763     -0.05792177889412     -0.43142845438291
  C   0.99154747425811      0.02231718218597     -0.07222304121776
  Cl  -0.91917371948736      1.48370875329122     -1.25555458125522
  H   1.58206350689077      0.16209890047426     -0.97314816983681
  H   1.28597392564338     -0.88530724323149      0.46140837288638
  N   -0.60747524138511     -1.11971667345590     -1.39816623801890
  H   -1.57989307388299     -1.19613445206484     -1.67718369302675
  H   -0.33169772749133     -1.99865257520420     -0.97133436380822
  N   -1.44056448760143     -0.20753425318361      0.65089020796536
  H   -1.25118951588191     -1.07684191103651      1.13833619171135
  H   -1.35339212839358      0.54798060229951      1.32018305247899
  N   1.30011670370883      1.15755020133633      0.83694180238829
  O   2.02602134224862      2.04835569567753      0.40643398260019
  O   0.80199661411164      1.12009755180584      1.96284493151603
