14
Coordinates from ORCA-job run
  C   -0.55365580356934     -0.14708758777702     -0.06784336017647
  C   0.63050149911966      0.47701644347030      0.66052705588624
  Cl  -0.84827760709637      0.99551346674522     -1.57168456102840
  H   0.35406851687586      1.44296891146605      1.07424226189225
  H   0.94094877839166     -0.21340399169234      1.44665044205186
  N   -0.30993725849979     -1.47296259613122     -0.46553746010875
  H   -1.03859235959983     -1.81315146599202     -1.08027213988254
  H   0.58854637677510     -1.55449884444102     -0.92313348831873
  N   -1.67116544945171     -0.08143699997828      0.80654327985956
  H   -2.37014001212431     -0.77187824555054      0.56745235030826
  H   -2.08880560135968      0.83906850339114      0.81132370999662
  N   1.81710215754366      0.71341879490076     -0.20795233955375
  O   2.29944776853689      1.84021755957777     -0.21289659798596
  O   2.25095899445819     -0.25178394798880     -0.83741915294019
