14
Coordinates from ORCA-job run
  C   -0.52500208946726     -0.16200321332399     -0.31541889384336
  C   0.97632685908007     -0.01045773770676     -0.02271569801676
  Cl  -1.01500576873430      1.38388336775403     -1.18677579493263
  H   1.55721876090303      0.02313993424198     -0.94254823020199
  H   1.28952284025809     -0.84504687089735      0.60686729930946
  N   -0.66951772364051     -1.32812574427047     -1.11183959092095
  H   -1.65602199514579     -1.49219341827902     -1.27561661492489
  H   -0.19081521120299     -1.24471894622569     -1.99926594698158
  N   -1.41223787247110     -0.29688834060482      0.79806878904867
  H   -1.30875497189061      0.48147859623722      1.43545984557871
  H   -1.18787057504461     -1.15696662960478      1.28610234670246
  N   1.29878413136686      1.23829776151839      0.71761570695893
  O   2.09143708237323      2.01750880032199      0.19838618111432
  O   0.75293653361588      1.39309244083926      1.80968060110961
