14
Coordinates from ORCA-job run
  C   -0.68938806895444      0.15349781640656     -0.37041261222130
  C   0.64099643584300      0.89060758170617     -0.13710520050401
  Cl  -1.50712285114981      1.15754380473006     -1.65019577788262
  H   1.14727552649429      1.08001115707486     -1.07936771837371
  H   0.47336861277745      1.81058277922137      0.42230305235472
  N   -0.57324524842136     -1.16950567494241     -0.92619300006719
  H   -0.15891437932235     -1.80144766628231     -0.25123159211039
  H   -0.04202887405355     -1.18648730807171     -1.78802302020755
  N   -1.47183068208205      0.17472216874709      0.81445909611362
  H   -2.22357953905377     -0.49890353221417      0.74714285578639
  H   -0.90704443235736      0.01460943643200      1.63839905638148
  N   1.55106636188658      0.02443330319609      0.66076298607293
  O   1.27001772727358     -0.14117476571870      1.84981547971202
  O   2.48942941111978     -0.50848910028491      0.07264639494561
