14
Coordinates from ORCA-job run
  C   -0.63396405812968      0.07438532545175     -0.47769844605962
  C   0.74846403265283      0.73742507652598     -0.34713841541098
  Cl  -1.52399192190475      1.17629636582450     -1.62051300195904
  H   1.33430830692500      0.57796532533614     -1.25195769274741
  H   0.64892817082079      1.79368204789229     -0.11369267389449
  N   -0.50377432326016     -1.20969476274587     -1.07159755682130
  H   -1.35802733726191     -1.73706405965373     -0.94538578058797
  H   0.29360354466382     -1.71098370170013     -0.70179583176660
  N   -1.41982335218959      0.04336931241742      0.72817036738327
  H   -1.54067650781477      0.96032084652933      1.14024146834679
  H   -1.00696245560693     -0.58880971911285      1.40376056754817
  N   1.48277948245552      0.12412778480416      0.79295671791895
  O   1.88554184421760     -1.03182715517222      0.64534293551492
  O   1.59359457443222      0.78780731360324      1.82130734253529
