14
Coordinates from ORCA-job run
  C   -0.55591568739030      0.02036545498040     -0.41010289617835
  C   0.65911970497271      0.90886737187705     -0.15414928522673
  Cl  -1.67035542106204      1.07137267532689     -1.44131167735979
  H   1.22817832150462      1.01989594615587     -1.07549457242350
  H   0.36892643649252      1.87337679333316      0.25554454607953
  N   -0.21044773838940     -1.09654700600483     -1.23542410485620
  H   0.45157202819111     -1.68111255917541     -0.73779600551551
  H   -1.03431354014029     -1.63296606493214     -1.47794345026304
  N   -1.14582233297302     -0.33034932502606      0.83643194486711
  H   -1.42844487689177      0.47902314979283      1.37659949146489
  H   -1.94294475628346     -0.94060381199558      0.70813111379750
  N   1.54259352738707      0.26739255987958      0.86250307757315
  O   1.63701253710709      0.81926143141428      1.95494689082995
  O   2.10184179747514     -0.77797661562604      0.53706492721099
