14
Coordinates from ORCA-job run
  C   -0.61154121727999      0.08140540998403     -0.31160150089022
  C   0.66381512414856      0.90562882839401     -0.15230130964322
  Cl  -1.57383468927511      0.98928293143051     -1.59990622843108
  H   1.15254826478827      1.07345359788756     -1.10902262734649
  H   0.42966042736122      1.84373708346138      0.34785531591042
  N   -0.26506465966398     -1.23543484329783     -0.72478116195953
  H   -1.08577156157041     -1.82022606538905     -0.81824469363384
  H   0.25480829718388     -1.24816423399673     -1.59444234519864
  N   -1.41062162808693      0.13761433633749      0.87428107990766
  H   -0.90126869719215     -0.29732840432247      1.63520607240054
  H   -2.29580884496326     -0.33368493482696      0.73414460937453
  N   1.63928670264392      0.15919163984549      0.69439114528993
  O   2.66259775866110     -0.24577794609970      0.15056985079814
  O   1.34019472324489     -0.00969739940773      1.87485179342180
