14
Coordinates from ORCA-job run
  C   -0.53655636718995     -0.16908509961158      0.10942343146400
  C   0.59170224259084      0.86388495495743      0.05055935217884
  Cl  -0.92537826972985     -0.51330421316603      1.86094363086540
  H   0.38347917240895      1.70586291926883      0.70935026019092
  H   0.70610748351498      1.18666522035167     -0.98305183856510
  N   -1.65826868557418      0.40568386263550     -0.57656636388579
  H   -2.42929521137159     -0.25236246271693     -0.58376481637116
  H   -1.97613631371427      1.25338340063101     -0.11885075014968
  N   -0.09435954121911     -1.41277967195202     -0.44510388055120
  H   -0.76103358756033     -2.15180365522551     -0.26360704356211
  H   0.04308620016804     -1.30922484854796     -1.44403388499364
  N   1.89387524612641      0.27885594042183      0.46208663676736
  O   2.15767210073487      0.27540545863485      1.66088611351961
  O   2.60410553081520     -0.16218180568107     -0.43827084690745
