14
Coordinates from ORCA-job run
  C   -0.52471510421650      0.02581513103637     -0.32939138424652
  C   0.61218455841510      0.78861551773894      0.35132498385272
  Cl  -0.64159486935276      0.53035333861065     -2.04976087104173
  H   0.51828210102403      0.68522409525068      1.43295099629700
  H   0.58050009995244      1.83369089664077      0.05648210532277
  N   -0.24052816928711     -1.37840598945365     -0.32055522072987
  H   -1.02462997260099     -1.91715430816901     -0.66377512676615
  H   0.04806663199390     -1.70245670518473      0.59431989867680
  N   -1.74141618238220      0.51242017480524      0.30759855256701
  H   -2.54552930840855      0.32575131695307     -0.27951242638092
  H   -1.86608537070998      0.02341640952874      1.18807399928621
  N   1.94395127214832      0.23547993873861     -0.00711914606844
  O   2.49711458048342      0.69143304576061     -1.00259101266955
  O   2.38239973294088     -0.65418286225630      0.72195465190066
