14
Coordinates from ORCA-job run
  C   -0.54229334822314     -0.19642170487309      0.22774168778074
  C   0.54327209216770      0.88010691825481      0.22463256318630
  Cl  -0.80965658410547     -0.77778207481400      1.90577489889202
  H   0.52281907508985      1.40863739744995     -0.72912761875784
  H   0.38414182711763      1.56468586826331      1.05297320272961
  N   -1.76580942570084      0.49913025352789     -0.14909373896651
  H   -2.57716685365930     -0.03497487676775      0.13829125919453
  H   -1.78731116587145      0.59701310377058     -1.15896143808972
  N   -0.10826023145834     -1.32363377667268     -0.54365217072282
  H   -0.84555323150181     -2.00839498772552     -0.64586041964708
  H   0.25570764168789     -1.04767410737367     -1.44740792772882
  N   1.90395679997153      0.29650204979479      0.34831791257548
  O   2.47883577818182      0.01604556728363     -0.70350880440112
  O   2.34631762630394      0.12576036988178      1.47988059395523
