14
Coordinates from ORCA-job run
  C   -0.57313783428616      0.10188788565518     -0.21332007526088
  C   0.59130739118003      0.59389056128267      0.64654902829163
  Cl  -1.02461838040745      1.37196332362971     -1.40006236214223
  H   0.41893955840300      1.62456284015033      0.94340310635041
  H   0.69245337248760     -0.05277251840724      1.51891191550764
  N   -0.16775037576029     -1.04983687039130     -0.96379971204150
  H   -0.94625844510423     -1.45943810460478     -1.46289394214346
  H   0.29106024020643     -1.73994103627627     -0.38186512757359
  N   -1.70170126882273     -0.00250167545643      0.70223131411375
  H   -2.57415258859242      0.00141248087530      0.18747763793236
  H   -1.63130916591974     -0.87964315331533      1.20774371285519
  N   1.88610399378337      0.52091571793774     -0.07838445529124
  O   2.52223528704692     -0.52660311029289      0.03790307032332
  O   2.21782821578566      1.49610365921331     -0.74489411092140
