14
Coordinates from ORCA-job run
  C   -0.55423699650241     -0.15270956142195     -0.04907967954269
  C   0.59803690870273      0.74516985810925      0.38448561768437
  Cl  -0.60654519810634      0.01833284532934     -1.95206824507243
  H   0.35997138570312      1.78753467730770      0.19075533828750
  H   0.77327725910323      0.57397188765402      1.44801810432102
  N   -0.37906887143791     -1.49065981879648      0.34495608980943
  H   0.55107602768349     -1.81596438726206      0.11596922173482
  H   -1.06719453531408     -2.09469993732386     -0.08661810339954
  N   -1.74372625423429      0.38516508874866      0.51094060009904
  H   -2.47067521258265     -0.31459007704649      0.57815554674934
  H   -2.08171500404321      1.17621891670618     -0.02006647021125
  N   1.87959371703727      0.46615440237755     -0.32082676992554
  O   2.44829173651877      1.41055876785751     -0.85640724239192
  O   2.29491503747228     -0.69248266223937     -0.28821400814215
