14
Coordinates from ORCA-job run
  C   -0.43836421108417     -0.28498871509328     -0.24437654250109
  C   0.93142112560759      0.38196304580223     -0.21676261801180
  Cl  -1.67961540951291      1.16105031114466     -0.09714540517764
  H   1.68484580811461     -0.40458644244558     -0.14737568360258
  H   1.07748391719494      0.98499266977894     -1.10881283630837
  N   -0.58026674052919     -0.90794993715866     -1.51306617593436
  H   -1.26979808212643     -1.64722359295816     -1.48750419991825
  H   -0.82473716456372     -0.24010016036915     -2.23152494738566
  N   -0.60890377975872     -1.21998564828633      0.79136365077324
  H   -0.31887396601713     -0.83218376369466      1.67957654785898
  H   -1.57046814040989     -1.53026178176794      0.85267861400427
  N   1.13792531160967      1.28971995928089      0.94557090096781
  O   0.94613852179126      0.81610840826258      2.06579523955274
  O   1.51421280968409      2.43244564750447      0.71158345568271
