14
Coordinates from ORCA-job run
  C   -0.60356294895633     -0.19067025846751      0.02697452819418
  C   0.59095298482771      0.77662286834471      0.04562111966909
  Cl  -0.81802915604276     -0.74318580255070      1.76937463915757
  H   0.84056197514604      1.03434588388287     -0.98498209432945
  H   0.36827316914740      1.66910880504593      0.62747649436160
  N   -1.71245927022673      0.54074809181796     -0.47347362853521
  H   -2.50563379917602     -0.08433191999221     -0.55715479294468
  H   -1.95800946628112      1.31777808504171      0.12610751141146
  N   -0.48846694823343     -1.37801350017523     -0.76212480795650
  H   0.32330418558765     -1.91443494594755     -0.48624016453593
  H   -0.39262653861006     -1.10990678220524     -1.73536350708165
  N   1.80951866796316      0.17873727593694      0.65279638926056
  O   2.29572023908023      0.74542920610063      1.62631084561124
  O   2.25045690577425     -0.84122700683230      0.12367746771773
