14
Coordinates from ORCA-job run
  C   -0.59674012469948      0.13117011588699     -0.39892060247304
  C   0.74811416066975      0.82703838353526     -0.22929864728255
  Cl  -1.47466671517966      1.14869582227121     -1.59424459674285
  H   0.60613328990850      1.83548592968433      0.15632601930201
  H   1.28199854370334      0.85512744867052     -1.17793932418940
  N   -0.40251004673643     -1.15644399140198     -1.03084876663409
  H   0.00984641560848     -1.78707435352117     -0.35272619756140
  H   -1.29411202849519     -1.53454093202751     -1.32866209028987
  N   -1.34924276662359      0.21801974529695      0.83441710573747
  H   -0.93465759917942     -0.41595413942385      1.50800897356288
  H   -2.31082381683391     -0.05809362387766      0.67413587409712
  N   1.66772369095151      0.14419348755758      0.73819708927030
  O   1.28933421271953     -0.88282692119831      1.30578581181415
  O   2.75860278418656      0.67520302854764      0.89676935138927
