14
Coordinates from ORCA-job run
  C   -0.68554359604224      0.13138694322248     -0.38017977931723
  C   0.64269599126329      0.87270924287894     -0.14568896201467
  Cl  -1.51519323001991      1.20249029604062     -1.62442059216909
  H   1.17890764643226      0.99288676544600     -1.08306607194941
  H   0.46889880718925      1.82840615073873      0.34602379937387
  N   -0.59324021873269     -1.16061085243209     -1.00344515205023
  H   -0.15860583535475     -1.11629840886805     -1.91626030910683
  H   -0.07531297936712     -1.79933814699506     -0.41107030725509
  N   -1.42956543222757      0.07830277830602      0.81410026614097
  H   -2.08650783743166     -0.68713449947597      0.81886544837919
  H   -0.88441060215402      0.14723509311998      1.65965490046831
  N   1.50702843930481      0.05565327224024      0.74807064818177
  O   2.29360498760179     -0.72541562205486      0.21450159664340
  O   1.33624385953856      0.17772698783302      1.96291451467505
