14
Coordinates from ORCA-job run
  C   -0.63380001668766     -0.03221203404272     -0.34548909254029
  C   0.59260898309344      0.87726701507901     -0.16845689043632
  Cl  -1.65742409580887      0.92225478501030     -1.56821294155961
  H   1.09169673461581      1.07008778273909     -1.11602598300730
  H   0.30609801971479      1.80825852244671      0.31786673514230
  N   -0.21477297870995     -1.29644349715175     -0.79365742282775
  H   0.35341722298531     -1.26641475432358     -1.62904330155359
  H   -1.00677796129593     -1.91424356994911     -0.91034182515197
  N   -1.48165182454652     -0.23080674703431      0.79009820391119
  H   -1.89741997517089      0.64036153040628      1.09177524625283
  H   -0.92894016328044     -0.61861438725797      1.54655393984781
  N   1.58339246677108      0.19308602403390      0.70752905722311
  O   2.60186814234402     -0.24265228786438      0.17812284155037
  O   1.29070544597582      0.08907161790853      1.89828143314922
