10
Coordinates from ORCA-job run
  C   -1.10689312690778     -0.17121199405525      0.14712822755402
  C   0.36503937444043      0.26876806261202      0.18027180469855
  Cl  -1.51688515308250     -1.01728713115886      1.64854995913761
  H   0.52697096633969      0.86694649890778      1.08436063675883
  H   -1.28217593162498     -0.84327087352125     -0.69197260040437
  H   -1.74356052664416      0.70857872971159      0.06083950220802
  C   0.65696630785305      1.10449760647261     -0.99036528365871
  N   0.84571867977066      1.78335476005785     -1.92925477675957
  C   1.27141020910082     -0.88360434760989      0.22704347770524
  N   1.98340920075477     -1.81577131141659      0.26239905276040
