10
Coordinates from ORCA-job run
  C   -1.10701281795928     -0.16906429916949      0.14725495192124
  C   0.42698915502232     -0.10552988157086      0.21204314044170
  Cl  -1.80553448696200      0.73273355064108      1.50251874691031
  H   0.74704918715147     -0.46675998183078      1.19615077121555
  H   -1.42757684401542     -1.20764282189451      0.22079327804888
  H   -1.46460523260667      0.26737865145857     -0.78445708842127
  C   0.91708379270678      1.26727584568691      0.04802253840327
  N   1.29353025580077      2.37054601422225     -0.08661075598525
  C   1.00057430642177     -0.98183269544157     -0.81612844788685
  N   1.41950268444029     -1.70710438210158     -1.63858713464758
