10
Coordinates from ORCA-job run
  C   -1.08987486438962     -0.18931821687809      0.34294958083925
  C   0.18659630953774      0.01468749318992     -0.48421024502766
  Cl  -0.75840803165631     -0.05835352247887      2.07548913526715
  H   -0.08992155645021     -0.08084675124726     -1.54277418090937
  H   -1.49425199291167     -1.18122884451112      0.14113494532098
  H   -1.81934273469519      0.57350781627820      0.07072494851247
  C   1.18973549284425     -1.01486830761474     -0.19126942742494
  N   1.96881481081060     -1.86423117156612      0.02941228432654
  C   0.74568377760627      1.35706381745885     -0.29019151778913
  N   1.16196878930415      2.44558768736923     -0.15226552311529
