14

C	0.0	0.0	0.0
C	-0.445209	0.358586	-1.444295
Br	1.998916	0.0	0.0
H	0.438218	0.630242	-2.02723
H	-0.2073	0.888483	0.601666
N	-0.56196	-1.215855	0.466911
H	-0.381991	-1.287948	1.463352
H	-1.588317	-1.005347	0.344406
N	-1.330664	1.515543	-1.398076
H	-1.614762	1.731108	-2.348415
H	-2.155137	1.147937	-0.874374
C	-1.014783	-0.818716	-2.14226
N	-1.43231	-1.663849	-2.8437
F	-2.847439	0.0	0.0
