14

C	0.0	0.0	0.0
C	-0.512467	0.041559	-1.453361
Br	1.945616	0.0	0.0
H	-1.610943	0.075333	-1.260643
H	-0.261734	0.9421	0.492871
N	-0.553794	-1.176204	0.601162
H	-1.583068	-0.931382	0.533808
H	-0.283923	-1.205614	1.577785
N	-0.166884	-1.125214	-2.258458
H	-0.503895	-1.924694	-1.729708
H	0.84702	-1.205583	-2.273075
C	-0.09841	1.26626	-2.133562
N	0.233683	2.256556	-2.671771
F	-2.799565	0.0	0.0
