14

C	0.0	0.0	0.0
C	-0.355153	0.253615	-1.475788
Br	1.955531	0.0	0.0
H	0.168281	-0.540092	-2.0324
H	-0.285266	0.871664	0.593508
N	-0.494316	-1.271761	0.426598
H	-0.240917	-1.400675	1.401361
H	-1.524431	-1.059597	0.380919
N	0.081192	1.605476	-1.872512
H	1.084226	1.591463	-2.014885
H	-0.358576	1.819737	-2.759658
C	-1.773477	0.135958	-1.901563
N	-2.535335	0.132508	-2.806427
F	-2.657218	0.0	0.0
