13
Coordinates from ORCA-job run
  C   0.80816932801635     -0.18409585452281     -0.49679279488305
  C   -0.48071954742749     -0.48447213951727      0.25116526419958
  F   1.56129288767643     -1.31458621831032     -0.51594028383759
  H   -0.24886261926120     -0.76702213712326      1.27979971964796
  H   0.66008587625569      0.19178720513939     -1.50646182278978
  N   1.60099104737067      0.85887335152176      0.25061480242376
  O   1.46791592454303      0.88908721373709      1.47106749310589
  O   2.35032868261772      1.54631568479668     -0.43159415429199
  C   -1.24005248259152     -1.52995510607009     -0.42041276013375
  N   -1.83945882763197     -2.37010025934294     -0.98066252125898
  N   -1.33944834842953      0.76010556419402      0.34530339572434
  O   -0.99595421071378      1.71945037482837     -0.33772479412973
  O   -2.30328771042441      0.68361232066937      1.09063845622334
