13
Coordinates from ORCA-job run
  C   0.87107699953929     -0.60055089789825      0.18455637914226
  C   -0.65196636173719     -0.51616116543625      0.10977248600091
  F   1.27686674809385     -0.94137856174202      1.42101367284657
  H   -1.04971269990370     -1.29577113339034      0.76928476842783
  H   1.24839283174493     -1.32939411311235     -0.53768169697008
  N   1.49632136610121      0.72336344483833     -0.20848382888062
  O   2.49682615894436      1.07016041571515      0.39306025155390
  O   0.94305651558629      1.28460947650666     -1.14705358721415
  C   -1.16426113087181     -0.70733570644068     -1.23874572221784
  N   -1.54151692231104     -0.92221065090677     -2.32951875460775
  N   -1.17722667165834      0.78480975908227      0.70227201310223
  O   -2.28306829884535      1.14426914536834      0.33066087298424
  O   -0.46578853468251      1.30458998741593      1.55086314583251
