13
Coordinates from ORCA-job run
  C   0.74254787971017      0.34411312491749      0.41319670471406
  C   -0.50822611555612     -0.39931708114251     -0.03294795204839
  F   0.49659621047586      1.66172345476485      0.51280857321883
  H   -0.27481522002387     -1.46302041918166     -0.12550372198308
  H   1.12296096186526     -0.05076933493757      1.35482035044157
  N   1.80980275580402      0.09799706054167     -0.63207770160970
  O   2.22577343750251      1.05349387862521     -1.26556797262705
  O   2.14268029503574     -1.07861353791833     -0.72876879197060
  C   -1.03952060210729      0.13448978891580     -1.27779581869697
  N   -1.41957028345946      0.55049107274365     -2.30790756275722
  N   -1.53122611071111     -0.29571878693064      1.09097819777568
  O   -2.65005351656311      0.10859115674289      0.81581791552979
  O   -1.11794969197260     -0.66246037714084      2.18394778001306
