13
Coordinates from ORCA-job run
  C   0.75719321753461      0.20187419223433     -0.57782563909582
  C   -0.49282111366202     -0.54225072694132     -0.12411541895866
  F   1.43497262348641     -0.58288732562875     -1.44568123812905
  H   -0.19981167042376     -1.46694688048523      0.37601600043778
  H   0.54803308457128      1.17817189852436     -1.01114347027834
  N   1.62850821701561      0.42156942781522      0.63406275401817
  O   1.90154744332827      1.58608239619764      0.91110698134058
  O   1.98287291040731     -0.59256121858950      1.22623918502943
  C   -1.37955732803220     -0.78974380196040     -1.25079193681630
  N   -2.08505704685906     -0.99151757101893     -2.16756818505773
  N   -1.20121033440298      0.31714278283603      0.90103904196001
  O   -1.52975005220593      1.43516354219309      0.51957767871011
  O   -1.36491995075755     -0.17509671517654      2.01008424683984
