13
Coordinates from ORCA-job run
  C   0.76052846253538      0.03753017272668     -0.59429122790763
  C   -0.50262328348206     -0.46938118919086      0.10312529561257
  F   1.27701882411923     -0.93116004616210     -1.37456948284064
  H   -0.25631317273766     -1.12336073293324      0.94195390310746
  H   0.56169414341851      0.93797663868377     -1.17675419144334
  N   1.78172413851509      0.40689283783880      0.45999227487510
  O   1.32069091420943      1.00731001828301      1.42617749003426
  O   2.94636500663212      0.11309178780586      0.24885886380513
  C   -1.36238521200401     -1.15429246020841     -0.85534741195002
  N   -2.05778134736880     -1.70212871810510     -1.62704557179408
  N   -1.29248697321596      0.69039636012710      0.68499565733074
  O   -1.41240918453047      1.67333149758653     -0.03392867493859
  O   -1.76502231609083      0.51379383354796      1.79683307610906
