13
Coordinates from ORCA-job run
  C   0.77744909650678     -0.06499972971226     -0.56835261971483
  C   -0.49188789123559     -0.45530005222392      0.18847829863866
  F   1.34834190713383     -1.15978668799457     -1.10763391111944
  H   -0.25536179570160     -0.90734852029747      1.15330816259712
  H   0.57218498529070      0.68121516814117     -1.33672168852603
  N   1.75498470645611      0.55808087341356      0.40513233117481
  O   1.24417309191702      1.27974831675841      1.25694067986448
  O   2.94015159098107      0.32198122503446      0.23964595840167
  C   -1.30253994393318     -1.35426799848089     -0.62477088442928
  N   -1.96047937389318     -2.06989570920138     -1.28359287495143
  N   -1.33247216124533      0.77333189929974      0.49250266791064
  O   -1.42025276941743      1.60264489920842     -0.40282587358158
  O   -1.87329144285919      0.79359631605472      1.58688975373522
