13
Coordinates from ORCA-job run
  C   0.78252178767852     -0.00103821314310     -0.57882579953636
  C   -0.48395809937751     -0.56244758796710      0.05679013406152
  F   1.50481401120093     -1.02622701951273     -1.08297780307902
  H   -0.21081776254391     -1.23903031665506      0.86847285785479
  H   0.58697403897468      0.75390173550152     -1.33838985020605
  N   1.59288624109899      0.65331652806576      0.51279335087776
  O   1.81778251771115      1.85346685010784      0.38560555722854
  O   1.94837956738024     -0.08356765146971      1.42660221794254
  C   -1.31267110608330     -1.21747061053701     -0.94361705770112
  N   -1.97206834013004     -1.74903271927599     -1.75692534447703
  N   -1.24367204379924      0.59357330402678      0.67231229216056
  O   -1.41970487969067      0.54919109295233      1.88354732552493
  O   -1.59046593241984      1.47536460790648     -0.10538788065107
