13
Coordinates from ORCA-job run
  C   0.93942409136757     -0.36833739450913      0.34589603383176
  C   -0.54741510612078     -0.64110334652930      0.13155423120238
  F   1.15450026612426     -0.20388798303804      1.66685400393999
  H   -0.81481065539412     -1.50689466511811      0.74214905626443
  H   1.54801969793316     -1.18532044922432     -0.04501625666274
  N   1.39126604026981      0.87487393002801     -0.39361903690223
  O   1.43669634768175      0.73533487527022     -1.60918248321590
  O   1.67168584576060      1.86000778285861      0.26842683654797
  C   -0.92034308272232     -0.85891401757393     -1.25757195401597
  N   -1.26357217627317     -1.08647050134309     -2.35729892861336
  N   -1.34676932335469      0.51809990494567      0.70054507877166
  O   -1.26130977817506      1.57597679015489      0.08997369828521
  O   -1.98637216709702      0.28563507407852      1.71728972056679
