13
Coordinates from ORCA-job run
  C   0.91303752345338     -0.38779221526359      0.40396348147338
  C   -0.57470718992610     -0.61916002084780      0.14540796300453
  F   1.09141161350280     -0.17233809060289      1.72225598932706
  H   -0.90008359965466     -1.43082307232537      0.80059113696813
  H   1.50820942897551     -1.23757533511192      0.06651995984387
  N   1.41876587662661      0.81133607330791     -0.37184641411020
  O   1.54905928228186      0.60587279391024     -1.57202503372745
  O   1.64364481860362      1.83552323079466      0.25210811190367
  C   -0.89121923381200     -0.91656618251143     -1.24270286743193
  N   -1.19677101447264     -1.18459072032829     -2.34443397726632
  N   -1.34518409492363      0.60708849873358      0.60217875448221
  O   -1.28395256434900      1.58498999741125     -0.13208378117646
  O   -1.93221084630573      0.50403504283365      1.67106667670952
