13
Coordinates from ORCA-job run
  C   0.83008177047010     -0.01552432461901     -0.51646646170717
  C   -0.50508850034241     -0.54732608610060     -0.00166723009217
  F   1.55016589791309     -1.04854910696657     -1.00003706305240
  H   -0.32196937768832     -1.25674693944300      0.80814518314739
  H   0.71880999528547      0.77160850712328     -1.26123229219423
  N   1.56032869044260      0.57670266838361      0.66411134442682
  O   1.58690501675365      1.80271885635907      0.71765007549238
  O   2.02534358772726     -0.22264006474598      1.46610787875001
  C   -1.26851536454648     -1.14599089628643     -1.08526641261048
  N   -1.87094174284754     -1.63320118925648     -1.96764994169950
  N   -1.26575572753303      0.62301691503765      0.58580067787842
  O   -1.68039587657587      1.45001781244190     -0.21643542998550
  O   -1.35896836905853      0.64691384807257      1.80693967164643
