20

C	0.0	0.0	0.0
C	-0.253116	-0.005209	-1.545616
Br	1.975734	0.0	0.0
H	0.318685	0.835648	-1.94305
C	-0.553393	1.297316	0.554624
H	-0.227341	1.430146	1.590276
H	-1.64947	1.160513	0.509519
H	-0.227139	2.163463	-0.029156
C	-0.560219	-1.168275	0.779703
H	-0.203353	-2.127303	0.41052
H	-1.654435	-1.065215	0.669523
H	-0.279352	-1.059523	1.832284
C	-1.665439	0.052178	-2.101524
H	-2.305501	-0.727928	-1.704192
H	-2.157289	0.970083	-1.79419
H	-1.577418	0.019935	-3.194955
N	0.392822	-1.182128	-2.229323
O	1.191294	-0.938395	-3.13618
O	0.035355	-2.313803	-1.90873
F	-3.176037	0.0	0.0
