20

C	0.0	0.0	0.0
C	-0.599323	0.152633	-1.405812
Br	1.969496	0.0	0.0
H	-1.680818	0.285382	-1.150228
C	-0.461741	1.127863	0.916085
H	-0.108098	2.103654	0.584957
H	-0.096093	0.944201	1.930342
H	-1.557777	1.072724	0.877416
C	-0.487269	-1.322066	0.580479
H	-0.167125	-1.399847	1.622933
H	-0.097709	-2.184693	0.036891
H	-1.584022	-1.249854	0.517732
C	-0.388628	-1.022701	-2.337813
H	-0.720738	-0.762993	-3.345082
H	-0.999784	-1.855301	-1.989052
H	0.659451	-1.324519	-2.391348
N	-0.107643	1.401466	-2.062566
O	0.773921	1.306704	-2.921757
O	-0.609714	2.472251	-1.714635
F	-2.984638	0.0	0.0
