20

C	0.0	0.0	0.0
C	-0.250435	0.05609	-1.546063
Br	1.975605	0.0	0.0
H	0.322844	0.910945	-1.909834
C	-0.568553	1.270892	0.597923
H	-0.245988	2.161371	0.049317
H	-0.257064	1.369436	1.641956
H	-1.663638	1.125015	0.536367
C	-0.572061	-1.199183	0.723598
H	-0.214826	-2.143695	0.31903
H	-0.30799	-1.135414	1.784237
H	-1.665215	-1.087652	0.604861
C	-1.664153	0.142068	-2.092586
H	-2.312884	-0.641991	-1.715569
H	-2.143016	1.055661	-1.752274
H	-1.585409	0.149436	-3.186683
N	0.388626	-1.093526	-2.279853
O	1.186662	-0.815059	-3.177229
O	0.026005	-2.235986	-2.00737
F	-3.1958	0.0	0.0
