16

C	-0.409297	0.081327	-1.457878
C	0.0	0.0	0.0
F	0.015776	-1.002053	-2.161596
H	1.095877	0.0	0.0
H	-0.054973	1.001936	-1.919533
N	-1.919709	0.107022	-1.577713
O	-2.4624	1.207707	-1.509024
O	-2.505631	-0.968262	-1.678899
C	-0.493292	-1.268531	0.681863
H	-0.21942	-2.156734	0.110385
H	-1.581183	-1.263895	0.812785
H	-0.021501	-1.337833	1.664485
N	-0.400655	1.245371	0.64947
H	-1.286655	1.142862	1.127832
H	0.307971	1.494843	1.326614
Cl	3.416886	0.0	0.0
