16

C	-0.558827	0.095463	-1.401527
C	0.0	0.0	0.0
F	-0.069609	1.190116	-2.052912
H	1.100887	0.0	0.0
H	-1.649661	0.153674	-1.394811
N	-0.21818	-1.121863	-2.226461
O	-1.037071	-2.042942	-2.152107
O	0.817547	-1.125666	-2.875286
C	-0.504447	-1.24099	0.714443
H	-0.13357	-1.227455	1.743674
H	-0.12746	-2.152706	0.247469
H	-1.598602	-1.268372	0.732538
N	-0.52363	1.208106	0.679053
H	-0.247719	1.13321	1.654871
H	0.003449	1.998206	0.318329
Cl	3.524856	0.0	0.0
