16

C	-0.551712	0.044777	-1.409831
C	0.0	0.0	0.0
F	0.036317	1.030979	-2.136557
H	1.095026	0.0	0.0
H	-1.630338	0.206214	-1.397259
N	-0.360707	-1.250219	-2.164217
O	-1.217951	-2.110462	-1.944282
O	0.594733	-1.362362	-2.920679
C	-0.492799	-1.204917	0.78456
H	-0.131957	-2.141931	0.362365
H	-0.098537	-1.131439	1.799607
H	-1.585364	-1.241341	0.825438
N	-0.479866	1.2597	0.60898
H	-0.75116	1.077216	1.56684
H	0.304393	1.905969	0.635229
Cl	3.442782	0.0	0.0
