16

C	-0.54401	0.037395	-1.407272
C	0.0	0.0	0.0
F	-0.063135	1.117434	-2.089117
H	1.100909	0.0	0.0
H	-1.633753	0.073822	-1.416682
N	-0.173959	-1.194978	-2.188489
O	-0.976747	-2.12626	-2.108581
O	0.868257	-1.191971	-2.825583
C	-0.500271	-1.216127	0.760439
H	-1.592822	-1.256319	0.772635
H	-0.112801	-2.140621	0.333754
H	-0.137687	-1.158184	1.789268
N	-0.530762	1.226295	0.63079
H	-0.005183	2.004805	0.242888
H	-0.263271	1.188344	1.608765
Cl	3.482562	0.0	0.0
