16

C	-0.498464	0.013021	-1.436012
C	0.0	0.0	0.0
F	0.007154	1.077437	-2.124468
H	1.095627	0.0	0.0
H	-1.589949	0.052182	-1.492494
N	-0.127573	-1.236908	-2.189867
O	0.949952	-1.270203	-2.765823
O	-0.960245	-2.145875	-2.141344
C	-0.50611	-1.215854	0.756384
H	-1.600394	-1.282632	0.733704
H	-0.182614	-1.115662	1.792277
H	-0.097739	-2.143551	0.354431
N	-0.426707	1.225724	0.673167
H	0.111587	2.002201	0.308966
H	-1.41154	1.408082	0.501057
Cl	3.501289	0.0	0.0
