17

C	-0.548209	0.004747	-1.45047
C	0.0	0.0	0.0
Br	0.109388	-1.675825	-2.267656
H	1.091291	0.0	0.0
N	-1.967308	0.033363	-1.630037
H	-2.313753	0.967216	-1.442583
H	-2.424503	-0.61985	-1.006536
C	0.081253	1.163498	-2.210672
H	-0.247223	1.128381	-3.250723
H	1.168968	1.115961	-2.168865
H	-0.246063	2.110059	-1.767121
N	-0.410786	-1.237891	0.752595
O	0.489015	-1.953012	1.175056
O	-1.617752	-1.452705	0.890028
C	-0.523792	1.151268	0.700123
N	-0.960829	2.11756	1.218907
Br	2.754114	0.0	0.0
