17

C	-0.487632	-0.002311	-1.44901
C	0.0	0.0	0.0
Br	0.44407	1.526438	-2.292867
H	1.091197	0.0	0.0
N	0.027578	-1.205515	-2.079961
H	-0.616791	-1.967165	-1.897842
H	0.10764	-1.073016	-3.080348
C	-1.975357	0.257227	-1.644916
H	-2.208896	0.299217	-2.711616
H	-2.535405	-0.560512	-1.186577
H	-2.27941	1.197933	-1.182433
N	-0.380259	-1.255512	0.744901
O	0.297361	-1.502015	1.736643
O	-1.271105	-1.984177	0.291263
C	-0.51252	1.099486	0.786134
N	-0.942383	2.00016	1.416357
Br	2.743914	0.0	0.0
