17

C	-0.524164	-0.049867	-1.42458
C	0.0	0.0	0.0
Br	0.480245	1.093891	-2.704941
H	1.090166	0.0	0.0
C	-0.335868	-1.405134	-1.974803
N	-0.314159	-2.484598	-2.443531
N	-1.907068	0.377642	-1.493919
H	-2.263553	0.252604	-2.435419
H	-2.455537	-0.187142	-0.852333
C	-0.393333	-1.205346	0.832656
H	-1.472612	-1.34273	0.950609
H	0.042346	-1.078113	1.824536
H	0.049747	-2.099568	0.390975
N	-0.429782	1.24835	0.637998
O	-0.085537	2.304138	0.09949
O	-1.040363	1.187563	1.718797
H	2.540682	0.0	0.0
