17

C	-0.496578	-0.043084	-1.431134
C	0.0	0.0	0.0
Br	0.572127	1.301529	-2.578556
H	1.090024	0.0	0.0
C	-0.127517	-1.314386	-2.062687
N	0.055334	-2.338958	-2.610376
N	-1.896266	0.152551	-1.57024
H	-2.112382	1.058076	-1.165238
H	-2.159345	0.143559	-2.549036
C	-0.287993	-1.273795	0.777082
H	-1.356828	-1.495446	0.832317
H	0.123885	-1.150359	1.777781
H	0.238699	-2.102994	0.302274
N	-0.438486	1.163684	0.711119
O	-0.924099	2.139979	0.087578
O	-0.183276	1.207178	1.93029
H	2.394254	0.0	0.0
