17

C	-0.228264	0.066233	-1.513847
C	0.0	0.0	0.0
Br	-0.173383	-2.022313	-2.253083
H	1.091516	0.0	0.0
C	-1.581315	0.384341	-1.953943
N	-2.671528	0.697527	-2.268771
N	0.757634	0.812283	-2.078017
H	0.76655	0.871903	-3.085281
H	1.674433	0.667139	-1.611893
C	-0.624491	-1.125023	0.779333
H	-0.489222	-0.93021	1.844108
H	-0.11091	-2.050405	0.527892
H	-1.692648	-1.233061	0.581619
N	-0.420243	1.324243	0.552143
O	-1.404058	1.355324	1.303254
O	0.253994	2.310284	0.25287
H	2.691911	0.0	0.0
