17

C	-0.23069	-0.052125	-1.496887
C	0.0	0.0	0.0
Br	-2.167994	-0.67748	-1.941534
H	1.09441	0.0	0.0
C	-0.171495	1.219824	-2.230807
N	-0.077144	2.116264	-2.987281
N	0.690238	-1.012314	-1.993153
H	1.596048	-0.849535	-1.50649
H	0.802877	-0.934362	-2.995392
C	-0.44395	-1.23853	0.737125
H	0.059024	-1.269505	1.705962
H	-0.138714	-2.108711	0.155039
H	-1.522504	-1.257727	0.89204
N	-0.461479	1.230719	0.642573
O	-1.092566	1.143279	1.704475
O	-0.109864	2.300795	0.13599
H	2.55445	0.0	0.0
