18

C	-0.285872	-0.050522	-1.497348
C	0.0	0.0	0.0
Br	-2.270689	-0.387871	-1.872516
H	1.099167	0.0	0.0
C	-0.026824	1.23203	-2.145849
N	0.193588	2.256933	-2.680562
C	0.517076	-1.1469	-2.171121
H	0.394546	-1.129378	-3.255203
H	1.565887	-0.968234	-1.884707
H	0.209086	-2.121065	-1.789583
N	-0.360726	-1.225072	0.702959
H	-1.200163	-1.643594	0.317193
H	0.409236	-1.880423	0.626551
C	-0.559853	1.215449	0.707102
H	-0.225369	2.145908	0.241298
H	-1.655441	1.196852	0.724238
H	-0.197666	1.195532	1.736621
H	2.804349	0.0	0.0
