18

C	-0.434705	0.035828	-1.47593
C	0.0	0.0	0.0
Br	0.05839	-1.673111	-2.341561
H	1.095714	0.0	0.0
C	-1.888083	0.13967	-1.598982
N	-3.054941	0.284346	-1.646895
C	0.283903	1.146007	-2.238112
H	0.108591	1.059468	-3.311723
H	1.351247	1.059868	-2.015218
H	-0.07743	2.121626	-1.905013
N	-0.508417	-1.201639	0.657238
H	0.291525	-1.750175	0.951307
H	-1.038886	-0.955058	1.483375
C	-0.447221	1.256991	0.736464
H	-1.538741	1.308182	0.834662
H	-0.092011	2.170226	0.257581
H	-0.000793	1.228765	1.734666
H	2.914529	0.0	0.0
