18

C	-0.365093	-0.028606	-1.476541
C	0.0	0.0	0.0
Br	-2.35992	-0.299937	-1.724264
H	1.098869	0.0	0.0
C	-0.097691	1.251568	-2.127833
N	0.12094	2.280295	-2.654237
C	0.366312	-1.154001	-2.182483
H	0.069811	-2.095702	-1.722911
H	1.436563	-0.991355	-1.99248
H	0.15538	-1.164159	-3.253662
N	-0.366799	-1.274284	0.610441
H	-1.198986	-1.171499	1.179367
H	0.406103	-1.553931	1.206592
C	-0.500255	1.217695	0.753867
H	-0.169248	2.147441	0.284431
H	-0.082512	1.191606	1.764452
H	-1.594858	1.228055	0.822549
H	2.809221	0.0	0.0
