18

C	-0.487627	-0.034519	-1.458701
C	0.0	0.0	0.0
Br	0.358889	1.419721	-2.515877
H	1.095257	0.0	0.0
C	-0.08324	-1.286381	-2.101756
N	0.173422	-2.316057	-2.608678
C	-1.997874	0.139128	-1.622428
H	-2.287346	0.050557	-2.671351
H	-2.298824	1.120223	-1.255652
H	-2.52602	-0.629306	-1.04846
N	-0.34558	-1.237814	0.705706
H	0.440962	-1.871749	0.6066
H	-1.169684	-1.695989	0.338475
C	-0.517286	1.203526	0.767739
H	0.049694	1.252884	1.699661
H	-1.578997	1.105373	1.021484
H	-0.357226	2.138038	0.222939
H	2.83844	0.0	0.0
