18

C	-0.420704	0.052957	-1.473582
C	0.0	0.0	0.0
Br	0.004809	-1.682553	-2.348172
H	1.102779	0.0	0.0
C	-1.864872	0.223025	-1.629382
N	-3.015819	0.436092	-1.748656
C	0.368515	1.12119	-2.226577
H	1.42841	0.975359	-1.992722
H	0.194832	1.048789	-3.301657
H	0.05973	2.114116	-1.890653
N	-0.585482	-1.174786	0.656751
H	0.005889	-1.968853	0.428134
H	-0.474708	-1.037016	1.656475
C	-0.467184	1.245698	0.740401
H	-0.116405	2.163032	0.267173
H	-0.025837	1.224902	1.741854
H	-1.557835	1.273103	0.833055
H	2.958864	0.0	0.0
