18

C	-0.363045	0.04213	-1.506951
C	0.0	0.0	0.0
Br	0.124109	-1.687742	-2.355172
H	1.096601	0.0	0.0
C	-1.80622	0.167554	-1.708958
N	-2.971285	0.303856	-1.808332
C	0.423432	1.130401	-2.232571
H	0.071374	2.114087	-1.914771
H	0.301385	1.048554	-3.314342
H	1.475562	1.013446	-1.948999
N	-0.481961	-1.157092	0.73122
H	-1.427156	-1.402743	0.454333
H	0.124509	-1.94125	0.526503
C	-0.479128	1.268113	0.69785
H	-0.129517	1.206618	1.729686
H	-1.573081	1.34736	0.706583
H	-0.056986	2.172353	0.255178
H	2.932889	0.0	0.0
