15
Coordinates from ORCA-job run
  C   0.79337189755749     -0.63090271380743      0.35863270172132
  C   -0.46195044620236      0.22115260054036      0.03571500805260
  Br  2.19844124274017     -0.56911478715881     -1.00865518013879
  H   -1.05675176836833      0.24325204675401      0.95272461230101
  C   1.37635515671522     -0.08194727729732      1.58395791551359
  N   1.80645462417860      0.39829660581295      2.56744648633148
  C   0.41594302715208     -2.02727830513194      0.57307849198739
  N   0.07649404000918     -3.13853356974073      0.75443408126550
  N   -1.33641134937718     -0.48785989802289     -0.95797224443026
  O   -0.79942399725941     -0.91843648252432     -1.97354486620789
  O   -2.53199518855378     -0.53748313395732     -0.68367766628372
  C   -0.16841436686705      1.62179823874905     -0.46232303658860
  H   0.48344099019930      2.14393234956529      0.24052406868081
  H   0.31006111282248      1.58869229370243     -1.44046178309875
  H   -1.10661497474638      2.17443203251666     -0.53987858910571
