15
Coordinates from ORCA-job run
  C   0.46493269001360     -0.78562595806323      0.62815708097204
  C   -0.61570355563590      0.19275148827757      0.11942716125925
  Br  -0.37672834093847     -2.44507854193265      1.25091368409381
  H   -1.28172119318460      0.41740368450270      0.95431990371844
  C   1.48031587206837     -1.10972030497574     -0.37278329663824
  N   2.35208854598701     -1.33563624703209     -1.12893321684981
  C   1.11392219567167     -0.15872647730630      1.78015296309212
  N   1.60930402278691      0.39023640774187      2.69447678205373
  N   -1.47970179576420     -0.48063604594838     -0.90511977366592
  O   -2.69122789091400     -0.33759641128051     -0.77390050732914
  O   -0.90528658038929     -1.07825963428186     -1.80929698826033
  C   -0.02171268997435      1.44749254237169     -0.49707637722676
  H   -0.83059749742487      2.11215156692814     -0.80656588879388
  H   0.59431080397007      1.97453147176284      0.23346943222078
  H   0.58580541372805      1.19671245923595     -1.36824095864609
