15
Coordinates from ORCA-job run
  C   0.75684372952068     -0.64827779983029      0.31256654714723
  C   -0.51920403234404      0.19241822302222      0.03631393283246
  Br  1.83467668641585     -0.85681678108105     -1.31580560749205
  H   -1.13436759251934      0.11811321811762      0.93819543970042
  C   1.56816515406470      0.05727101678242      1.30405602918483
  N   2.19136417901068      0.64433401730563      2.11028461980634
  C   0.44842726649411     -1.98530970024376      0.82020772024028
  N   0.23839687282902     -3.05262318551394      1.26716393257932
  N   -1.32398958670659     -0.51294004861917     -1.02733375140055
  O   -1.91093190741811     -1.52993529545901     -0.66463264631495
  O   -1.32498939121227     -0.03402615051209     -2.15639767529583
  C   -0.24706233588366      1.63056890143783     -0.33908164756005
  H   0.24291230602367      2.14419591532621      0.48961736020475
  H   -1.19270231509972      2.13349416311478     -0.54503276834948
  H   0.37446096682500      1.69753350615259     -1.23012148528272
