15
Coordinates from ORCA-job run
  C   0.65081396893645     -0.70794533802243      0.40623978168573
  C   -0.49635015288132      0.24833991026673     -0.01790067806061
  Br  1.82503129379791     -1.12296284036777     -1.11257382497564
  H   -1.18841583064136      0.28962784757880      0.82878261492387
  C   1.45523026291877     -0.03966886880193      1.42865039397600
  N   2.07505491170921      0.52064512672625      2.25624850873365
  C   0.15524832279638     -1.97328010087310      0.94830234409254
  N   -0.20684858021675     -2.98483450069942      1.42653620212726
  N   -1.28419570031559     -0.42329986026836     -1.11579296919397
  O   -1.14365049112499     -0.00460916351892     -2.25986957003233
  O   -2.00350610653799     -1.35480390312735     -0.76205975854846
  C   -0.03618907939534      1.62699491029633     -0.43159281372152
  H   0.66277614459500      1.57958335407968     -1.26466016714557
  H   -0.89966546703888      2.21500146839510     -0.74467653621111
  H   0.43466650339851      2.13021195833640      0.41436647235015
