15
Coordinates from ORCA-job run
  C   0.58840183901041     -0.60395932685592      0.71334448335417
  C   -0.63798245673547      0.04360553129057      0.03241591506215
  Br  0.37440098870659     -0.33788255069413      2.65647708458816
  H   -1.53863678151179     -0.37448403102477      0.48677264923093
  C   0.61530931095508     -2.04671370860604      0.48421250761556
  N   0.59296984901010     -3.21044809228689      0.31839203316961
  C   1.84709564855814      0.02278216231102      0.32068157483687
  N   2.85179266386679      0.56724579987255      0.04453636051501
  N   -0.68552958679646     -0.38629771663495     -1.41138864944551
  O   0.37537922113219     -0.69337679554521     -1.94980241345277
  O   -1.78973608158120     -0.34410869437527     -1.94043116705364
  C   -0.64166858578586      1.56159648640664      0.05940918142861
  H   -1.55502870767706      1.92039709110560     -0.41675027489985
  H   0.22142351251163      1.95594579872505     -0.48105483495507
  H   -0.61719083366311      1.92569804631174      1.08618555000577
