15
Coordinates from ORCA-job run
  C   0.42769541848716     -0.77632240332671      0.66255217289426
  C   -0.61562543196254      0.21045604177876      0.09406424302393
  Br  -0.46709961430448     -2.40588722151583      1.29026957554029
  H   -1.30462692180644      0.46763574094454      0.90041427318312
  C   1.46837097564630     -1.14304167544737     -0.29661040429285
  N   2.35411463015906     -1.40390424259604     -1.02469940534361
  C   1.04994587769865     -0.13682626458675      1.82214464778049
  N   1.52547584834420      0.42036103056052      2.74211868772804
  N   -1.45648778106585     -0.47636068879170     -0.94047055434757
  O   -0.85841000366117     -1.04795046627396     -1.84670441158565
  O   -2.67265710548725     -0.37611556736452     -0.81250410705088
  C   0.02509699299266      1.43645506116263     -0.53249111734458
  H   0.66279452074207      1.15004043359382     -1.37026099206358
  H   0.61948923709636      1.97494712339777      0.20788922835070
  H   -0.75807664287875      2.10551309846486     -0.89471183647212
