15
Coordinates from ORCA-job run
  C   0.32474586755224     -0.67820957882598      0.80852037141977
  C   -0.60907557747567      0.18356405957535     -0.06991992620742
  Br  -0.11237811517763     -0.26675624937113      2.68803318394576
  H   -1.63802430317720     -0.00201032564201      0.24515612307073
  C   0.06100255522179     -2.10220053349078      0.61561595164452
  N   -0.19696298044633     -3.24020156397972      0.47156476222260
  C   1.73630742930367     -0.36449911080057      0.60817132439667
  N   2.86699930346963     -0.06730393745308      0.48421736133588
  N   -0.53585817633938     -0.30323589950344     -1.49413912177566
  O   -1.51102098118636     -0.05013226348977     -2.19130805307008
  O   0.49767676438718     -0.86306737738441     -1.85246226854285
  C   -0.27641696962281      1.66506757277628     -0.07368808098614
  H   -1.00582929864261      2.18761047855579     -0.69392109169811
  H   0.72339011110980      1.83158442560086     -0.48040757222303
  H   -0.32255562897632      2.07079030343260      0.93656703646735
