15
Coordinates from ORCA-job run
  C   0.65049213325207     -0.48933237323591      0.74625060292120
  C   -0.52775598799233      0.32316502405897      0.16463657617111
  Br  1.35546726509083      0.53648055024441      2.27661455110495
  H   -1.22706972397069      0.53502269570192      0.97610538072842
  C   0.19425289216549     -1.77401837850067      1.27196161672866
  N   -0.20381029276993     -2.78390861715560      1.72364079849622
  C   1.74233175260273     -0.66066193089273     -0.20767723855981
  N   2.64074922519581     -0.74612889865494     -0.96112492020698
  N   -1.29351622470045     -0.54055797820818     -0.80432193651848
  O   -0.68332450825153     -1.44941827183881     -1.36256704617794
  O   -2.46274567854911     -0.22312895823081     -0.98690010927450
  C   -0.11605674702157      1.58460799118148     -0.57332518732623
  H   -1.01372406888252      2.09790544318498     -0.92041787650449
  H   0.50901221083916      1.33704933528692     -1.43382604561147
  H   0.43469775299204      2.25292436705899      0.08795083402935
