15
Coordinates from ORCA-job run
  C   0.71330295561338     -0.38959458663591      0.74709897467780
  C   -0.58613449033841      0.20371897303463      0.15925812595640
  Br  1.15669972848507      0.67423643007808      2.34868002299177
  H   -1.33627649758946      0.23007432100547      0.95234403968927
  C   0.50805735752608     -1.76465713396992      1.19629093983591
  N   0.30977981993921     -2.85596061122295      1.58619055651230
  C   1.84399716042362     -0.29145896936329     -0.17116598292588
  N   2.76185046758684     -0.15848746473157     -0.89365133752362
  N   -1.13693048307205     -0.74293594516861     -0.87654196666091
  O   -2.33993922034942     -0.65289548740083     -1.08976647106526
  O   -0.34290684031428     -1.48445464595716     -1.45048935149783
  C   -0.41378003455379      1.55845765186885     -0.50414665323484
  H   -0.02639945220978      2.28708929047209      0.20744171555119
  H   0.27245441622079      1.48470046594958     -1.35041688518874
  H   -1.38577488736781      1.90116771204153     -0.86112572711756
