15
Coordinates from ORCA-job run
  C   0.75813014617676     -0.65165572412118      0.30167616635425
  C   -0.52248121288949      0.18418354680218      0.03297181841615
  Br  1.87217414673018     -0.77845203524206     -1.31105930518750
  H   -1.15634816944153      0.06405840118276      0.91689816536864
  C   1.53945434742626      0.02178041879317      1.33845594186891
  N   2.13741527051721      0.58331535963078      2.18115502103687
  C   0.45736341120673     -2.01269406302226      0.74611908580383
  N   0.25323880276468     -3.10057005837228      1.14348754430191
  N   -1.29465813021577     -0.48497378388124     -1.07756968399934
  O   -1.28031656721264      0.04339259327193     -2.18419393746656
  O   -1.87381597221630     -1.52503389263524     -0.77220807799668
  C   -0.26169097505783      1.64044241334134     -0.27491354152175
  H   -1.20946831365796      2.13941470768495     -0.48001950125067
  H   0.20311245384478      2.12433883571919      0.58548758497086
  H   0.37789076202491      1.75345328084796     -1.14828728069892
