15
Coordinates from ORCA-job run
  C   0.53098535196333     -0.50058438489815      0.82941168790074
  C   -0.45201502632434      0.44052441508286      0.09842026554502
  Br  1.41415447058158      0.56858861514669      2.23273116139527
  H   -1.10415720714438      0.89629352215648      0.84637296374583
  C   -0.18403030716771     -1.57955252393955      1.50719342834746
  N   -0.78956482234170     -2.41021035940214      2.07802519044438
  C   1.57514758187136     -1.01926855235241     -0.04903370900530
  N   2.44450122671770     -1.39077949297845     -0.74778651249491
  N   -1.36481248594641     -0.38086719170734     -0.77579837096205
  O   -0.94415011921743     -1.46110046518332     -1.18292371076547
  O   -2.44339328263266      0.13362801798786     -1.04582539417714
  C   0.21299502622651      1.48140451323455     -0.78419267558899
  H   0.87594557759549      2.11499717830116     -0.19573963012882
  H   0.78884508632461      0.99946768249268     -1.57706872944039
  H   -0.55945107050595      2.10645902605910     -1.23378596481565
