15
Coordinates from ORCA-job run
  C   0.68914574040132     -0.69341996547490      0.36752226832628
  C   -0.51185932888947      0.21320924620223     -0.01498881876701
  Br  1.94235768656554     -0.88110842254405     -1.13324128273508
  H   -1.23157738787625      0.12819052385128      0.80491192016011
  C   1.40553441281176     -0.06581030022224      1.47748300510538
  N   1.95178240915386      0.46002591103372      2.37642348276354
  C   0.27169973035019     -2.03557994141233      0.77330866924361
  N   -0.03108171830706     -3.10999198118076      1.14350854016557
  N   -1.21253434802464     -0.41067716082114     -1.19695727134972
  O   -1.06308393936405      0.11570528048436     -2.29451513737426
  O   -1.87618648617734     -1.41590591522496     -0.95325111622816
  C   -0.14242527151735      1.65272180163098     -0.28851005724350
  H   0.58098054374764      1.72998190431116     -1.09802787717750
  H   -1.03738150305711      2.20471570345634     -0.57791144125661
  H   0.26662946018296      2.10894331591031      0.61424511636735
