15
Coordinates from ORCA-job run
  C   0.76231989783098     -0.63197756340971      0.33083127813522
  C   -0.52945672577534      0.16610172988488      0.00583038363645
  Br  1.97782786137459     -0.67213339145635     -1.21147717537878
  H   -1.20851896672336      0.00113868420104      0.84788130448734
  C   1.45183832352759      0.03708103159352      1.43342462881332
  N   1.97501745898559      0.59167040594514      2.32888206456004
  C   0.48539539168866     -2.01538778017414      0.71823320419129
  N   0.29616315854533     -3.12104695273937      1.07140027081811
  N   -1.21125564934071     -0.50025704248467     -1.16358292246745
  O   -1.76833924720914     -1.56786304813388     -0.91784251850438
  O   -1.15337821133380      0.05715826587131     -2.25448571201106
  C   -0.30244387040563      1.63762290839275     -0.25190313190312
  H   0.37692037436595      1.79346040209684     -1.08792043940247
  H   0.10147999094684      2.11358638873684      0.64323169648301
  H   -1.25456978647756      2.11184596167582     -0.49350293145750
