15
Coordinates from ORCA-job run
  C   0.42161758907161     -0.77287112179332      0.66871591358874
  C   -0.60663147165009      0.23289823835305      0.10542617874942
  Br  -0.50604869554397     -2.35989324595830      1.35615070779931
  H   -1.26792640946295      0.52510127376924      0.92293511952922
  C   1.42216597498806     -1.19512459128374     -0.30993463417832
  N   2.27489504629083     -1.50583360799625     -1.05760297321934
  C   1.09535196877214     -0.12849567640030      1.79617019368193
  N   1.61144746223863      0.43072399345881      2.69271077117352
  N   -1.49182195667273     -0.45181324087415     -0.89332406974821
  O   -2.70165649859583     -0.34592659411261     -0.71865419360348
  O   -0.93219837884098     -1.02948554104944     -1.82023375480986
  C   0.05403765214672      1.42587805914448     -0.56231182550493
  H   0.66136808492714      1.10296079391008     -1.40898494481366
  H   0.68255315227145      1.96112174658945      0.15136259954329
  H   -0.71715351994003      2.11075951424301     -0.92042508818765
