15
Coordinates from ORCA-job run
  C   0.55117036254276     -0.61802608206027      0.73013587015823
  C   -0.63678208599530      0.06740918921709      0.01918219581271
  Br  0.30905968483016     -0.32400887295674      2.66630795959391
  H   -1.56107758299439     -0.31142908292018      0.46039792361570
  C   0.52995922932476     -2.06323977004013      0.51653619885143
  N   0.47000950235814     -3.22736503510368      0.36299747454577
  C   1.83978591325156     -0.04227800632505      0.35706786541659
  N   2.86812246948643      0.46342243942239      0.09453674875607
  N   -0.67319058917114     -0.37576192320471     -1.42086975348742
  O   0.38515836871761     -0.73012759567270     -1.93497645303208
  O   -1.76435753185085     -0.29588297040265     -1.97225431815252
  C   -0.58335697149098      1.58466395150248      0.03053716650133
  H   0.30501317575623      1.94003197019069     -0.49574493173413
  H   -0.56611639515662      1.95931594940151      1.05363939366440
  H   -1.47239754960835      1.97227583895195     -0.46849334050999
