15
Coordinates from ORCA-job run
  C   0.71273254356177     -0.67478411813934      0.35669166395097
  C   -0.52480960356193      0.17599629087066     -0.03711946030726
  Br  2.08663048502937     -0.61937364734132     -1.04565710142168
  H   -1.29521755807548     -0.04200858209602      0.70882961033121
  C   1.29011764311206     -0.11159096722978      1.57682200245907
  N   1.72295655163951      0.35956896886390      2.56357866271888
  C   0.37541347341323     -2.07778779458443      0.59802157113593
  N   0.13420583243063     -3.20353785873969      0.83786870690239
  N   -1.08233485902056     -0.37642920627153     -1.32612516607318
  O   -1.68000275998840     -1.44621106981230     -1.23305044694638
  O   -0.89331232264092      0.26594521833124     -2.35356911995820
  C   -0.25235131074541      1.65854808362827     -0.14350516541219
  H   -1.16368689465674      2.17001409135914     -0.45531657734100
  H   0.52325951703609      1.86827161998203     -0.87778235895013
  H   0.04739926246679      2.05137897117917      0.82931317891158
