15
Coordinates from ORCA-job run
  C   0.32738023976030     -0.72731742577294      0.76628230933940
  C   -0.58607051498482      0.29336001436664      0.05316581549287
  Br  -0.76132189046473     -2.14017741043771      1.58427871322669
  H   -1.24220121734659      0.73503251350097      0.80511969110619
  C   1.32008270048056     -1.34023635091754     -0.11515823888516
  N   2.17225147222400     -1.80055999955724     -0.78199765628433
  C   1.01908400926034     -0.01978833719337      1.84433057475523
  N   1.55696406838995      0.59139318114949      2.69288879102237
  N   -1.49990354676598     -0.41828714396749     -0.89911338437490
  O   -0.97269241104041     -1.17651778607303     -1.70717921380988
  O   -2.69460309832370     -0.15186650825639     -0.81448014173193
  C   0.20066868007892      1.34045514024498     -0.71516851924789
  H   0.79977515814098      0.87212660612268     -1.49754589003655
  H   -0.49399234252152      2.04688974525597     -1.17411083010488
  H   0.85557869311270      1.89449376153497     -0.04031202046724
