15
Coordinates from ORCA-job run
  C   0.67134606204556     -0.69094422138125      0.40256163853795
  C   -0.50549796264347      0.22816890758001     -0.02358440511206
  Br  1.89902585334677     -1.01135349359334     -1.09624001656273
  H   -1.21807936243242      0.21617177330738      0.80675167875030
  C   1.42015082174936     -0.01884379824009      1.46407933260919
  N   1.99229607451230      0.54345111125266      2.32402646700631
  C   0.21735982624164     -1.99086497582851      0.89701823980052
  N   -0.11132850818766     -3.02968413746583      1.33962744669625
  N   -1.23830235140834     -0.44544612343264     -1.15780847527693
  O   -1.92251215735221     -1.41777006257203     -0.84725578242063
  O   -1.09315939944162      0.01255211831243     -2.28607030530675
  C   -0.09493692696781      1.63561401425191     -0.38928503626427
  H   0.34350808301483      2.13150918046616      0.47830262384441
  H   0.61693416864238      1.64002530010224     -1.21286113233873
  H   -0.97680422111933      2.19841440724092     -0.69826227396282
