15
Coordinates from ORCA-job run
  C   0.44695682767509     -0.78021597952753      0.64510053721999
  C   -0.61900097908731      0.19571347297702      0.10061885199293
  Br  -0.41315413636983     -2.43907521323649      1.24490429000519
  H   -1.31080396553655      0.41996641341310      0.91421684075557
  C   1.49004258509671     -1.10875250889516     -0.32532535615090
  N   2.37603404895371     -1.34286886053319     -1.06208724937807
  C   1.06151703280789     -0.15082571589167      1.81430514708896
  N   1.52801345292429      0.39790407892112      2.74399767105930
  N   -1.44839328751480     -0.48647321602264     -0.94634785368964
  O   -2.66598880554137     -0.41446306253711     -0.81325950351156
  O   -0.84144602152523     -1.02463067716852     -1.86700181326727
  C   -0.00742272524263      1.44843956834070     -0.50154726768451
  H   -0.80641989777464      2.10662666045340     -0.84881365944218
  H   0.57645980753734      1.98504710130583      0.24847862374745
  H   0.63460606359733      1.19360793840112     -1.34623925874525
