15
Coordinates from ORCA-job run
  C   0.30387619073358     -0.75303553631962      0.75246654931569
  C   -0.57970192034989      0.30349979166427      0.05421772832423
  Br  -0.82407858859701     -2.16193253160209      1.52253204469583
  H   -1.23613632205957      0.74015092402704      0.80879663087041
  C   1.29379094865163     -1.36485514130029     -0.13291240116609
  N   2.14155204511981     -1.82631333317618     -0.80452434110420
  C   0.99674868439765     -0.08611263595871      1.85527602017384
  N   1.53343677796080      0.49475260607108      2.72557965451127
  N   -1.49624377512599     -0.36415108811419     -0.92742044023572
  O   -2.68535345026271     -0.07131927889192     -0.85207023102213
  O   -0.97591384404951     -1.11482897644041     -1.74672923068297
  C   0.23720283710164      1.35303146540579     -0.67891389347856
  H   0.83538123501320      0.89191800561835     -1.46617026567180
  H   0.89566436127901      1.87685293720527      0.01608460768934
  H   -0.43822517981262      2.08434279181160     -1.12721243221913
