15
Coordinates from ORCA-job run
  C   0.73297178907427     -0.65273140557733      0.35582523296148
  C   -0.52469978148283      0.18089376008392     -0.00992991568886
  Br  1.98691775968261     -0.74319492435849     -1.15325324999152
  H   -1.23293948119142      0.04194988118513      0.81263604156478
  C   1.41449208649434      0.00528052468983      1.47009882089330
  N   1.93216859213868      0.55259299821620      2.37316137512617
  C   0.40367532932107     -2.02350979860529      0.74694245467230
  N   0.17329319108974     -3.11986388664313      1.10471495154251
  N   -1.19175727243891     -0.47223883847471     -1.19535680713579
  O   -1.78918790869162     -1.52009978422249     -0.96015047656993
  O   -1.08233162136853      0.07514435681409     -2.28736282191693
  C   -0.24761847525203      1.64385806938052     -0.26823659656666
  H   0.13513016666094      2.11466788314449      0.63862375209325
  H   -1.17665661414274      2.14150218262602     -0.54874982492039
  H   0.46654224010642      1.77574898174123     -1.07896293606372
