15
Coordinates from ORCA-job run
  C   0.70299956906476     -0.68407782606585      0.35724904305532
  C   -0.52355500370501      0.17968463233574     -0.04281491300420
  Br  2.09888590574504     -0.61565930260797     -1.02286956505029
  H   -1.30651835635027     -0.04515224138956      0.68792356656103
  C   1.26493687762277     -0.14293715994174      1.59437656296184
  N   1.68580103460718      0.30946231295614      2.59500659388441
  C   0.35408103384484     -2.08861350816219      0.57198116633552
  N   0.10363295249888     -3.21649032857574      0.79156768711387
  N   -1.06354567860559     -0.34945032252409     -1.34847687094586
  O   -1.66873498701621     -1.41692793655778     -1.28149594816821
  O   -0.85457986250078      0.30762335523527     -2.36272826835948
  C   -0.24124228588920      1.66218231653835     -0.12125622152332
  H   0.04328016214530      2.03764419719079      0.86292803453986
  H   -1.14443246677063      2.18340342007951     -0.44073195244288
  H   0.54799110530893      1.87930839148911     -0.83865891495761
