15
Coordinates from ORCA-job run
  C   0.44962770812375     -0.77263415845381      0.65259308360364
  C   -0.61383506586503      0.20786202616728      0.11150727677096
  Br  -0.42099690553325     -2.40138563729318      1.31495209295053
  H   -1.28125632910469      0.46324455093829      0.93631455176367
  C   1.46224504663911     -1.14107110446980     -0.33568861488122
  N   2.32718130555264     -1.40367528645923     -1.08774615406124
  C   1.10600665907850     -0.12524779859112      1.78879995645429
  N   1.61082478733170      0.43838306844186      2.68908282830630
  N   -1.48011223952419     -0.48537713869816     -0.89765421277234
  O   -0.90510812660769     -1.05459649214678     -1.82014106781642
  O   -2.69270071461469     -0.39071319487865     -0.73575363865482
  C   0.00243237892972      1.43571127686714     -0.53558005226463
  H   0.61326468507942      1.97983368039760      0.18704640508116
  H   -0.79441597552595      2.09896170457043     -0.87815266206746
  H   0.61884278604067      1.15070450360814     -1.38957979241243
