15
Coordinates from ORCA-job run
  C   0.56917561402560     -0.62460086867373      0.71106314609455
  C   -0.63730837192351      0.05771302221269      0.02888592385928
  Br  0.34799386252052     -0.37323164572320      2.65490426700629
  H   -1.55042547091257     -0.34402492752239      0.47301621828375
  C   0.56561780884236     -2.06527950050611      0.46720174573749
  N   0.51937057140247     -3.22659505466648      0.28971776079534
  C   1.84464529783857     -0.02309449176476      0.33309292517710
  N   2.86261480391845      0.50235671926915      0.06894723029237
  N   -0.68524799907241     -0.35618517404379     -1.41970519887174
  O   0.37166134267034     -0.68377764274427     -1.95412277529248
  O   -1.78451492879308     -0.28207363426769     -1.95557490110189
  C   -0.60595194373707      1.57506284911666      0.07051346187178
  H   -1.50754029595261      1.95904156947683     -0.40840414828763
  H   0.26958180876479      1.95387580169202     -0.46097164685132
  H   -0.57967209959185      1.92981297814507      1.10043599128713
