15
Coordinates from ORCA-job run
  C   0.63919850515984     -0.52254708996867      0.73336891433951
  C   -0.51193102262373      0.34299809539637      0.17429487023834
  Br  1.40496164477906      0.45868785464690      2.26388013545356
  H   -1.19148457862360      0.57587934334579      0.99672088991073
  C   0.13725283564479     -1.79244063247800      1.25327401552880
  N   -0.29556048184476     -2.79004011225176      1.70024996187520
  C   1.71111836626000     -0.72931156174302     -0.23599007685889
  N   2.59553760548341     -0.84488467740757     -1.00188709224019
  N   -1.32477422190483     -0.47980262066025     -0.79173191461246
  O   -2.48222561009441     -0.11338610187204     -0.95610212517694
  O   -0.75944461501088     -1.40721961528793     -1.36632487355042
  C   -0.05790986772904      1.59334344838647     -0.55756360807508
  H   0.52911803345640      2.23114630654162      0.10276870428640
  H   -0.93763306446767      2.14767235544157     -0.88697072077373
  H   0.54477647151543      1.32890500791052     -1.42898708034483
