17

C	-0.273412	0.044618	-1.539949
C	0.0	0.0	0.0
Cl	0.069905	-1.614274	-2.172028
H	1.09029	0.0	0.0
C	-1.67131	0.320187	-1.874949
N	-2.793814	0.558587	-2.133652
C	0.711827	1.001024	-2.206046
H	1.689664	0.769103	-1.762692
H	0.448808	2.030961	-1.962618
H	0.701199	0.866089	-3.289299
N	-0.543612	-1.069751	0.758069
H	-1.472687	-1.346732	0.468624
H	0.095043	-1.849661	0.707839
N	-0.538358	1.293443	0.542282
O	0.146567	2.308541	0.412599
O	-1.65669	1.271223	1.0617
F	2.604019	0.0	0.0
