17

C	-0.343263	-0.041477	-1.483987
C	0.0	0.0	0.0
Cl	-2.137705	-0.287694	-1.723726
H	1.092908	0.0	0.0
C	0.007493	1.162116	-2.242013
N	0.279181	2.02446	-2.992999
C	0.429718	-1.213411	-2.079289
H	0.32572	-1.23832	-3.165172
H	1.470894	-1.05819	-1.77523
H	0.05926	-2.136383	-1.635377
N	-0.42893	-1.187849	0.661042
H	0.227005	-1.378937	1.40798
H	-1.352356	-1.073751	1.058831
N	-0.512226	1.249599	0.652604
O	-1.131756	1.139096	1.715996
O	-0.252704	2.324785	0.115703
F	2.548803	0.0	0.0
