17

C	-0.493174	0.006627	-1.465745
C	0.0	0.0	0.0
Cl	0.331707	1.284175	-2.426879
H	1.090454	0.0	0.0
C	-0.10963	-1.282378	-2.049678
N	0.14897	-2.326738	-2.52216
C	-1.998713	0.203289	-1.63516
H	-2.274434	0.096776	-2.685708
H	-2.549782	-0.532178	-1.043991
H	-2.279116	1.19959	-1.294223
N	-0.382509	-1.167308	0.732393
H	0.404899	-1.799783	0.720222
H	-1.225782	-1.630692	0.428281
N	-0.592754	1.210412	0.652232
O	0.001657	2.279439	0.523606
O	-1.670779	1.082834	1.242985
F	2.538225	0.0	0.0
