17

C	-0.526772	-0.00842	-1.449998
C	0.0	0.0	0.0
Cl	0.022104	1.435696	-2.373788
H	1.090353	0.0	0.0
C	0.063279	-1.179359	-2.106953
N	0.447929	-2.116268	-2.701946
C	-2.045481	-0.089746	-1.558001
H	-2.499116	0.793964	-1.10715
H	-2.390011	-0.984072	-1.03614
H	-2.344088	-0.148377	-2.606207
N	-0.45507	-1.198591	0.644805
H	0.290332	-1.51175	1.254616
H	-1.294793	-1.028271	1.183877
N	-0.526338	1.232449	0.684286
O	0.085725	2.285506	0.536166
O	-1.564487	1.126247	1.357499
F	2.534183	0.0	0.0
