17

C	-0.591109	-0.009072	-1.424503
C	0.0	0.0	0.0
Cl	0.193022	1.184481	-2.518997
H	1.093413	0.0	0.0
C	-0.310259	-1.327304	-2.002004
N	-0.150093	-2.363795	-2.529009
C	-2.096536	0.230973	-1.444163
H	-2.582877	-0.49734	-0.791085
H	-2.307811	1.242851	-1.09643
H	-2.486005	0.120601	-2.455756
N	-0.42681	-1.202233	0.671353
H	-1.121826	-0.985581	1.373285
H	0.390606	-1.578931	1.135738
N	-0.488236	1.22153	0.709979
O	-0.221243	2.314154	0.214628
O	-1.144688	1.085516	1.753221
F	2.519265	0.0	0.0
