13

C	0.0	0.0	0.0
C	-0.567709	-0.095214	-1.393404
Cl	1.768246	0.0	0.0
H	-1.648942	0.127114	-1.332965
H	-0.370023	-0.837192	0.584144
H	-0.353368	0.932081	0.433611
N	-0.450966	-1.446502	-2.014419
O	0.148499	-2.325235	-1.398858
O	-1.001433	-1.576784	-3.101903
N	0.091536	0.905294	-2.290415
O	-0.087923	2.072981	-1.953639
O	0.772472	0.519716	-3.23402
Br	-3.536247	0.0	0.0
