13

C	0.0	0.0	0.0
C	-0.565222	-0.027672	-1.395865
Cl	1.769628	0.0	0.0
H	-1.64841	-0.233814	-1.310247
H	-0.369182	0.887033	0.506101
H	-0.357527	-0.88857	0.514783
N	0.086749	-1.108206	-2.199171
O	-0.144538	-2.244747	-1.797807
O	0.817182	-0.808466	-3.137417
N	-0.439993	1.261084	-2.136854
O	-0.973464	1.286156	-3.241215
O	0.135952	2.199764	-1.59213
Br	-3.527827	0.0	0.0
