13

C	0.0	0.0	0.0
C	-0.411152	-0.233586	-1.450145
Cl	1.774052	0.0	0.0
H	0.471391	-0.458854	-2.05467
H	-0.363186	-0.804611	0.627047
H	-0.371468	0.957182	0.345018
N	-0.951391	0.992084	-2.151077
O	-1.140894	0.860083	-3.356492
O	-1.021998	2.042195	-1.528265
N	-1.223971	-1.502479	-1.673803
O	-2.004425	-1.567841	-2.602204
O	-0.843208	-2.432466	-0.970465
Br	-3.259329	0.0	0.0
