13

C	0.0	0.0	0.0
C	-0.565109	-0.04678	-1.395395
Cl	1.769755	0.0	0.0
H	-1.648618	0.161404	-1.32183
H	-0.369856	-0.8583	0.553068
H	-0.356043	0.91543	0.466643
N	-0.436449	-1.371977	-2.068554
O	0.142805	-2.279326	-1.476044
O	-0.970272	-1.456059	-3.169847
N	0.084149	0.992573	-2.253241
O	0.812696	0.646894	-3.176794
O	-0.147925	2.147243	-1.909053
Br	-3.530762	0.0	0.0
