13

C	0.0	0.0	0.0
C	-0.565052	0.078868	-1.394809
Cl	1.769754	0.0	0.0
H	-1.648173	-0.134375	-1.331519
H	-0.357267	-0.925508	0.445321
H	-0.368666	0.845509	0.573283
N	0.09037	-0.93809	-2.277048
O	-0.143409	-2.10106	-1.964014
O	0.824038	-0.567433	-3.186422
N	-0.437251	1.420416	-2.035683
O	-0.966602	1.528819	-3.137254
O	0.137657	2.314588	-1.419489
Br	-3.535507	0.0	0.0
