13

C	0.0	0.0	0.0
C	-0.563792	-0.134847	-1.390154
Cl	1.771073	0.0	0.0
H	-1.649211	-0.32365	-1.292462
H	-0.368436	0.923741	0.436235
H	-0.356502	-0.846653	0.581735
N	0.078977	-1.28446	-2.09974
O	-0.161602	-2.380732	-1.604083
O	0.810985	-1.070763	-3.059953
N	-0.421986	1.087824	-2.233895
O	0.166716	2.059649	-1.766595
O	-0.952961	1.029729	-3.33827
Br	-3.531128	0.0	0.0
