13

C	0.0	0.0	0.0
C	-0.565807	-0.001828	-1.395861
Cl	1.769935	0.0	0.0
H	-1.649345	0.202882	-1.315232
H	-0.369021	-0.876031	0.525166
H	-0.356225	0.899663	0.49623
N	-0.436318	-1.304149	-2.112166
O	-0.971232	-1.352826	-3.215021
O	0.14462	-2.22973	-1.550208
N	0.081659	1.065818	-2.219675
O	0.809318	0.751304	-3.154965
O	-0.151102	2.208221	-1.837285
Br	-3.53332	0.0	0.0
