18

C	0.0	0.0	0.0
C	-0.274623	-0.177925	-1.53578
Cl	1.798123	0.0	0.0
H	0.353022	0.583603	-2.009513
N	-0.499285	1.298586	0.383959
H	-0.317498	1.436054	1.372968
H	-1.514876	1.25923	0.281832
C	-0.513382	-1.15283	0.842467
H	-0.094202	-2.110228	0.528245
H	-1.605166	-1.174363	0.757249
H	-0.251487	-0.982119	1.890249
C	-1.702859	0.003217	-2.04463
H	-2.069893	1.005319	-1.829865
H	-2.410683	-0.688566	-1.597936
H	-1.707638	-0.137496	-3.12866
C	0.23249	-1.479765	-1.981363
N	0.599278	-2.527195	-2.365847
Br	-4.404173	0.0	0.0
