18

C	0.0	0.0	0.0
C	-0.278343	-0.041545	-1.546126
Cl	1.806984	0.0	0.0
H	0.281863	0.808082	-1.958221
N	-0.492868	1.182792	0.639102
H	-0.31874	2.003162	0.069127
H	-1.499302	1.083875	0.768914
C	-0.533661	-1.21793	0.719812
H	-0.146758	-2.137501	0.279368
H	-0.240709	-1.168346	1.769714
H	-1.627418	-1.209516	0.655392
C	-1.736886	0.076366	-1.974144
H	-1.779686	0.140729	-3.065368
H	-2.208476	0.960273	-1.550329
H	-2.339337	-0.766787	-1.646152
C	0.302374	-1.245987	-2.148644
N	0.720657	-2.224284	-2.647276
Br	-4.450748	0.0	0.0
