16

C	0.0	0.0	0.0
C	-0.522876	-0.047343	-1.433363
F	1.351753	0.0	0.0
H	-1.552902	0.332771	-1.383865
N	-0.359788	1.324677	0.685509
O	-0.573938	2.283572	-0.041987
O	-0.271107	1.32857	1.907474
C	-0.452417	-1.110343	0.844315
N	-0.576995	-2.075031	1.504112
C	-0.56478	-1.486227	-1.955387
H	-1.334172	-2.030836	-1.407336
H	-0.834192	-1.478695	-3.012942
H	0.402414	-1.983954	-1.843907
C	0.303799	0.794776	-2.295593
N	0.948876	1.418207	-3.054397
Cl	-3.278914	0.0	0.0
