16

C	0.0	0.0	0.0
C	-0.391743	0.200056	-1.499484
F	1.354863	0.0	0.0
H	0.586233	0.075362	-1.987088
N	-0.333431	1.125418	0.978628
O	-0.600934	0.79984	2.125678
O	-0.132101	2.265009	0.574624
C	-0.435383	-1.281455	0.56366
N	-0.46439	-2.388004	0.961494
C	-0.949999	1.547822	-1.972382
H	-1.850606	1.800213	-1.418552
H	-0.201515	2.330004	-1.859083
H	-1.197755	1.4432	-3.031358
C	-1.174824	-0.921378	-2.03041
N	-1.584526	-1.814557	-2.676647
Cl	-3.000634	0.0	0.0
