15

C	-0.480692	-0.12105	-1.439889
C	0.0	0.0	0.0
Br	-0.319946	1.622938	-2.352174
H	1.094998	0.0	0.0
H	-1.55612	-0.321677	-1.480491
H	-0.35137	0.93874	0.435878
C	0.301735	-1.153781	-2.231754
H	-0.009457	-1.178309	-3.278358
H	0.133706	-2.145701	-1.80058
H	1.369201	-0.931686	-2.166953
C	-0.489224	-1.175849	0.84731
H	-1.58238	-1.257715	0.845159
H	-0.070897	-2.122041	0.498052
H	-0.159353	-1.04568	1.880792
Br	3.751545	0.0	0.0
