13
Coordinates from ORCA-job run
  C   -0.80663015061262     -0.11516791458992      0.06169699753791
  C   0.54445857291345      0.01483591679519     -0.07732507528781
  C   -1.59584375647460     -1.16812985084363     -0.49127766407147
  N   -2.37417110505656     -1.96172317857261     -0.88043540890457
  N   -1.51019560369127      0.91489916044544      0.67626023963311
  H   -2.42337958314560      0.64735419671693      1.01296842934968
  H   -0.94871345115115      1.39709134862022      1.36987879884124
  N   1.37389953725117     -1.02187161563461     -0.67721760996646
  O   0.83382806351520     -2.04231619216341     -1.09517170622538
  O   2.58803246182385     -0.79682628148313     -0.69968803579948
  N   1.18803331276129      1.13778098608070      0.43174526534945
  H   2.19150621979845      1.00924992270229      0.43677303158064
  H   0.93917548206841      1.98382350192656     -0.06920726203686
