13
Coordinates from ORCA-job run
  C   -0.78582512038019     -0.14714395871487      0.16668415242527
  C   0.53178337264120      0.03185388329211     -0.13892789112570
  C   -1.55724943499263     -1.30500709585179     -0.15172771718467
  N   -2.31644586130481     -2.18452225177856     -0.34440467163348
  N   -1.48783661475268      0.92073135069860      0.71545714876538
  H   -2.34310942620929      0.65599421493095      1.18159403159359
  H   -0.89159384920271      1.52056257452825      1.27540905192083
  N   1.36202789997772     -1.03385936367022     -0.68449856052952
  O   2.54901042481044     -0.75071312544059     -0.87447923573953
  O   0.85113576885938     -2.12977033256891     -0.89802264866602
  N   1.14913777163430      1.24587178965511      0.14125907621016
  H   2.15331747381952      1.17449379548033      0.04160810475793
  H   0.78564759509975      2.00250851943959     -0.42795084079423
