13
Coordinates from ORCA-job run
  C   -0.75705908061206     -0.11414345848902      0.16691200918210
  C   0.55416450935791      0.02844795346046     -0.17972944116548
  C   -1.53562614019882     -1.28720565580633     -0.03018104323440
  N   -2.26480387473625     -2.21265891293019     -0.07652100874235
  N   -1.33924105391107      0.97090772950429      0.86014791680877
  H   -1.31024111568367      1.82665014835741      0.31611969759692
  H   -2.28287442686956      0.77545838960614      1.16186059348335
  N   1.27923290022129     -0.99701413274847     -0.92073347891149
  O   2.50913067811190     -0.89555898373692     -0.92382685832527
  O   0.63229433956975     -1.87405821560683     -1.48694989129385
  N   1.26710378337525      1.16724686193363      0.10434371302645
  H   2.26527975515726      1.02948698684086      0.02347473897434
  H   0.98263972621806      1.58344128961495      0.98408305260092
