13
Coordinates from ORCA-job run
  C   -0.78182405232302     -0.10831749677707      0.20569134154837
  C   0.51763852096001      0.17778568843547     -0.15233747350722
  C   -1.57478905909443      1.03469136976504      0.53026616985180
  N   -2.18625911795380      2.01175449901836      0.77439995701039
  N   -1.38354781862664     -1.33826821191863      0.38996904212028
  H   -2.38751497867940     -1.33475629176116      0.30356622318004
  H   -0.90900740505701     -2.11154441311956     -0.04749609946341
  N   1.46035132396839     -0.87761447157348     -0.44906886360984
  O   1.05584223033677     -2.04785346172742     -0.48359975840472
  O   2.63160610664447     -0.54029040462979     -0.64623901379057
  N   1.03811131305951      1.44587158505762     -0.35525146484455
  H   2.02238195458891      1.49937456455113     -0.13568165083685
  H   0.49701098217624      2.18816704467949      0.06478159074627
