13
Coordinates from ORCA-job run
  C   -0.78077364047909     -0.11556604712238      0.21884999808194
  C   0.50029144449304      0.18801098576798     -0.18273495620712
  C   -1.69020142975013      0.98719799989724      0.20644843603590
  N   -2.41452293378617      1.91643377259232      0.17908647175888
  N   -1.26759289329529     -1.29525480323780      0.75432106480293
  H   -2.26330059577029     -1.41460708820013      0.65036710425659
  H   -0.71515160527408     -2.10963562935506      0.53563778812944
  N   1.52561082748338     -0.82957109588398     -0.22342596305540
  O   1.22114355390385     -1.99259015702015      0.07160301148607
  O   2.66197456545486     -0.46905266205125     -0.54461893796921
  N   0.90762225143340      1.41076983786300     -0.69445610663084
  H   1.91053900668473      1.52075707282747     -0.64878306303028
  H   0.40536144890179      2.20310781392274     -0.32129484765892
