13
Coordinates from ORCA-job run
  C   -0.76102209249393     -0.04200963297516      0.28055102010803
  C   0.54438710683209      0.15560987645515     -0.10730483633637
  C   -1.58864509960013      1.12450994773691      0.24112915430182
  N   -2.25236234780973      2.09580318508460      0.17095012100483
  N   -1.34631739256497     -1.17490433192098      0.81855203564277
  H   -0.80720781052858     -2.01859651834539      0.69438670081441
  H   -2.33143894938296     -1.26599865717052      0.62162585135404
  N   1.45579265954713     -0.95956643152092     -0.24262639347997
  O   1.11226565599415     -2.06804125972029      0.18807267143279
  O   2.52256543664680     -0.73531954555452     -0.81977716635525
  N   1.14588739938275      1.38012456353631     -0.34162914749034
  H   1.80719912542305      1.35516829652646     -1.10447392278680
  H   0.49989630855433      2.15422050786834     -0.39745608820995
