13
Coordinates from ORCA-job run
  C   -0.75863879255373     -0.06234321417256      0.32431150837612
  C   0.48360176358948      0.19060656988027     -0.20521290167014
  C   -1.56252895979020      1.09663601241055      0.59632513644291
  N   -2.25714818639058      2.01484457056486      0.84039124759989
  N   -1.39407992579144     -1.26617036550355      0.49041595073301
  H   -0.79177266432359     -2.07505820517750      0.48873064649167
  H   -2.15505550518826     -1.26955258813602      1.15010157337866
  N   1.43431349292909     -0.88823221128283     -0.40708887041856
  O   2.57470986023872     -0.57219196326225     -0.75555818938434
  O   1.07284948441841     -2.05234394411395     -0.18833351441398
  N   0.92215157753012      1.48291368279817     -0.48140176567449
  H   0.50047590640268      1.88349608869308     -1.30843372695084
  H   1.93012194892930      1.51739556730172     -0.54424709450991
