13
Coordinates from ORCA-job run
  C   -0.79591653592308     -0.15138655043322      0.09448852517596
  C   0.54637013165042      0.02975497812607     -0.07017325537749
  C   -1.47590209903532     -1.40339412052034      0.01344555262942
  N   -2.17417773011825     -2.35114046004032     -0.02296968087807
  N   -1.60290846364620      0.97440350093879      0.22256745717254
  H   -1.11639932083859      1.74251198222017      0.67215232665472
  H   -2.51116753883907      0.78713026507068      0.62105569592251
  N   1.48015401000074     -1.08284402934514     -0.17718031977890
  O   1.04044043893451     -2.22862175576727     -0.13703040695089
  O   2.67290189229631     -0.77973697502636     -0.28123553220218
  N   1.07851920663739      1.31409894743009     -0.06280939996366
  H   0.76939892336770      1.86250391077128     -0.85796623946656
  H   2.08868708551343      1.28872030657557     -0.01534472293740
