13
Coordinates from ORCA-job run
  C   -0.74714976864483     -0.06244489203422      0.08412534358735
  C   0.61000106866363     -0.01362980965624     -0.04198577734302
  C   -1.55476409968605     -1.21207868197764     -0.13769313341002
  N   -2.35127086169644     -2.06393757789395     -0.31400516080651
  N   -1.36867450893049      1.18005649410679      0.43456453472429
  H   -2.23942223987473      1.29268288405325     -0.06954939725760
  H   -1.57479294644943      1.21313733116084      1.42754660536149
  N   1.39732075701115     -1.19858458326128     -0.40888610782343
  O   2.51505077160452     -0.97883440071656     -0.87882830165961
  O   0.89723227308061     -2.30501669664389     -0.23044080635524
  N   1.36185769776838      1.09065691035205      0.20952723700452
  H   0.80954293486065      1.93862658754546      0.20564703554062
  H   2.24406892229301      1.12036643496540     -0.28002207156284
