13
Coordinates from ORCA-job run
  C   -0.75805838825533     -0.06363845080060      0.27371807721176
  C   0.50644968701933      0.13761750491732     -0.23021700780019
  C   -1.66716583708361      1.02110128380987      0.06640643526412
  N   -2.38743911983969      1.93619193716793     -0.11436251301677
  N   -1.29503294183252     -1.19610663627733      0.85972234456442
  H   -2.07059641843615     -1.01332918133197      1.47749684893123
  H   -0.60764815456810     -1.84026640670444      1.22081359683447
  N   1.51638033018297     -0.89266538784650     -0.13239997237075
  O   1.25240625478553     -1.92704956179374      0.49399421997910
  O   2.58307985618283     -0.68407826106937     -0.71548116518813
  N   0.99680202894501      1.33179348536710     -0.73769874997092
  H   1.65130091365020      1.18779090269622     -1.49328613700722
  H   0.27752178924955      2.00263877186552     -0.96770597743110
