13
Coordinates from ORCA-job run
  C   -0.77744645157477     -0.08728897096595      0.21283707462686
  C   0.53784388800852      0.19637517674630     -0.07534588829974
  C   -1.69786003028499      0.97944593653134     -0.03596233578459
  N   -2.43816899041126      1.86419292831145     -0.27652240126707
  N   -1.31060219997020     -1.20676766753708      0.82787060014029
  H   -2.26136161357965     -1.41155262286910      0.56105671935656
  H   -0.69209811059196     -2.00350220990872      0.84629323983189
  N   1.55331225994464     -0.83079477469298      0.00196106970403
  O   2.65147455559109     -0.56132784074956     -0.49082090449774
  O   1.26430953620137     -1.91916128966304      0.51611348167255
  N   1.04842693809652      1.44218301522190     -0.39737849502454
  H   1.77678793112072      1.40071877451054     -1.09591838147217
  H   0.34438228744998      2.13847954506490     -0.59518377898631
