13
Coordinates from ORCA-job run
  C   -0.78491995917170     -0.09873889456583      0.17532148800354
  C   0.53956287225044      0.20182356468119     -0.04581467847055
  C   -1.70266964686085      0.96836724394816     -0.08241020621132
  N   -2.43940279229240      1.85449984021956     -0.32819530728315
  N   -1.33589358228593     -1.24091348423991      0.72975637942713
  H   -2.27127610090397     -1.44523941663071      0.41297973054687
  H   -0.71045661220707     -2.03213827420420      0.75467991910931
  N   1.55814881767487     -0.82180325816529      0.04346734342550
  O   2.67205146965949     -0.53334203530330     -0.40046836315865
  O   1.25711897383212     -1.92491857049865      0.51751117138981
  N   1.05545282488401      1.45993439250608     -0.30346569307165
  H   1.80663745533488      1.44904951173232     -0.97851009957420
  H   0.35664628008610      2.16341938052057     -0.49385168413264
