13
Coordinates from ORCA-job run
  C   -0.73494883253404     -0.22421465441284      0.27182504741791
  C   0.47757207386059      0.08855291165173     -0.27939936018355
  C   -1.81611666107182     -0.80152916432711     -0.45837443962683
  N   -2.80935931025528     -1.21059676482136     -0.94417360777473
  N   -1.03542980015995      0.05857603152892      1.60878862552429
  H   -1.89372898646008      0.56007246492679      1.77452643331279
  H   -0.26738961684671      0.36360951065634      2.18243910584436
  N   0.90758020375287     -0.48031796405081     -1.55854540751082
  O   0.12622925260623     -1.20309053811457     -2.17238089528080
  O   2.05892069819370     -0.20981004449835     -1.90796541983377
  N   1.41609616778785      0.91494649754315      0.27510326174163
  H   2.38554823067757      0.71503378632402      0.10547559053920
  H   1.18502658044908      1.43076792759408      1.10168106583034
