13
Coordinates from ORCA-job run
  C   -0.74620483841217     -0.07588476761577      0.30812018424298
  C   0.45365540333662      0.13507106474546     -0.33169905174451
  C   -1.55104523542922      1.09299419646901      0.49158496074754
  N   -2.17882674414687      2.07618685265939      0.65865170497789
  N   -1.33449198343861     -1.27303761610600      0.67973640306528
  H   -1.94106308066286     -1.20150318002387      1.48266652678423
  H   -0.69842138576988     -2.05597497686454      0.69705185932603
  N   1.42868682700592     -0.92707420886157     -0.44999460021197
  O   1.09227739106563     -2.08291306242211     -0.16113543516042
  O   2.56443262777954     -0.59843934167665     -0.80136447342459
  N   0.84574819460802      1.30441811356423     -0.95900922630162
  H   1.82593325149013      1.51270237002971     -0.83313762030415
  H   0.24131957257376      2.09345455610269     -0.78047123199669
