13
Coordinates from ORCA-job run
  C   -0.77684397311696      0.02166921703675      0.22902731412157
  C   0.55450664311931     -0.15458207772615     -0.07218352277085
  C   -1.09994523315394     -0.04277296275926      1.62130487246758
  N   -1.33149000953103     -0.06798153980370      2.77642988879728
  N   -1.85360591395311      0.12972115439933     -0.63311817070903
  H   -2.62682610878565      0.66171133835333     -0.26416922477252
  H   -1.60480906358984      0.33466917715600     -1.58925751138972
  N   1.04083725585696      0.03854181059219     -1.41948877732496
  O   2.26289038718815      0.13042099144706     -1.55808114654980
  O   0.22109093984919      0.13951364943132     -2.34161287502249
  N   1.54280238324387     -0.55613287080275      0.81191143868634
  H   1.25375412646864     -0.55963795069631      1.77959801373341
  H   2.41963856640442     -0.07713993662781      0.66063970073321
