13
Coordinates from ORCA-job run
  C   -0.80579356556224     -0.12574439274924      0.16265127502822
  C   0.48541616358669      0.24846019250464     -0.11249061650295
  C   -1.81164091742083      0.89093862709919     -0.00742755347778
  N   -2.70737662764487      1.64357802557024     -0.12770531411272
  N   -1.26946653924149     -1.30407805860205      0.65852551983433
  H   -0.62743532085294     -2.08130416186180      0.64995293831024
  H   -2.25356008611063     -1.49035722860470      0.56310110902928
  N   1.56852195339082     -0.71950621224017     -0.02359129012534
  O   1.31571334412411     -1.86921397293967      0.36422619407871
  O   2.68995439820298     -0.33075882292349     -0.35286320409803
  N   0.78018186204530      1.55241764688052     -0.52560048520246
  H   1.28211515294988      1.55036717922792     -1.40535668328736
  H   1.35437018253324      2.03520117863863      0.15557811052586
