13
Coordinates from ORCA-job run
  C   -0.78255415993712     -0.09057557417777      0.26679558818350
  C   0.46418701247089      0.21997195313243     -0.21483889029879
  C   -1.67633192402933      1.01882798746114      0.47827207360122
  N   -2.47526547999843      1.85335547872950      0.69850666534130
  N   -1.33132451622672     -1.31259713193153      0.49991663500935
  H   -2.15260684461887     -1.34804022907084      1.07985963271920
  H   -0.69824450131533     -2.09710446753476      0.51073146446714
  N   1.45779698073385     -0.82388603279883     -0.41700125955127
  O   2.57386528734015     -0.46367692998944     -0.79341626971204
  O   1.14281575047612     -2.00267462885434     -0.19949237028270
  N   0.81823912720696      1.54738902239975     -0.48122174170710
  H   1.64706235490260      1.81346865516348      0.03689130608265
  H   1.01336091299521      1.68654189747121     -1.46600283385245
