13
Coordinates from ORCA-job run
  C   -0.80874708025061     -0.13848501874030      0.13687515111137
  C   0.48537701529760      0.25617349385159     -0.09183960497065
  C   -1.81925703950353      0.87502997238125     -0.02501956575073
  N   -2.71690393748745      1.62554528207268     -0.14424870803743
  N   -1.27420758150441     -1.33780654137880      0.57704165104596
  H   -0.62713323531168     -2.11035381885606      0.55337381436016
  H   -2.25497414798116     -1.52624012907905      0.45581145489932
  N   1.57678953891471     -0.70195845693990      0.00595712157122
  O   1.32179001669114     -1.87081942749260      0.32990906721218
  O   2.70709470282549     -0.28501898418557     -0.24937260330158
  N   0.77795511206240      1.57523632198601     -0.45589793245224
  H   1.28022371273451      1.60718080885159     -1.33499050923051
  H   1.35199292351297      2.03151649752916      0.24340066354291
