13
Coordinates from ORCA-job run
  C   -0.78298647908096     -0.06669829161629      0.22038198684916
  C   0.50982039151153      0.00794234990203     -0.20891903247542
  C   -1.83570535480699     -0.76157483502618     -0.44740080828193
  N   -2.80045425911467     -1.28383298391700     -0.87577252620826
  N   -1.09525017419394      0.45771081253108      1.47025147127608
  H   -0.50386348007990      1.24602820108113      1.71041945250320
  H   -2.07883885338075      0.63759660518814      1.60807510970573
  N   0.93202625292480     -0.47968278604263     -1.51514059276002
  O   0.09501142835812     -0.99468179011484     -2.25130681704420
  O   2.12258106037104     -0.31133330360103     -1.79646666781890
  N   1.46675321782957      0.63704778037481      0.57964249389176
  H   1.64538967788562      0.13397064182325      1.44197815562867
  H   2.32551657177651      0.77950759941753      0.06425777473412
