13
Coordinates from ORCA-job run
  C   -0.72792986730298     -0.17152438348967      0.27826699562776
  C   0.50558275849800      0.03585088225158     -0.27597200611726
  C   -1.81803709969502     -0.76189760076430     -0.43090768383707
  N   -2.78974776346661     -1.19599791410603     -0.93432261945197
  N   -1.03411343055812      0.17143930188603      1.59858078855914
  H   -0.27065077280397      0.53145453170007      2.15290197176912
  H   -1.89324735619330      0.69067275089284      1.71983668021807
  N   0.89262134219555     -0.59787379175551     -1.54274870707506
  O   0.19788071715738     -1.52011711884874     -1.96439928206903
  O   1.94345528339359     -0.20862621131369     -2.04933482668053
  N   1.45122706810123      0.90229246393066      0.21253734475619
  H   2.39558682403420      0.56472967765893      0.32703480936733
  H   1.14737229664007      1.55959741195784      0.90752653493331
