13
Coordinates from ORCA-job run
  C   -0.76305993495938     -0.10548700928843      0.25228843885103
  C   0.51532584322305      0.16447429746667     -0.19398051834966
  C   -1.53896237924731      1.05025081303497      0.56138156256399
  N   -2.15150129595902      2.02700007287633      0.80761532174397
  N   -1.34815855310940     -1.33432620391848      0.52212995846933
  H   -0.98047584825052     -2.10241219378370     -0.01871682031261
  H   -2.35267312629917     -1.29888861271275      0.56967158210259
  N   1.47125524294740     -0.89609418047990     -0.41763721427554
  O   2.64050372364919     -0.53939598966737     -0.59540536262652
  O   1.08456820557603     -2.07075112848803     -0.39280757400900
  N   1.00548947315598      1.40907387814855     -0.53968988763298
  H   1.98508600161244      1.51976417689420     -0.32692116049218
  H   0.43260264766071      2.17879207991793     -0.22792832603243
