13
Coordinates from ORCA-job run
  C   -0.77743047638902     -0.08216026683337      0.23236922874340
  C   0.51533601229101      0.16863715430123     -0.16844118260504
  C   -1.64624714643478      1.05298131044703      0.20211093918517
  N   -2.33010255035405      2.01212859906294      0.17267148188546
  N   -1.37613119680732     -1.29267070398285      0.53554234577090
  H   -0.73175514369176     -2.02274057047629      0.79728347455441
  H   -2.19014032743145     -1.21094754018654      1.12447961090156
  N   1.49931412315754     -0.88997256234659     -0.19946251523949
  O   1.16925147478506     -2.02044012142557      0.18001023733228
  O   2.61888548314331     -0.60034715249874     -0.63043232646589
  N   1.04220800663603      1.42185564736263     -0.44261136818760
  H   1.84731993290442      1.36787642344560     -1.04976392229164
  H   0.35849180819102      2.09679978313052     -0.75275600358351
