13
Coordinates from ORCA-job run
  C   -0.75976835931890     -0.04008205210739      0.33807668373889
  C   0.45215203788947      0.18810486291838     -0.26300354414293
  C   -1.56872831041327      1.12316508689779      0.59612865353331
  N   -2.29371982983261      2.00981868505478      0.86337812291037
  N   -1.34956375713248     -1.22354825482619      0.65690330285716
  H   -0.75963583721095     -2.04100937709654      0.63899589692446
  H   -2.11134851759672     -1.19634560503115      1.31383280926876
  N   1.36853064298497     -0.91477851700126     -0.51778763307104
  O   2.46341787488159     -0.62682914383456     -1.00261241474899
  O   1.01327160593007     -2.06797642662232     -0.23494276335149
  N   0.85083676139940      1.48514730916885     -0.60376573449066
  H   1.73976437708131      1.71609719008883     -0.17661266051761
  H   0.95479131133809      1.58823624239077     -1.60659071891022
