13
Coordinates from ORCA-job run
  C   -0.75488128363291     -0.12403835125917      0.23315908998095
  C   0.52713449746103      0.18980448836645     -0.13610510205629
  C   -1.52622129918266      0.98027211014683      0.71290454893717
  N   -2.11758134032742      1.92614561205898      1.09474141020487
  N   -1.31949861776922     -1.39744004264248      0.30274256733440
  H   -1.09807253160030     -1.98899360157494     -0.48340689191657
  H   -2.30546883496626     -1.37655184177544      0.51413532005311
  N   1.44334211404461     -0.87370312029810     -0.53320447578704
  O   0.98326680791804     -1.90912826065411     -1.01487383021229
  O   2.64235560848974     -0.60498544791884     -0.43381423126890
  N   1.06309725418992      1.45503125212765     -0.33144069357736
  H   0.46418318019013      2.18988771050960      0.02499284454747
  H   1.99734444518531      1.53469949291357      0.05216944376046
