13
Coordinates from ORCA-job run
  C   -0.76508514131345     -0.19200549486377      0.22163408945894
  C   0.52537555427900      0.05967221399221     -0.14517225501993
  C   -1.35148710443273     -1.48917472809705      0.33612481434347
  N   -1.97523480860831     -2.47888631485940      0.46841263890100
  N   -1.55844392292306      0.86885987503600      0.63718682532342
  H   -1.28137902302290      1.74536913535548      0.20833256239793
  H   -2.55048335608700      0.68975365276369      0.59388408247745
  N   1.41653004636481     -0.98358145118193     -0.63687641216693
  O   2.53680991469065     -0.61112140559537     -1.00071513810580
  O   1.00506759925147     -2.13976296533490     -0.68213084022237
  N   1.00028830374599      1.36959637838189     -0.14183540310934
  H   1.86839642499702      1.43360441191811     -0.65744695647679
  H   1.12964551305850      1.72667669248504      0.79860199219895
