13
Coordinates from ORCA-job run
  C   -0.77458327941892     -0.07857736732391      0.29312579969065
  C   0.45808235383118      0.20930655170933     -0.23687458463348
  C   -1.66540547197712      1.03898977499253      0.47078422347138
  N   -2.45868952147132      1.88461433092372      0.66821659343520
  N   -1.31255014350614     -1.28810590216943      0.60270845664826
  H   -2.12177939753590     -1.29666143930726      1.20029815359026
  H   -0.67780655097955     -2.07056255282928      0.63586546275823
  N   1.45112588663272     -0.84062900541804     -0.40700749616013
  O   2.55595320861777     -0.49794325768534     -0.83019782313458
  O   1.14741257735984     -2.00664175507955     -0.11639644834865
  N   0.79905660467269      1.52120323602533     -0.58405739742434
  H   1.64867093882637      1.81211910723570     -0.11563823975301
  H   0.94951279494837      1.61288827892622     -1.58182670013980
