13
Coordinates from ORCA-job run
  C   -0.71419234073764     -0.11569279023769      0.29959106447700
  C   0.51246431003601      0.19041232187366     -0.20873094389447
  C   -1.55759937094746      1.00247415273181      0.58169581461742
  N   -2.24691146017550      1.92876647583980      0.82908383939499
  N   -1.17332800078220     -1.42719105205781      0.56660876214547
  H   -1.44264651232411     -1.92457425549807     -0.27370517402187
  H   -1.94695406933183     -1.40297513506439      1.22051778424400
  N   1.48289833004401     -0.87153459619974     -0.47969638754588
  O   2.66308695365805     -0.60436752149217     -0.24137003081597
  O   1.06631065265326     -1.94197919383476     -0.91622724918941
  N   0.97652441199110      1.42056616012626     -0.60545978218308
  H   1.96776300802450      1.54020404299318     -0.45226502174070
  H   0.41158408789180      2.20589139081994     -0.32104267548749
