13
Coordinates from ORCA-job run
  C   -0.80432323616813     -0.08904535207905      0.11777922685582
  C   0.51904905837831      0.18050733300088     -0.11166790871026
  C   -1.63730476046805      1.05173478538645      0.24588457318710
  N   -2.35464049827939      1.98390407841907      0.33783506477171
  N   -1.40704601108697     -1.34635683106261      0.20808840168755
  H   -0.89064539963626     -2.06382449980381      0.79518077787632
  H   -2.37605744765306     -1.25845079422768      0.48486154148349
  N   1.50088712569702     -0.89256866137939     -0.26676704507178
  O   1.25310643419501     -2.01912307405923      0.16735907099760
  O   2.55307615671147     -0.54612308300603     -0.80012135873193
  N   1.14986363024854      1.41112177929853     -0.12719667169039
  H   1.93450085089177      1.38479961892317     -0.74595347231657
  H   0.56053409716974      2.20342470058969     -0.30528220033867
