13
Coordinates from ORCA-job run
  C   -0.79685743105441     -0.07794758496548      0.13283947418404
  C   0.51692410036364      0.16620099204160     -0.19518464909979
  C   -1.57735570726057      1.08639396911646      0.42006537958749
  N   -2.18797984362132      2.06017138314577      0.68005094982281
  N   -1.49348394691756     -1.27358402816461      0.10047070234522
  H   -2.24963033741691     -1.32912480476594      0.76573204980942
  H   -0.90648322581518     -2.09285264328803      0.05422546116587
  N   1.45226699354429     -0.92286336645977     -0.37347052284030
  O   1.01760784063097     -2.08016406130018     -0.43517151806456
  O   2.64790285312078     -0.62338088448186     -0.41826778062869
  N   1.07520934624108      1.40799413686829     -0.44520895699648
  H   0.48308750852373      2.18563563949802     -0.19161780008170
  H   2.01879184966147      1.49352125275572     -0.09546278920332
