13
Coordinates from ORCA-job run
  C   -0.82105650067711     -0.09583824135804      0.05571642121551
  C   0.51270664389937      0.21141846657621     -0.04317028894580
  C   -1.72602189522938      1.01138279675436     -0.07615881882709
  N   -2.49521272824537      1.88849626842939     -0.22857925004886
  N   -1.41038638337899     -1.29072722707444      0.38022463815766
  H   -2.37840593675963     -1.38049051703649      0.11746750500648
  H   -0.83146047655163     -2.10419122346589      0.24982870561141
  N   1.51897813971173     -0.84153257618371     -0.08202897652876
  O   1.15645752467742     -2.02162731428956      0.04139060912478
  O   2.67837941792802     -0.50071237026069     -0.33313377900768
  N   0.95920624837711      1.52210882601318     -0.15957407577497
  H   0.99343142462806      2.02360136676058      0.71974647454974
  H   1.84438452162039      1.57711174513510     -0.64072916453244
