13
Coordinates from ORCA-job run
  C   -0.81777724401210     -0.10109808179069      0.11045699793954
  C   0.50415091815745      0.23286697609609     -0.04384561202534
  C   -1.75152517115039      0.99528141868060      0.13262062299147
  N   -2.59412211625315      1.81564941717351      0.15114622764901
  N   -1.37314758386232     -1.32259687349712      0.33162565150989
  H   -2.36213672776578     -1.41639875200204      0.17224263439488
  H   -0.78114563051092     -2.12305454055913      0.17305950336402
  N   1.52145189414479     -0.80463870507351     -0.12985262915476
  O   2.67819818840030     -0.43333021926378     -0.33239088937834
  O   1.18197730778067     -1.98993531111804     -0.00440949148512
  N   0.89502243974911      1.57073901371184     -0.16352353922773
  H   1.47371825488696      1.85920986164260      0.61653581617649
  H   1.42433547043538      1.72130579599967     -1.01366529275401
