13
Coordinates from ORCA-job run
  C   -0.77836111168532     -0.15761371877380      0.23584444700548
  C   0.49854456382954      0.05776378807058     -0.19290107620524
  C   -1.46534303717633     -1.41376318398355      0.17823238436181
  N   -2.15364218363163     -2.36753629671369      0.21676086203980
  N   -1.54024806073104      0.90162342094757      0.68038730271400
  H   -2.29344384892239      0.66171484474747      1.30679472595323
  H   -0.97878625218187      1.69521204495165      0.96512968295894
  N   1.34507598871990     -1.02410326239525     -0.68740711065243
  O   2.52976515210803     -0.73276718338925     -0.87721305845149
  O   0.85210955555857     -2.13596706424243     -0.85860135948090
  N   1.04256116353085      1.34496531520751     -0.09853198260239
  H   2.03692579438260      1.29341175626845      0.08413786026573
  H   0.90484227619909      1.87605953930474     -0.95263267790654
