13
Coordinates from ORCA-job run
  C   -0.70296549271848     -0.19855795594955      0.21687920707939
  C   0.55429511908510      0.10428390209193     -0.21844460629383
  C   -1.34617693509642     -1.45768555726085      0.06881452592130
  N   -1.98631991998568     -2.44780382726260      0.04870661079058
  N   -1.37630117653317      0.85696575738333      0.90333208995918
  H   -2.04986974930004      0.49087020909869      1.56321889728400
  H   -1.86153624489230      1.46698359810507      0.25296822370157
  N   1.38068472983406     -0.86196703367043     -0.94614872846935
  O   0.82669155307262     -1.82954445218181     -1.45905060936424
  O   2.59027736697991     -0.62530426005665     -0.97354400541160
  N   1.13006714127784      1.33017391586356     -0.06452088724223
  H   2.13922324907079      1.31548766696588     -0.07753180815541
  H   0.70193035920578      1.85609803687344      0.68732109020064
