13
Coordinates from ORCA-job run
  C   -0.72711250791163     -0.19349002974217      0.20899782694265
  C   0.53199576243277      0.08376541976181     -0.24760759195720
  C   -1.49652805963729     -1.32631767060274     -0.17322104907951
  N   -2.26942531571690     -2.18460824847888     -0.41007493793717
  N   -1.39951079504508      0.79505729459686      0.96376737142799
  H   -0.82657008535733      1.14029365800298      1.72550097663750
  H   -2.28279812616774      0.46346527483458      1.32458942183387
  N   1.33160749096262     -0.91449494384877     -0.95129879653876
  O   2.45193603775778     -0.54841708734978     -1.31532116505417
  O   0.85240609667742     -2.03184112170287     -1.12595975965233
  N   1.12186608777643      1.31040824953908     -0.16091731630425
  H   0.58900816276713      2.05929281169363      0.24522403535119
  H   2.12412525146184      1.34888639329626     -0.08467901566980
