13
Coordinates from ORCA-job run
  C   -0.75324697062374     -0.03327485146767      0.16410082189979
  C   0.52908569086186      0.23050686416037     -0.23328200632579
  C   -1.60682878861385      1.07493736722404      0.52604825668303
  N   -2.54331941410064      1.54995543441053      1.06648438018545
  N   -1.31150352987275     -1.27411918177694      0.43489456971948
  H   -2.29857633258511     -1.24381249502255      0.64131903512277
  H   -1.04788456494573     -2.00335151044067     -0.20282585736579
  N   1.44282314159789     -0.85109754955080     -0.50584775461922
  O   0.97437654633677     -1.96629266289905     -0.77909877887542
  O   2.65072117030042     -0.59627345582295     -0.49333057911535
  N   1.04556472507742      1.50899921974090     -0.38727474527331
  H   0.89294442285230      2.12416480029479      0.39646244211210
  H   2.02584390371519      1.47965802114999     -0.62764978414773
