13
Coordinates from ORCA-job run
  C   -0.75784834491521     -0.15392121941822      0.19843622640073
  C   0.54059136927973      0.01005817488556     -0.19369839764060
  C   -1.43945040411031     -1.40860176589889      0.19269118923069
  N   -2.13799331889396     -2.35662466541091      0.21636200659905
  N   -1.54068586075667      0.89765935239670      0.69045734664889
  H   -2.46215107528637      0.97205256952038      0.28646260257327
  H   -1.07868295343143      1.78692611634645      0.78582892935996
  N   1.42215807599389     -1.14221338832322     -0.39525465260377
  O   2.62931524542225     -0.90169968831866     -0.32592748166843
  O   0.92354625016576     -2.24484504301601     -0.59714784120065
  N   1.17979234597536      1.20669341775528     -0.42276742361188
  H   0.61588570642805      2.03774306179128     -0.39866100958338
  H   2.10652296412890      1.29677307769024     -0.03778149450389
