13
Coordinates from ORCA-job run
  C   -0.82008431469682     -0.08316766628177      0.11545013672119
  C   0.50317707676621      0.22298555234374     -0.07973337878581
  C   -1.68273986801639      1.01872951705958      0.45584143964384
  N   -2.46376075979883      1.84752028385101      0.74948519441829
  N   -1.45766742510955     -1.27302758203391     -0.04922876809970
  H   -0.87265837972913     -2.08948946160249     -0.13599351883439
  H   -2.36482993465650     -1.37346581612622      0.37408665586008
  N   1.46743933839419     -0.82684593357390     -0.37477093744884
  O   1.06546752181553     -1.99207318110781     -0.50492990804282
  O   2.64746576448178     -0.48687386503597     -0.46991320666214
  N   0.95935959601758      1.54000491220436      0.04399585942485
  H   1.71399061565082      1.60076342838294      0.71699581934486
  H   1.30584076888110      1.89593981192043     -0.83928538753943
