14

C	0.0	0.0	0.0
C	-0.467022	0.124935	-1.452428
F	1.345438	0.0	0.0
H	0.341854	0.65648	-1.965005
H	-0.372016	0.836563	0.578154
N	-0.414288	-1.219106	0.771839
O	-0.520562	-2.287553	0.182901
O	-0.47631	-1.060507	1.986605
C	-1.717151	0.873862	-1.634669
N	-2.341229	1.694695	-2.21281
N	-0.494409	-1.19726	-2.185409
O	-1.568884	-1.680641	-2.50583
O	0.613625	-1.671853	-2.42926
F	-2.356621	0.0	0.0
