14

C	0.0	0.0	0.0
C	-0.465553	-0.080703	-1.455141
F	1.349641	0.0	0.0
H	0.311245	0.437516	-2.026891
H	-0.374802	0.906935	0.457697
N	-0.409802	-1.10704	0.926514
O	-0.532559	-2.239695	0.479107
O	-0.451876	-0.795419	2.112526
C	-1.764612	0.549454	-1.738875
N	-2.405833	1.202473	-2.489767
N	-0.393398	-1.485144	-2.015856
O	0.744582	-1.933635	-2.144272
O	-1.427805	-2.053961	-2.327963
F	-2.370995	0.0	0.0
