14

C	0.0	0.0	0.0
C	-0.467885	-0.099397	-1.453641
F	1.349128	0.0	0.0
H	0.318985	0.390913	-2.036403
H	-0.372436	0.914008	0.445659
N	-0.409346	-1.092021	0.945943
O	-0.548844	-2.229897	0.517731
O	-0.431464	-0.762048	2.127791
C	-1.751726	0.557946	-1.740384
N	-2.381559	1.229147	-2.48405
N	-0.428866	-1.514307	-1.987657
O	0.697767	-1.994337	-2.09612
O	-1.474698	-2.062741	-2.299914
F	-2.367478	0.0	0.0
