14

C	0.0	0.0	0.0
C	-0.270265	0.058491	-1.519951
F	1.352898	0.0	0.0
H	0.172497	-0.854671	-1.923547
H	-0.412624	0.803579	0.587785
N	-0.405941	-1.296262	0.613513
O	-0.540665	-1.293031	1.831904
O	-0.403875	-2.290438	-0.107891
C	0.458584	1.213473	-2.059402
N	1.077536	2.111762	-2.493039
N	-1.661577	0.099478	-2.112412
O	-2.13886	1.20127	-2.345983
O	-2.097873	-0.976243	-2.495776
F	-2.250889	0.0	0.0
