12
Coordinates from ORCA-job run
  C   0.74207743963281      0.51041240919122     -0.20511638297180
  C   -0.63634371765275      0.07919851268221     -0.66068639491073
  Br  1.09262917284709      2.36881320905742     -0.60382540701032
  H   -1.37419199069278      0.74198392215000     -0.20451931888363
  H   1.53618953708597     -0.08938436153834     -0.64271043606133
  H   -0.68970133468511      0.21252436225817     -1.74426446733424
  N   0.86287590551212      0.31411708930227      1.28212546917442
  O   -0.12325745331478      0.57756130274162      1.96257204912553
  O   1.94433400675045     -0.08831667582993      1.69494353243575
  N   -0.80193751824152     -1.31397962338810     -0.26961551436689
  H   -1.04569024807861     -1.89898200706345     -1.05444018340058
  H   -1.50698379916289     -1.41294813956308      0.44553705420382
