12
Coordinates from ORCA-job run
  C   0.54690216839124      0.76950456590921     -0.13314912841452
  C   -0.27227726956346     -0.30743849069872     -0.82542594626484
  Br  -0.50717945754811      2.32585674216489      0.28169157029964
  H   0.42790649719090     -1.09477749097995     -1.11353407308745
  H   1.38994219179741      1.09459367660841     -0.74154729173060
  H   -0.69066828475299      0.13002692756140     -1.74225661957393
  N   1.15697331012495      0.15489056467017      1.11085811780343
  O   1.99077903453110     -0.70756184647074      0.84721002789208
  O   0.79471380714682      0.50414730695409      2.22014786468601
  N   -1.23663731164975     -0.86265171030074      0.10507533943101
  H   -2.03164082596533     -0.24688370378962      0.21374317174290
  H   -1.56981385970280     -1.75870654162841     -0.22181303278373
