12
Coordinates from ORCA-job run
  C   0.50500857194867      0.59491887848113      0.03229469853717
  C   -0.53366532644751     -0.51233609746070     -0.08893027919725
  Br  -0.30027395584216      2.29649020660973      0.44082235459489
  H   0.01093016208883     -1.46480525074734     -0.11827981042078
  H   1.08492880420890      0.71666916943634     -0.87923807850750
  H   -1.13666536248985     -0.51371604019617      0.82064618364529
  N   1.48418611681106      0.24702647198562      1.11413722157299
  O   1.02078062122705     -0.04716672759799      2.21145194479019
  O   2.67280609925827      0.24293170399218      0.80189736054636
  N   -1.32969816849264     -0.28912990025863     -1.28389184737195
  H   -2.31555773104171     -0.26777994511713     -1.07401476920362
  H   -1.16277983122890     -1.00210246912703     -1.97789497898579
