12
Coordinates from ORCA-job run
  C   0.75925502392159      0.46223232613596     -0.23966211290478
  C   -0.61149508276572      0.02195319550878     -0.70412950618116
  Br  1.16608284517789      2.27018688751478     -0.78755544395032
  H   -1.35511913376496      0.75471855938129     -0.37731384470800
  H   1.54802079917647     -0.19229722484144     -0.60235594821979
  H   -0.59407662950814      0.02078593305341     -1.79644196163665
  N   0.84447010102716      0.40175875209081      1.26255989472396
  O   -0.18598311609159      0.62687591018612      1.89205990457056
  O   1.94270317400559      0.14179172465480      1.73921968190582
  N   -0.82581037687262     -1.32948310370382     -0.20526278913960
  H   -1.36860529612542     -1.87610154824861     -0.85814897233065
  H   -1.31844230818024     -1.30242141173206      0.67703109787060
