12
Coordinates from ORCA-job run
  C   0.68700133876226      0.49506717737823     -0.23687214634217
  C   -0.68114087775512      0.06491954606724     -0.75139643970881
  Br  1.09139260464553      2.32565065880135     -0.69915710969265
  H   -0.66256356278717      0.13950585766206     -1.84170265809785
  H   1.50145806384983     -0.12632744745012     -0.60551281147799
  H   -1.42573870307762      0.77116702505694     -0.38247385693238
  N   0.72258165986546      0.35164650412213      1.26002464073699
  O   -0.20817869748363      0.84175450014707      1.89015886299037
  O   1.66533234764514     -0.28112534793353      1.72855589879476
  N   -1.06842652731290     -1.27354651707509     -0.36088167477147
  H   -1.23487521565717     -1.33984516830962      0.63386859180916
  H   -0.38584243069461     -1.96786678846665     -0.63361129730796
