12
Coordinates from ORCA-job run
  C   0.53008452365788      0.56952934054555     -0.02250714597310
  C   -0.52831738857663     -0.52318089562255     -0.05934856062969
  Br  -0.25785015752334      2.31247842894014      0.22186347620377
  H   -1.11846074906638     -0.46017058352754      0.85860279377835
  H   1.11706521216402      0.59930690159357     -0.93659940488866
  H   -0.00025941120344     -1.48336599571958     -0.04370260462991
  N   1.49042299217474      0.30584179350261      1.09879588130475
  O   1.01240401207513      0.13588490196809      2.21589252920790
  O   2.68004144305969      0.23570828579073      0.79814027219651
  N   -1.30775591494743     -0.38245055916343     -1.27897773337943
  H   -1.37782626979595     -1.26091156672103     -1.77011085212699
  H   -2.23954829201828     -0.04867005158655     -1.08304865106350
