12
Coordinates from ORCA-job run
  C   0.45062873247714      0.52031397294242      0.05049943770940
  C   -0.53778769244712     -0.63882412786884     -0.09916858225796
  Br  -0.43443763870854      2.16794169038142      0.52849547638034
  H   -1.06870587581490     -0.75535430604019      0.84702447003653
  H   1.02394178744267      0.70835397646787     -0.85534853654372
  H   0.05979948910044     -1.54393339576245     -0.25700160578091
  N   1.45876550298883      0.16986265862929      1.10736802768079
  O   2.62702994600772      0.08466169108101      0.73423369833988
  O   1.03367256147332     -0.06305077091660      2.23301713538928
  N   -1.49129574815283     -0.51461643920754     -1.17663961457909
  H   -1.02966858025447     -0.42229548414220     -2.07206022786171
  H   -2.09094248411226      0.28794053443581     -1.03841967851283
