12
Coordinates from ORCA-job run
  C   0.42927928884706      0.53574689778157      0.07079953987860
  C   -0.51187988615282     -0.65555851539885     -0.12424975127152
  Br  -0.52267801212131      2.13026553686061      0.59744671608795
  H   -1.04326939542947     -0.82404365642352      0.81380738474686
  H   0.99985615215617      0.77666012268037     -0.82418294354799
  H   0.12168238306285     -1.53091130827207     -0.30750815312053
  N   1.44447001267145      0.18904162777028      1.12246726466697
  O   2.61747166364013      0.16277481488985      0.75559030338052
  O   1.02176453669471     -0.09947491157303      2.23605973672336
  N   -1.46335808027090     -0.53308216854672     -1.20372093530990
  H   -2.09484028839785      0.24038784877863     -1.04326130269685
  H   -1.00049837470002     -0.39280628854711     -2.09224785953747
