12
Coordinates from ORCA-job run
  C   0.44124151669232      0.80607213194424     -0.05805521876041
  C   -0.78848106795344      0.04221268822851     -0.49739909101612
  Br  0.03580730163023      2.64289328562950      0.38404907358478
  H   -1.56838986961334      0.14670689227285      0.26268534226906
  H   1.22252008266660      0.80010238787676     -0.81426271216286
  H   -1.14504187132386      0.51298157900324     -1.41651178029379
  N   1.05117080845820      0.15831820970345      1.15693227223111
  O   0.28431206782830     -0.39447594077087      1.94137534753155
  O   2.26792721140423      0.24284343598254      1.27121216928636
  N   -0.37618580123834     -1.32854616618799     -0.76705360094294
  H   -0.91719315826729     -1.72748784712655     -1.52081231448929
  H   -0.50768722028362     -1.89962065655568      0.05684051276255
