12
Coordinates from ORCA-job run
  C   0.50762058890966      0.56473741169568     -0.03703440912953
  C   -0.48848706059804     -0.57840334573970     -0.07524489669492
  Br  -0.35194508688062      2.25057544521834      0.35747279323830
  H   0.09461408458123     -1.49736096072158     -0.20072933864509
  H   1.03310165141086      0.67703003847957     -0.98163435594764
  H   -0.99918602571044     -0.63355323211684      0.89255733188677
  N   1.54876132467470      0.30014358348558      1.00990020702706
  O   1.15301530753415      0.01727484411346      2.13590911597219
  O   2.71961846610671      0.35440949170539      0.64137838129380
  N   -1.34851899685056     -0.41238837884112     -1.23736216970324
  H   -1.78509446262635     -1.29393700154217     -1.47129124839896
  H   -2.08449979055129      0.25147210426338     -1.03292141089876
