12
Coordinates from ORCA-job run
  C   0.64659810987469      0.56177897483709     -0.19616989236054
  C   -0.66814045563592      0.04229445208330     -0.76478292641234
  Br  0.90176760633445      2.44002314039596     -0.56468518550499
  H   -0.63208090378006      0.17026021141753     -1.84967650114051
  H   1.51926441367307      0.03004930899584     -0.57177282404855
  H   -1.47835013273777      0.66462141255170     -0.38323354728071
  N   0.66234068455791      0.35128039860204      1.29278827180060
  O   -0.32086605004336      0.72869624805738      1.92084188336279
  O   1.64680421326505     -0.21868594952686      1.75619407644864
  N   -0.94760700353581     -1.34132566551847     -0.44603977204769
  H   -1.12879132154110     -1.46876360174356      0.54016888610088
  H   -0.20193916043115     -1.96122893015193     -0.73263246891759
