16

C	-0.378408	0.048102	-1.487222
C	0.0	0.0	0.0
F	-0.076733	-1.224161	-1.976982
H	1.091882	0.0	0.0
C	-1.84656	0.297222	-1.779411
H	-2.132577	1.301879	-1.473159
H	-2.440999	-0.442898	-1.239952
H	-2.023189	0.182878	-2.850948
C	0.464987	0.999132	-2.237632
N	1.020457	1.766342	-2.930975
C	-0.557723	-1.167859	0.639423
N	-1.011685	-2.138405	1.124081
N	-0.393148	1.218683	0.720305
O	-0.467763	2.26179	0.063251
O	-0.540663	1.149539	1.939589
F	2.420171	0.0	0.0
