16

C	-0.314659	-0.022626	-1.50462
C	0.0	0.0	0.0
F	0.074394	1.189629	-2.051409
H	1.092222	0.0	0.0
C	0.517435	-1.120273	-2.137776
H	0.157648	-2.105354	-1.835524
H	0.464384	-1.030457	-3.224744
H	1.53573	-0.963131	-1.765393
C	-1.761268	-0.154124	-1.779174
N	-2.908778	-0.247569	-2.014992
C	-0.523656	-1.192562	0.632319
N	-0.898192	-2.201082	1.106253
N	-0.570074	1.218285	0.63566
O	-1.636545	1.113819	1.249186
O	0.057708	2.261503	0.484956
F	2.504259	0.0	0.0
