16

C	-0.305005	0.148861	-1.497598
C	0.0	0.0	0.0
F	-1.619949	0.582347	-1.703285
H	1.092249	0.0	0.0
C	0.680791	1.068801	-2.200458
H	0.623023	0.923448	-3.280983
H	0.445591	2.099784	-1.949503
H	1.672356	0.819297	-1.808488
C	-0.210103	-1.193338	-2.107981
N	-0.150528	-2.227796	-2.660348
C	-0.582514	-1.185545	0.592513
N	-1.009939	-2.171463	1.069215
N	-0.41741	1.198775	0.773989
O	-0.870274	1.023741	1.904264
O	-0.22974	2.299657	0.262224
F	2.485868	0.0	0.0
