11

C	0.0	0.0	0.0
C	-0.469497	-0.008183	-1.433387
F	1.394797	0.0	0.0
H	-0.181629	-0.95791	-1.891022
H	-0.270333	0.956818	0.469541
H	-1.560547	0.08974	-1.421923
H	-0.010237	0.817395	-1.984402
N	-0.530265	-1.13397	0.690965
H	-1.552297	-1.034154	0.541897
H	-0.386583	-0.998874	1.68796
H	-3.208326	0.0	0.0
