14

C	0.0	0.0	0.0
C	-0.552581	-0.128152	-1.424081
Br	1.936437	0.0	0.0
H	-1.485951	0.434071	-1.432183
H	0.164452	0.332917	-2.106576
N	-0.353182	1.374954	0.579527
O	-0.495968	1.457019	1.789414
O	-0.373147	2.295443	-0.226172
C	-0.429631	-1.042101	0.92193
N	-0.610064	-1.944065	1.653733
N	-0.72926	-1.540804	-1.729408
H	-0.781136	-1.647753	-2.735209
H	-1.642504	-1.790781	-1.35401
Cl	-3.351644	0.0	0.0
