13
Coordinates from ORCA-job run
  C   0.84474748881078      0.07004662822434      0.08348014267566
  C   -0.61769676777089      0.32299202511190     -0.30404682685196
  F   1.63907166653691      0.94039697156239     -0.67376996476350
  H   -0.71350061514073      0.07181394213084     -1.36846787576407
  H   1.00922571992902      0.32270987882752      1.13434206523362
  N   1.16500324465078     -1.29314149745937     -0.13510269763976
  H   2.07191240698106     -1.52590678354094      0.24688684378932
  H   1.16636066010293     -1.50137137220986     -1.12685460264506
  C   -0.92960659980345      1.74924964552117     -0.16132963313885
  N   -1.17756927028193      2.88466593188038     -0.00204099084544
  N   -1.58200980744715     -0.46787559769802      0.44570598361676
  H   -1.62011241180154     -0.14451549449556      1.40555010729364
  H   -1.25682571476578     -1.42806427785479      0.45464744903964
