13
Coordinates from ORCA-job run
  C   0.92210420467451     -0.11757772057074     -0.49607925895194
  C   -0.50734408019082      0.43285301237797     -0.37746297974098
  F   0.85981870788846     -0.96470950650422     -1.61920092145392
  H   -0.77519009674289      0.88811611930524     -1.34134348098525
  H   1.62292926084529      0.67928501475198     -0.75440012018832
  N   1.34856956417438     -0.82639119529155      0.63854238939651
  H   0.58416041659347     -1.14264984535371      1.21716781719088
  H   2.08364353104760     -0.38082945697972      1.15975949354916
  C   -0.52991994284898      1.48108674220849      0.64746125274335
  N   -0.53456747559112      2.32712394039287      1.46055719918059
  N   -1.37633191718715     -0.66889485438972      0.02513734921218
  H   -1.37122271534268     -1.36181148061329     -0.71443018203337
  H   -2.32664945732005     -0.34560076933359      0.15429144208111
