13

C	-0.402159	0.015272	-1.467042
C	0.0	0.0	0.0
Br	-2.330666	0.293683	-1.710943
H	1.096096	0.0	0.0
H	0.09	0.864175	-1.941466
C	-0.031586	-1.226779	-2.128128
N	0.225489	-2.233074	-2.676161
C	-0.55657	-1.111505	0.745826
N	-0.978216	-2.038932	1.330933
N	-0.369338	1.311476	0.633336
O	-0.192458	2.308873	-0.059051
O	-0.756943	1.298832	1.796689
Cl	3.090167	0.0	0.0
