13

C	-0.461794	-0.010743	-1.462507
C	0.0	0.0	0.0
Br	0.095602	1.62175	-2.36396
H	1.091599	0.0	0.0
H	0.085991	-0.820154	-1.951811
C	-1.895351	-0.200674	-1.655326
N	-3.037565	-0.391128	-1.855909
C	-0.513415	-1.178854	0.684504
N	-0.912611	-2.148064	1.215567
N	-0.532356	1.224394	0.700197
O	-1.757476	1.301865	0.794445
O	0.280157	2.046536	1.100388
Cl	3.18243	0.0	0.0
