13

C	-0.458419	-0.01965	-1.462746
C	0.0	0.0	0.0
Br	0.103589	1.612985	-2.362864
H	1.091618	0.0	0.0
H	0.09163	-0.831756	-1.947247
C	-1.892375	-0.211013	-1.660273
N	-3.034516	-0.401764	-1.861119
C	-0.515483	-1.17451	0.69001
N	-0.914874	-2.141747	1.224191
N	-0.534305	1.230239	0.690807
O	-1.76024	1.319117	0.763116
O	0.279924	2.042427	1.108369
Cl	3.188581	0.0	0.0
