13

C	-0.535815	0.005258	-1.435539
C	0.0	0.0	0.0
Br	-0.197823	-1.733225	-2.257988
H	1.091553	0.0	0.0
H	-1.618544	0.137517	-1.439966
C	0.066621	1.038875	-2.268569
N	0.467418	1.864008	-3.002044
C	-0.522881	-1.112938	0.777857
N	-0.969981	-2.002541	1.401722
N	-0.421057	1.268164	0.703827
O	-1.008486	2.12089	0.03784
O	-0.124786	1.356538	1.887274
Cl	3.108028	0.0	0.0
