13

C	-0.398936	0.041937	-1.467578
C	0.0	0.0	0.0
Br	-2.327348	0.324537	-1.701786
H	1.096086	0.0	0.0
H	0.092425	0.9006	-1.924303
C	-0.027941	-1.186605	-2.152303
N	0.228094	-2.182589	-2.719403
C	-0.55984	-1.124839	0.723397
N	-0.986478	-2.061542	1.290196
N	-0.370919	1.298217	0.657
O	-0.760099	1.265097	1.818348
O	-0.192794	2.308092	-0.015149
Cl	3.0842	0.0	0.0
