16

C	-0.563201	-0.005988	-1.421278
C	0.0	0.0	0.0
Cl	0.111489	1.325656	-2.372588
H	1.0938	0.0	0.0
N	-0.070633	-1.299997	-2.137663
O	-0.668732	-1.578572	-3.17524
O	0.835345	-1.947779	-1.633794
N	-1.972306	0.043503	-1.415384
H	-2.288966	-0.677122	-0.773023
H	-2.328383	-0.129819	-2.347312
N	-0.540302	-1.188025	0.69286
H	0.214839	-1.864999	0.723002
H	-0.768041	-0.945969	1.649169
C	-0.45815	1.219	0.666765
N	-0.795754	2.181406	1.248754
Cl	3.30513	0.0	0.0
