16

C	-0.481873	-0.005681	-1.447497
C	0.0	0.0	0.0
Cl	-2.358021	0.227237	-1.438371
H	1.092947	0.0	0.0
N	-0.02161	1.208402	-2.239168
O	-0.065388	1.095152	-3.459483
O	0.331608	2.19611	-1.610789
N	-0.06485	-1.142899	-2.094579
H	-0.17421	-1.950815	-1.495277
H	-0.416846	-1.241195	-3.033818
N	-0.383518	-1.287032	0.588241
H	0.332624	-1.543318	1.261262
H	-1.277113	-1.213841	1.063321
C	-0.497656	1.134826	0.780023
N	-0.929693	1.950024	1.507596
Cl	3.235977	0.0	0.0
