16

C	-0.369825	-0.097241	-1.492444
C	0.0	0.0	0.0
Cl	-2.123181	-0.393159	-1.66925
H	1.094166	0.0	0.0
N	-0.057938	1.245949	-2.162353
O	-0.834168	2.171075	-1.950561
O	0.975474	1.301914	-2.81697
N	0.354551	-1.113939	-2.170717
H	1.343496	-0.868475	-2.107938
H	0.220444	-1.954659	-1.615295
N	-0.360147	-1.268744	0.627156
H	0.326213	-1.470063	1.344799
H	-1.279831	-1.220849	1.047896
C	-0.545614	1.163409	0.697831
N	-1.007176	2.029787	1.344922
Cl	3.230998	0.0	0.0
