16

C	-0.559103	-0.010131	-1.426268
C	0.0	0.0	0.0
Cl	0.255133	1.283821	-2.394589
H	1.09138	0.0	0.0
N	-0.172367	-1.306714	-2.150886
O	0.94333	-1.754087	-1.919864
O	-1.012677	-1.76674	-2.935568
N	-1.973915	0.06861	-1.42962
H	-2.260202	1.010756	-1.18903
H	-2.32768	-0.183835	-2.346117
N	-0.462937	-1.211908	0.656902
H	0.140653	-1.411148	1.444012
H	-1.424039	-1.11819	0.961466
C	-0.482646	1.235493	0.641481
N	-0.924369	2.177764	1.188811
Cl	3.295601	0.0	0.0
