15
Coordinates from ORCA-job run
  C   -0.57568991280525     -0.37194902777753      0.22747342953704
  C   0.64608914335403     -0.17504692001072     -0.69428937041931
  Cl  -0.71248936539726     -2.15953493410954      0.55702574436901
  H   0.46322577134026     -0.71479301492846     -1.63021063446051
  N   -1.73372970373421      0.15353701035442     -0.41449976236430
  H   -1.90897345484909     -0.29875625199549     -1.30451141627083
  H   -2.54991156123844      0.03811097495576      0.17447779145794
  N   -0.30694924630766      0.27066580987985      1.49247781949369
  H   -0.59655369046733      1.24108788000191      1.43152867785488
  H   -0.79760312289210     -0.18492974685831      2.24986214919668
  N   1.83623495552684     -0.70796223020811     -0.06966067169076
  H   2.65055611905820     -0.50567781001616     -0.63532740174296
  H   1.94097509560055     -0.26623538851388      0.83699562037424
  C   0.74003547088545      1.26943113762343     -1.00116626421669
  N   0.90478350192603      2.41205251160281     -1.22017571111812
