15
Coordinates from ORCA-job run
  C   -0.61577886794186     -0.14086292806099      0.29883843026410
  C   0.59444789836623      0.45315859712243     -0.43533287160900
  Cl  0.09647383411261     -1.71672234930559      1.17315387593963
  H   0.18591413959331      1.32855670784351     -0.95025837070397
  N   -1.58810123853802     -0.49752246574682     -0.64535133434699
  H   -1.14479502051562     -0.99264939686715     -1.41028894460250
  H   -2.32313762288548     -1.06371823541464     -0.24174863876847
  N   -1.10547076235450      0.75807544600299      1.26659815793168
  H   -0.48715244828824      0.82379951757547      2.06492953112535
  H   -2.03420599902610      0.50615072461492      1.57844589922894
  N   1.08976580210242     -0.47599273402087     -1.43359809095518
  H   1.69310294983293      0.00307608784900     -2.08984246587567
  H   1.61832310405162     -1.21648854265519     -0.98760182944948
  C   1.59772235111887      0.92907497444397      0.53252738510664
  N   2.42289188037183      1.30206459661897      1.28052926671491
