15
Coordinates from ORCA-job run
  C   -0.77994507149715      0.03221917556235      0.21083011975301
  C   0.40942432209267      0.16048357444062     -0.77292802994101
  Cl  -2.06296519732551      1.19091045533706     -0.40638757992815
  H   0.02497852608001     -0.00897004183344     -1.78197409221061
  N   -0.31979918015190      0.32694205267850      1.51746823713091
  H   -0.05580017672555      1.29865528415629      1.62570424960393
  H   -1.03531492048247      0.08027095149021      2.18943002875616
  N   -1.37456497358024     -1.27451306036652      0.23139415071866
  H   -0.61437700693170     -1.94736950581710      0.26819090502234
  H   -1.90435385648926     -1.42997427233934     -0.61688335365190
  N   1.36159329719183     -0.89070349446613     -0.44814605083874
  H   1.77449500540063     -0.69580014978173      0.45659219383480
  H   2.09746884614243     -0.93088501017338     -1.14243369361802
  C   0.98353292296908      1.51775477779946     -0.71373517529192
  N   1.49762746330713      2.56997926331316     -0.61612190933946
