15
Coordinates from ORCA-job run
  C   -0.65186579472897     -0.20885707888677      0.18707279119759
  C   0.65413258618402     -0.00520372175431     -0.59775966472977
  Cl  -0.68004487050439     -2.18114058037392      0.37557691394794
  H   0.56670825773394     -0.57691875310088     -1.53185929282705
  N   -1.77204643466151      0.17999593057471     -0.56090879217972
  H   -1.95940847858389     -0.45449948416150     -1.32463656367370
  H   -2.60099210610217      0.29068237843866      0.00708694580231
  N   -0.57302303570240      0.40533295254645      1.42772521975282
  H   -1.32391054153791      0.15343397591788      2.05529780264233
  H   0.33491898996579      0.23947447795284      1.84489679527593
  N   1.78937902830948     -0.38975491178403      0.23347451757833
  H   2.64658055989793      0.00042470230459     -0.13657511502194
  H   1.86580393479847     -1.39961005913167      0.24468657880319
  C   0.77581104522500      1.41484907153498     -0.95077543436723
  N   0.92595685970661      2.53279109992297     -1.27430270220104
