15
Coordinates from ORCA-job run
  C   -0.68288104900990     -0.07749221115802      0.12824208034262
  C   0.58612749614474      0.27859054712638     -0.67228030199961
  Cl  -2.03156253092975      0.99305347967149     -0.64415354942181
  H   0.34803119203430      0.07497248561872     -1.72655182083842
  N   -0.52372771421985      0.17883247329129      1.50426972424357
  H   0.05670565122911      0.98678202382429      1.68449832036576
  H   -1.41523764807142      0.28731629026477      1.96979273939537
  N   -0.99071553096406     -1.45577086699457     -0.08300075300402
  H   -1.47383487412249     -1.84364244517541      0.71592729601447
  H   -1.53675970618352     -1.59807075476775     -0.92194496770446
  N   1.69824132099570     -0.48848566825049     -0.13227337359181
  H   2.49146710804572     -0.43310428917426     -0.75975862920446
  H   1.39488547230810     -1.45394442057950     -0.06694290463437
  C   0.89442627892656      1.71021305491630     -0.55399939751092
  N   1.18583453381677      2.84175030138677     -0.44282446245192
