17

C	-0.242092	-0.04188	-1.48932
C	0.0	0.0	0.0
F	0.261742	-1.211365	-1.980019
H	1.095649	0.0	0.0
N	-1.730031	-0.099559	-1.847989
O	-2.03002	-0.60076	-2.927934
O	-2.526949	0.390117	-1.049759
C	0.423238	1.109594	-2.197581
H	-0.036768	2.060854	-1.925363
H	1.457879	1.079394	-1.840676
H	0.371635	0.959576	-3.277288
N	-0.526491	-1.178491	0.668184
H	-1.378834	-0.965849	1.168935
H	0.172514	-1.500027	1.324653
C	-0.405866	1.266267	0.598277
N	-0.688577	2.26527	1.151542
F	2.56656	0.0	0.0
