17

C	-0.416471	0.020358	-1.473954
C	0.0	0.0	0.0
F	0.091124	1.148686	-2.049823
H	1.094067	0.0	0.0
N	0.232232	-1.155529	-2.186813
O	-0.241813	-2.263348	-1.922216
O	1.13338	-0.934403	-2.982948
C	-1.898832	-0.018937	-1.769795
H	-2.3657	-0.906361	-1.347314
H	-2.062305	-0.013423	-2.850716
H	-2.351077	0.873756	-1.336662
N	-0.350117	-1.184088	0.771331
H	0.45627	-1.795617	0.731701
H	-1.149682	-1.679509	0.399432
C	-0.556864	1.198186	0.616777
N	-1.017976	2.168267	1.096478
F	2.519646	0.0	0.0
