17

C	-0.558575	-0.044861	-1.408102
C	0.0	0.0	0.0
F	-0.09218	1.036012	-2.121533
H	1.095603	0.0	0.0
N	0.000822	-1.263571	-2.146221
O	-0.395715	-1.396188	-3.30712
O	0.79958	-1.997044	-1.579697
C	-2.061885	-0.079253	-1.513213
H	-2.4561	0.833063	-1.059568
H	-2.441233	-0.946963	-0.973171
H	-2.360176	-0.123978	-2.56022
N	-0.461684	-1.187118	0.747734
H	0.387977	-1.662317	1.032617
H	-0.960639	-0.908924	1.583554
C	-0.450335	1.234317	0.624135
N	-0.839167	2.203864	1.1665
F	2.533265	0.0	0.0
