17

C	-0.311716	-0.011237	-1.479342
C	0.0	0.0	0.0
F	0.184795	-1.180645	-1.993125
H	1.102575	0.0	0.0
N	-1.815274	-0.075237	-1.730585
O	-2.299287	-1.11145	-2.170927
O	-2.442587	0.944317	-1.450292
C	0.315975	1.152748	-2.195681
H	0.220265	1.024069	-3.276364
H	1.366353	1.133898	-1.889811
H	-0.150957	2.088396	-1.890478
N	-0.560892	-1.218321	0.625741
H	-0.374462	-1.141284	1.620825
H	0.045219	-1.967781	0.303478
C	-0.487688	1.194335	0.663987
N	-0.807393	2.160278	1.253422
F	2.573677	0.0	0.0
