15
Coordinates from ORCA-job run
  C   0.82123303035873     -0.36435669056722      0.08850777331778
  C   -0.69042371841088     -0.29759942824862     -0.17306789943374
  H   1.04753866882781     -1.40893366344671      0.34029242498789
  H   -0.88222324193209     -0.98353221889868     -1.01659065144994
  C   1.15435366181325      0.44677921916977      1.26546252083378
  N   1.44524723335752      1.06603654565690      2.21884191951716
  N   1.54925676511053      0.14585067611235     -1.07770663996463
  H   2.51826606070023      0.32175892479834     -0.84025829801840
  H   1.53801996538848     -0.56308839188602     -1.80270869545011
  N   -1.03528261694562      1.08512721720711     -0.44776161631567
  H   -1.96688228814435      1.14833938279102     -0.83965605627328
  H   -0.37188197066255      1.46619577728191     -1.11415219468365
  N   -1.37727731712308     -0.84683692343126      0.97694369314639
  H   -2.32900225688979     -1.09286470895027      0.73402712135112
  H   -1.42094197544818     -0.12387571758864      1.68882659843531
