15
Coordinates from ORCA-job run
  C   0.84014409529984     -0.22830566348867      0.35901002138765
  C   -0.67072487200048      0.05617438326950      0.38851000457184
  H   1.01038969573070     -1.18614239544138      0.87832999390452
  H   -0.98898978433937      0.12940054919417      1.43765632141763
  C   1.57248297755578      0.79991544367500      1.10586770109438
  N   2.19984557370118      1.59112951727103      1.70341309535160
  N   1.26832348703045     -0.23622199553400     -1.03619836972094
  H   2.26330227630639     -0.40942468580112     -1.10290414094162
  H   0.76462255045911     -0.98679901836918     -1.49527436258757
  N   -1.30661538553048     -1.07644515700490     -0.31136582026599
  H   -1.39739138452240     -1.86884843639714      0.31705405228183
  H   -2.24149940046542     -0.80818381326326     -0.59400305237203
  N   -0.90135458697641      1.32800187306800     -0.23391190223847
  H   -1.88150469557370      1.57647336105401     -0.23980873855698
  H   -0.53003054667519      1.32027603776794     -1.17537480332587
