15
Coordinates from ORCA-job run
  C   0.79980268467422     -0.19992090593411      0.37695257972111
  C   -0.73727247250619      0.00105173495656      0.33093446088156
  H   1.01402694064406     -1.08312848532213      1.00185380566322
  H   -1.09011458487570      0.16359258580003      1.35922058954952
  C   1.41330049513775      0.96102530803303      1.03040745580120
  N   1.86829113959732      1.89993965794372      1.56832862319383
  N   1.27307477145887     -0.31275340608161     -0.99588823100528
  H   0.76809852155060     -1.08570914791086     -1.41641048956548
  H   2.26618423421416     -0.50534261855165     -1.02220461826151
  N   -1.28714123568485     -1.19901725351212     -0.29191915836596
  H   -2.22287607033411     -0.97489771638077     -0.60700492782618
  H   -1.34485266129692     -1.95700153125196      0.37846358603416
  N   -1.14806904735478      1.13415554615235     -0.46516557448159
  H   -1.00325330421580      1.99356620288196      0.04956754277825
  H   -0.56919941100862      1.16544002917755     -1.29813564411686
