13

C	-0.459418	-0.009057	-1.449444
C	0.0	0.0	0.0
Br	0.538048	1.279062	-2.561058
H	1.088676	0.0	0.0
H	-0.341678	-0.903198	0.50872
C	-0.167149	-1.336689	-1.997651
N	0.007606	-2.418276	-2.423434
C	-1.889333	0.251272	-1.63887
N	-3.046542	0.39573	-1.789695
N	-0.515134	1.141145	0.751646
O	-0.487605	1.045777	1.978901
O	-0.893763	2.141986	0.135136
F	2.470489	0.0	0.0
