13

C	-0.348763	-0.002671	-1.464212
C	0.0	0.0	0.0
Br	-2.323935	0.098926	-1.813788
H	1.093651	0.0	0.0
H	-0.381899	-0.886333	0.502988
C	0.271131	1.074013	-2.239358
N	0.797565	1.878031	-2.91558
C	0.076195	-1.2874	-2.025331
N	0.393515	-2.319833	-2.488212
N	-0.499854	1.17128	0.70486
O	-0.637255	2.223516	0.075087
O	-0.706384	1.049397	1.913897
F	2.45104	0.0	0.0
