13

C	-0.401914	-0.084711	-1.468235
C	0.0	0.0	0.0
Br	0.069575	1.665229	-2.256603
H	1.090539	0.0	0.0
H	-0.399256	0.897531	0.468531
C	0.343476	-1.099203	-2.214846
N	0.910372	-1.915633	-2.841131
C	-1.839749	-0.258151	-1.687261
N	-3.00168	-0.352145	-1.840805
N	-0.504182	-1.155324	0.737889
O	-0.76917	-2.183991	0.103574
O	-0.591326	-1.046393	1.959983
F	2.47363	0.0	0.0
