16

C	-0.537054	0.03276	-1.450266
C	0.0	0.0	0.0
Cl	0.057874	-1.457566	-2.25
H	1.091457	0.0	0.0
C	-2.060928	0.040293	-1.498607
H	-2.448035	0.945641	-1.026343
H	-2.39554	0.012983	-2.536038
H	-2.448627	-0.833707	-0.973325
C	-0.019192	1.175181	-2.205461
N	0.267319	2.10642	-2.862504
C	-0.498897	-1.174654	0.701853
N	-0.88875	-2.137482	1.250607
N	-0.465771	1.240238	0.710557
O	0.043378	2.28992	0.334684
O	-1.33105	1.129041	1.579386
Br	3.302406	0.0	0.0
