16

C	-0.437666	-0.03262	-1.479274
C	0.0	0.0	0.0
Cl	0.044081	1.513995	-2.243748
H	1.092184	0.0	0.0
C	0.30141	-1.176763	-2.169131
H	0.080153	-1.163347	-3.237303
H	-0.021537	-2.132078	-1.74844
H	1.373601	-1.045818	-2.000011
C	-1.887594	-0.174855	-1.637912
N	-3.034891	-0.342671	-1.829389
C	-0.499888	-1.180901	0.690155
N	-0.878912	-2.157211	1.223864
N	-0.538537	1.221309	0.69182
O	0.249789	2.126093	0.931607
O	-1.745209	1.218556	0.936723
Br	3.371006	0.0	0.0
