16

C	-0.428752	0.114293	-1.478998
C	0.0	0.0	0.0
Cl	-2.192099	0.511365	-1.567141
H	1.093467	0.0	0.0
C	0.381051	1.127622	-2.281611
H	0.158044	2.136737	-1.948515
H	0.134684	1.021803	-3.339537
H	1.442417	0.922009	-2.113565
C	-0.265079	-1.207528	-2.091057
N	-0.139218	-2.245286	-2.628289
C	-0.534088	-1.195921	0.631948
N	-0.944408	-2.179971	1.126068
N	-0.404682	1.209287	0.799065
O	-0.102413	2.2999	0.328798
O	-0.964134	1.024875	1.875209
Br	3.303227	0.0	0.0
