16

C	0.0	0.0	0.0
C	-0.286	-0.281605	-1.50596
F	1.420594	0.0	0.0
H	0.36204	0.416237	-2.056792
C	-0.380289	1.381454	0.344792
N	-0.640139	2.499124	0.590739
N	-0.529794	-0.936217	0.912849
H	-1.458931	-0.645704	1.207294
H	-0.609083	-1.818125	0.413458
N	-1.628498	-0.106883	-1.972394
H	-2.322251	-0.50574	-1.338806
H	-1.867089	0.875709	-2.02061
N	0.08212	-1.680519	-1.710911
H	1.088605	-1.776798	-1.751608
H	-0.323484	-1.960247	-2.594712
Br	-4.281848	0.0	0.0
