16

C	0.0	0.0	0.0
C	-0.385265	-0.06547	-1.485465
F	1.445458	0.0	0.0
H	-1.476697	-0.122951	-1.493433
C	-0.351411	1.307325	0.58889
N	-0.506084	2.371982	1.057865
N	-0.462675	-1.067569	0.806583
H	-1.45044	-0.883217	0.999193
H	-0.43181	-1.895571	0.2174
N	0.156024	-1.318091	-1.991035
H	-0.238937	-1.471501	-2.909796
H	1.158084	-1.212089	-2.101336
N	0.02651	1.099553	-2.261197
H	-0.625813	1.857131	-2.090788
H	0.941975	1.406576	-1.947135
Br	-3.674754	0.0	0.0
