16

C	0.0	0.0	0.0
C	-0.443983	-0.001544	-1.461142
F	1.427176	0.0	0.0
H	-1.532725	0.103667	-1.405386
C	-0.341789	1.282021	0.653976
N	-0.534844	2.314389	1.176181
N	-0.477209	-1.09337	0.766278
H	-0.551001	-1.87637	0.121499
H	-1.429019	-0.865155	1.05508
N	-0.147558	-1.325697	-2.011074
H	0.805369	-1.352208	-2.352432
H	-0.775858	-1.523536	-2.778145
N	0.120398	1.15181	-2.1349
H	-0.251332	1.223213	-3.073696
H	1.1288	1.063794	-2.181306
Br	-3.76031	0.0	0.0
