16

C	0.0	0.0	0.0
C	-0.404563	-0.238468	-1.472279
F	1.417516	0.0	0.0
H	0.164004	0.500633	-2.055754
C	-0.356068	1.367093	0.429714
N	-0.574552	2.478015	0.738707
N	-0.571262	-0.959887	0.82348
H	-0.457954	-1.888185	0.443111
H	-0.389493	-0.867328	1.80907
N	-1.795038	-0.087854	-1.775519
H	-2.060662	0.885981	-1.839992
H	-2.41769	-0.485578	-1.070592
N	-0.009252	-1.617539	-1.769835
H	0.980456	-1.661066	-1.978137
H	-0.540219	-1.891039	-2.587111
Br	-4.742555	0.0	0.0
