16

C	0.0	0.0	0.0
C	-0.454411	-0.05592	-1.465442
F	1.395897	0.0	0.0
H	-1.548782	-0.054246	-1.40823
C	-0.384056	1.291403	0.617297
N	-0.593185	2.345737	1.088282
N	-0.465777	-1.083448	0.795842
H	-1.463189	-0.925107	0.962008
H	-0.389349	-1.908383	0.204319
N	-0.020782	-1.341958	-1.999903
H	0.88266	-1.194209	-2.432477
H	-0.668076	-1.63476	-2.71967
N	0.073848	1.071902	-2.240642
H	-0.674163	1.449877	-2.81128
H	0.375796	1.821113	-1.625306
Br	-3.764702	0.0	0.0
