16

C	0.0	0.0	0.0
C	-0.375626	-0.090467	-1.516605
F	1.376219	0.0	0.0
H	0.411387	0.518782	-1.981601
C	-0.350257	1.364051	0.497168
N	-0.584891	2.44642	0.888907
N	-0.551325	-1.056801	0.781458
H	-1.569524	-1.012722	0.680925
H	-0.340294	-0.910159	1.762372
N	-1.631394	0.460053	-1.952371
H	-1.657043	1.463675	-1.816936
H	-2.436355	0.07835	-1.453179
N	-0.207762	-1.475427	-1.930318
H	-0.5509	-2.087157	-1.20039
H	-0.792117	-1.59334	-2.749438
Br	-4.268015	0.0	0.0
