16

C	0.0	0.0	0.0
C	-0.500687	0.15483	-1.453268
F	1.38573	0.0	0.0
H	-1.474603	0.646853	-1.376289
C	-0.362275	1.225105	0.757231
N	-0.535038	2.223852	1.348139
N	-0.46621	-1.14954	0.699848
H	-0.361622	-1.934897	0.062584
H	-1.46766	-1.016356	0.860386
N	-0.651873	-1.194233	-2.033862
H	-1.600168	-1.496238	-1.811642
H	-0.609491	-1.096154	-3.041357
N	0.405258	1.016814	-2.175246
H	0.013287	1.259386	-3.076042
H	1.292245	0.546038	-2.306599
Br	-3.709247	0.0	0.0
