16

C	0.0	0.0	0.0
C	-0.375979	0.500166	-1.431024
F	1.371006	0.0	0.0
H	0.159845	1.454879	-1.523531
C	-0.370162	1.009416	1.029689
N	-0.624173	1.831782	1.829199
N	-0.529409	-1.302667	0.23314
H	-0.341074	-1.60326	1.181353
H	-1.543215	-1.249994	0.122578
N	-1.770557	0.697535	-1.690069
H	-2.335756	0.977103	-0.894339
H	-2.191585	-0.145169	-2.056919
N	0.17458	-0.43563	-2.405839
H	1.110075	-0.151393	-2.66487
H	0.234945	-1.35372	-1.976882
Br	-4.518015	0.0	0.0
