16

C	0.0	0.0	0.0
C	-0.467775	-0.194487	-1.446576
F	1.353317	0.0	0.0
H	-1.06615	0.656038	-1.747096
H	-0.385831	-0.745997	0.678319
N	-0.397336	1.336152	0.544602
O	-0.354334	2.298531	-0.221556
O	-0.583797	1.406412	1.753296
N	-1.376806	-1.371322	-1.574698
O	-1.091264	-2.390014	-0.946736
O	-2.224041	-1.31299	-2.460205
C	0.676134	-0.473427	-2.419897
H	1.196408	-1.392354	-2.140833
H	1.395021	0.34549	-2.422544
H	0.264545	-0.591673	-3.42466
F	-2.326361	0.0	0.0
