16

C	0.0	0.0	0.0
C	-0.439664	-0.029132	-1.499049
Br	1.961431	0.0	0.0
H	0.43609	-0.259833	-2.111182
H	-0.255367	-0.976102	0.411823
N	-0.530036	1.002577	0.869844
H	-1.521305	0.792421	0.999309
H	-0.465644	1.91547	0.43615
C	-0.994468	1.320268	-1.955826
H	-0.267462	2.131326	-1.82688
H	-1.915469	1.54778	-1.416672
H	-1.241206	1.265148	-3.0212
N	-1.363009	-1.152368	-1.65595
H	-2.231425	-0.933071	-1.161225
H	-1.609176	-1.228296	-2.638204
Cl	-3.94231	0.0	0.0
