16

C	0.0	0.0	0.0
C	-0.496118	0.192106	-1.441818
Br	1.959471	0.0	0.0
H	-1.585643	0.170011	-1.331456
H	-0.254363	-1.008214	0.345366
N	-0.505412	1.064506	0.824708
H	-0.28958	0.872867	1.797139
H	-1.525809	1.002873	0.726246
C	-0.088198	-0.940708	-2.366985
H	-0.623411	-0.831563	-3.312027
H	-0.342182	-1.911966	-1.93366
H	0.985311	-0.922489	-2.574651
N	-0.137095	1.476	-2.033502
H	0.875269	1.563419	-2.012029
H	-0.496225	2.202447	-1.423109
Cl	-3.643729	0.0	0.0
