16

C	0.0	0.0	0.0
C	-0.383897	0.237499	-1.502282
Br	1.954434	0.0	0.0
H	0.414089	-0.214487	-2.100314
H	-0.261369	-1.030162	0.251979
N	-0.566911	0.848072	0.999072
H	-0.508627	1.817945	0.716047
H	-1.554743	0.606569	1.087078
C	-0.444651	1.723116	-1.827053
H	-1.323805	2.174432	-1.359018
H	-0.549977	1.846739	-2.906016
H	0.454121	2.251419	-1.495714
N	-1.621681	-0.386219	-1.92042
H	-2.422518	-0.064671	-1.372765
H	-1.572302	-1.387697	-1.764492
Cl	-4.154527	0.0	0.0
