16

C	0.0	0.0	0.0
C	-0.371585	0.641773	-1.384426
Br	1.979815	0.0	0.0
H	0.457255	0.420368	-2.063672
H	-0.249549	-1.062405	-0.042891
N	-0.567387	0.533212	1.192417
H	-0.520085	1.544201	1.187623
H	-1.552266	0.265359	1.206917
C	-0.509237	2.153194	-1.269654
H	-0.626299	2.574353	-2.269242
H	0.365687	2.607422	-0.793626
H	-1.40738	2.402738	-0.699734
N	-1.565844	0.10382	-2.001725
H	-1.45	-0.889435	-2.167424
H	-2.387175	0.203898	-1.401586
Cl	-4.065316	0.0	0.0
