13

C	0.0	0.0	0.0
C	-0.527092	0.099811	-1.432161
F	1.391197	0.0	0.0
H	-1.643229	0.129447	-1.285871
H	-0.377387	0.850899	0.572647
H	-0.219047	-0.793076	-1.999047
C	-0.436505	-1.306905	0.651941
H	-0.033504	-2.1531	0.077132
H	-0.02969	-1.358556	1.6696
H	-1.533321	-1.313653	0.657488
C	-0.031834	1.280756	-2.128667
N	0.360357	2.228966	-2.699667
F	-2.937152	0.0	0.0
