13

C	0.0	0.0	0.0
C	-0.574776	0.029679	-1.401399
F	1.391234	0.0	0.0
H	-1.677908	0.072919	-1.173211
H	-0.331397	0.902228	0.517675
H	-0.323517	-0.902208	-1.929236
C	-0.480328	-1.223317	0.745585
H	-1.572747	-1.163552	0.720947
H	-0.095077	-1.212049	1.770783
H	-0.106703	-2.126479	0.24755
C	-0.082904	1.156062	-2.180796
N	0.318509	2.065686	-2.807946
F	-2.883229	0.0	0.0
