13

C	0.0	0.0	0.0
C	-0.383	-0.228102	-1.462471
F	1.393903	0.0	0.0
H	-0.190836	-1.27908	-1.69873
H	-0.345683	0.974326	0.340744
H	0.333075	0.349264	-2.058075
C	-0.442077	-1.094043	0.940312
H	-0.049226	-2.053625	0.587915
H	-1.53501	-1.060892	0.923016
H	-0.041976	-0.90579	1.941296
C	-1.723349	0.114949	-1.97204
N	-2.477391	0.357644	-2.84562
F	-2.667992	0.0	0.0
