13

C	0.0	0.0	0.0
C	-0.378793	-0.158773	-1.468811
F	1.394014	0.0	0.0
H	0.196851	0.583975	-2.027331
H	-0.363635	0.944877	0.39527
H	-0.007805	-1.131788	-1.803162
C	-0.358987	-1.163475	0.899966
H	0.116953	-1.013437	1.873061
H	0.072453	-2.080085	0.472541
H	-1.440989	-1.229807	0.986348
C	-1.777841	-0.037959	-1.931204
N	-2.580082	0.010426	-2.805067
F	-2.668982	0.0	0.0
