13

C	0.0	0.0	0.0
C	-0.57291	-0.220309	-1.388097
F	1.391775	0.0	0.0
H	-1.689271	-0.211986	-1.155038
H	-0.366094	0.976878	0.317749
H	-0.289688	0.612102	-2.04723
C	-0.416145	-1.045004	1.017708
H	-1.507972	-1.072991	1.046168
H	0.007499	-2.016136	0.746838
H	-0.003718	-0.759172	1.990553
C	-0.110357	-1.451183	-2.01152
N	0.254513	-2.421522	-2.566771
F	-2.937215	0.0	0.0
