14

C	-0.422458	0.000335	-1.458278
C	0.0	0.0	0.0
Cl	-2.139371	0.416427	-1.759266
H	1.091479	0.0	0.0
H	0.170984	0.7792	-1.939991
C	-0.125525	-1.29241	-2.068087
N	0.078962	-2.337214	-2.564022
N	-0.558907	-1.150835	0.760971
O	0.24154	-1.931902	1.264348
O	-1.785724	-1.23517	0.806096
N	-0.408888	1.265511	0.675336
O	-0.712671	1.207321	1.860559
O	-0.319674	2.281138	-0.006239
Cl	3.121994	0.0	0.0
