14

C	-0.582458	0.009223	-1.402466
C	0.0	0.0	0.0
Cl	-0.064679	-1.484577	-2.234216
H	1.087843	0.0	0.0
H	-1.670943	-0.011113	-1.350256
C	-0.151601	1.171031	-2.174521
N	0.137079	2.09053	-2.845657
N	-0.529027	-1.196312	0.744225
O	-1.717526	-1.468026	0.55146
O	0.23265	-1.77372	1.508031
N	-0.5093	1.161289	0.800478
O	-1.309857	1.922231	0.259165
O	-0.104025	1.237921	1.953205
Cl	3.148693	0.0	0.0
