14

C	-0.460777	-0.004636	-1.450004
C	0.0	0.0	0.0
Cl	-0.032398	1.546545	-2.211646
H	1.089454	0.0	0.0
H	0.137988	-0.767976	-1.947968
C	-1.875877	-0.304039	-1.655978
N	-2.992189	-0.601903	-1.865257
N	-0.441177	-1.267425	0.663726
O	-0.351562	-2.27741	-0.02809
O	-0.804435	-1.216117	1.832327
N	-0.560455	1.129937	0.786362
O	0.149169	1.598495	1.66823
O	-1.70644	1.48381	0.506258
Cl	3.136817	0.0	0.0
