14

C	-0.450567	-0.003812	-1.446962
C	0.0	0.0	0.0
Cl	-2.191912	0.364462	-1.657124
H	1.091051	0.0	0.0
H	0.095053	0.815786	-1.918694
C	-0.115513	-1.248771	-2.128432
N	0.137681	-2.220072	-2.737931
N	-0.492832	-1.143677	0.806371
O	-0.003032	-1.25279	1.924723
O	-1.327969	-1.89445	0.300253
N	-0.445113	1.284719	0.629074
O	-0.079521	2.290193	0.030505
O	-1.128226	1.250982	1.645108
Cl	3.101518	0.0	0.0
