14

C	-0.581013	0.01865	-1.403888
C	0.0	0.0	0.0
Cl	-0.074634	-1.474255	-2.241722
H	1.088015	0.0	0.0
H	-1.668907	0.007087	-1.352319
C	-0.141954	1.179918	-2.170174
N	0.152572	2.095365	-2.843762
N	-0.533455	-1.192031	0.740097
O	-1.727543	-1.442459	0.567742
O	0.229084	-1.795538	1.478348
N	-0.501501	1.16769	0.796611
O	-1.258299	1.964038	0.235752
O	-0.121805	1.223683	1.961049
Cl	3.15177	0.0	0.0
