14

C	-0.419038	0.034466	-1.458296
C	0.0	0.0	0.0
Cl	-2.147033	0.39458	-1.752964
H	1.091598	0.0	0.0
H	0.150497	0.845491	-1.914124
C	-0.080081	-1.2285	-2.106197
N	0.151911	-2.251367	-2.634734
N	-0.56167	-1.173065	0.721509
O	-1.783573	-1.194461	0.869777
O	0.231184	-2.038155	1.083756
N	-0.397005	1.251292	0.708209
O	-0.343302	2.28005	0.040437
O	-0.649972	1.170628	1.904657
Cl	3.127928	0.0	0.0
