14

C	-0.501792	-0.013018	-1.434849
C	0.0	0.0	0.0
Cl	-0.045841	1.525153	-2.212823
H	1.090499	0.0	0.0
H	0.047226	-0.803237	-1.948828
C	-1.937001	-0.245486	-1.594822
N	-3.076213	-0.463922	-1.781187
N	-0.436926	-1.237691	0.712842
O	-0.564686	-1.171737	1.928853
O	-0.5619	-2.244425	0.018908
N	-0.547052	1.159462	0.763616
O	0.248979	1.893001	1.335284
O	-1.772802	1.277727	0.752633
Cl	3.143578	0.0	0.0
