16

C	0.0	0.0	0.0
C	-0.583539	-0.229772	-1.399151
Br	2.011932	0.0	0.0
H	-1.655606	-0.412855	-1.194762
N	-0.519029	1.195685	0.455606
H	-0.388134	1.422258	1.425153
H	-0.501401	1.947938	-0.213961
C	-0.299562	-1.076331	0.955228
N	-0.45472	-1.873212	1.804736
N	-0.000532	-1.489858	-2.013278
O	-0.167982	-2.533774	-1.392286
O	0.589727	-1.387866	-3.08907
N	-0.404777	0.921956	-2.212201
H	-1.178087	1.011763	-2.856504
H	0.463298	0.858902	-2.72921
Cl	-3.66495	0.0	0.0
