19

C	-0.446691	0.034107	-1.469654
C	0.0	0.0	0.0
Cl	-0.096144	1.710488	-2.090412
H	1.090668	0.0	0.0
C	0.473466	-0.914814	-2.226225
H	0.356137	-0.764968	-3.301556
H	1.498985	-0.72444	-1.884928
H	0.20509	-1.950655	-1.987596
N	-1.842532	-0.220643	-1.768408
H	-2.024123	-1.205859	-1.595744
H	-2.406913	0.310327	-1.112238
C	-0.436811	-1.274446	0.713288
H	-0.090297	-1.222464	1.749306
H	0.063636	-2.132672	0.260001
H	-1.520231	-1.421832	0.713975
N	-0.580952	1.139029	0.75656
O	-1.817862	1.164498	0.881674
O	0.161498	1.989335	1.237839
F	2.635307	0.0	0.0
