19

C	-0.091632	-0.035612	-1.532777
C	0.0	0.0	0.0
Cl	-1.786396	-0.474083	-2.114573
H	1.093232	0.0	0.0
C	0.268235	1.287946	-2.188845
H	0.297328	1.141799	-3.272107
H	1.26099	1.550848	-1.81892
H	-0.43421	2.089102	-1.964697
N	0.819132	-1.095536	-1.902928
H	1.007829	-1.031105	-2.896395
H	1.694506	-0.884837	-1.385088
C	-0.561254	-1.219849	0.687699
H	-0.2414	-1.229886	1.732593
H	-1.650153	-1.250836	0.651011
H	-0.152779	-2.096866	0.186578
N	-0.537812	1.246534	0.585756
O	-1.587615	1.188011	1.237293
O	0.094669	2.289869	0.415514
F	2.649323	0.0	0.0
