13

C	0.001689	-0.024202	0.00402
C	-0.528815	-0.141561	-1.425276
Cl	1.839293	0.079966	-0.011535
H	-0.205932	-1.079736	-1.882672
H	-1.633343	-0.117724	-1.257253
N	-0.559751	1.124837	0.610665
H	-1.610161	0.970076	0.455441
H	-0.345062	1.127484	1.601985
C	-0.27487	-1.297608	0.708563
N	-0.486271	-2.28165	1.315824
C	-0.112109	0.975383	-2.260755
N	0.2033	1.836275	-2.994362
F	-2.848834	0.252398	-0.076509
