13

C	0.001664	-0.024191	0.004027
C	-0.52883	-0.141001	-1.425318
Cl	1.839272	0.079974	-0.011481
H	-0.205947	-1.079002	-1.88307
H	-1.633359	-0.117223	-1.257293
N	-0.559773	1.124616	0.61111
H	-1.610183	0.969922	0.45582
H	-0.345089	1.126883	1.602432
C	-0.274898	-1.297866	0.70808
N	-0.486312	-2.282134	1.314973
C	-0.112117	0.976263	-2.260365
N	0.203288	1.837444	-2.993635
F	-2.848857	0.252469	-0.076426
