13

C	-0.005524	-0.015504	0.007928
C	-0.50669	-0.212489	-1.436791
Cl	1.82455	0.061577	-0.009077
H	-1.612689	-0.21236	-1.263308
H	-0.14834	-1.152594	-1.864322
N	-0.537879	1.12532	0.680228
H	-0.287407	1.946307	0.135126
H	-1.577402	0.946501	0.560154
C	-0.351162	-1.231084	0.764437
N	-0.550144	-2.227069	1.352846
C	-0.123136	0.901525	-2.288362
N	0.171418	1.807412	-2.976127
F	-2.790648	0.144872	-0.065839
