15

C	0.0	0.0	0.0
C	-0.352824	-0.262456	-1.52239
Br	1.969034	0.0	0.0
H	-0.223338	-1.346209	-1.651714
H	0.428799	0.22752	-2.111568
C	-0.36975	1.375571	0.332701
N	-0.604229	2.504198	0.561409
C	-0.645812	-0.993174	0.93406
H	-1.735153	-0.834614	0.777077
H	-0.347984	-2.007511	0.654884
H	-0.375221	-0.806717	1.976121
N	-1.63779	0.158355	-1.998321
H	-2.383754	-0.034748	-1.271818
H	-1.623406	1.169042	-2.082697
F	-3.209149	0.0	0.0
