15

C	0.0	0.0	0.0
C	-0.549182	0.035527	-1.424969
Br	1.960952	0.0	0.0
H	0.022541	-0.679958	-2.025124
H	-1.59806	-0.26664	-1.273938
C	-0.392709	1.199425	0.744904
N	-0.603942	2.168482	1.37487
C	-0.497218	-1.24755	0.719208
H	-0.090791	-1.307761	1.73113
H	-1.593519	-1.119645	0.706044
H	-0.188014	-2.133946	0.156513
N	-0.430062	1.378718	-2.004103
H	-1.232803	1.8967	-1.65578
H	-0.555558	1.303725	-3.007342
F	-2.860313	0.0	0.0
