15

C	0.0	0.0	0.0
C	-0.323465	0.299632	-1.528206
Br	1.966965	0.0	0.0
H	-0.104811	1.365705	-1.672909
H	0.434162	-0.254331	-2.091827
C	-0.413944	1.101209	0.863456
N	-0.668209	2.017922	1.554278
C	-0.585007	-1.316279	0.461745
H	-0.272516	-2.116673	-0.215363
H	-0.26652	-1.559109	1.478063
H	-1.677495	-1.149426	0.41629
N	-1.624774	-0.025936	-2.034069
H	-1.663612	-1.029859	-2.172512
H	-2.352634	0.154228	-1.285369
F	-3.126452	0.0	0.0
