15

C	0.0	0.0	0.0
C	-0.511844	-0.263423	-1.425607
Br	1.969929	0.0	0.0
H	-1.592568	-0.396477	-1.242253
H	-0.039465	-1.186299	-1.780192
C	-0.388569	1.339133	0.446598
N	-0.596562	2.431108	0.827582
C	-0.49814	-1.065522	0.962326
H	-1.596201	-0.948923	0.899814
H	-0.112375	-0.903041	1.971831
H	-0.172485	-2.048299	0.607379
N	-0.30869	0.803057	-2.39056
H	0.638973	1.158903	-2.329608
H	-0.938983	1.559131	-2.150363
F	-2.832825	0.0	0.0
