15

C	0.0	0.0	0.0
C	-0.38277	-0.279248	-1.514944
Br	1.968434	0.0	0.0
H	0.449213	0.084231	-2.123844
H	-0.395253	-1.373482	-1.599916
C	-0.365129	1.37741	0.334704
N	-0.599384	2.503275	0.578328
C	-0.630945	-0.982523	0.957344
H	-0.357004	-0.769578	1.992998
H	-0.320468	-1.998159	0.698944
H	-1.720062	-0.835561	0.795386
N	-1.612701	0.268221	-2.010462
H	-1.506855	1.275837	-2.073371
H	-2.373755	0.103147	-1.292946
F	-3.158847	0.0	0.0
