16
Coordinates from ORCA-job run
  C   0.68810079338605      0.03706037171160     -0.10234571885340
  C   -0.65171976290822     -0.07975212310190     -0.23291781243506
  N   1.47200323511938     -0.03665504333172     -1.28861351508445
  H   2.45534874972575     -0.14233037808274     -1.08079861540025
  H   1.16575813977901     -0.81204472351039     -1.86767755671375
  C   1.44358253388007      0.35265190252103      1.14975119042619
  H   2.12332311616251     -0.46454036793586      1.41949919661388
  H   2.05718763042416      1.24884554998209      1.00238600887723
  H   0.78894712999962      0.54314216367189      1.99858816711328
  C   -1.66280909179398     -0.09554584231582      0.86959973870979
  H   -2.36192990080078      0.74444292264322      0.77870085091278
  H   -1.20757345038400     -0.05221770013724      1.85764922516187
  H   -2.25535382346962     -1.01645627767164      0.82263133926463
  N   -1.16513047674510     -0.32325171032381     -1.53840266413095
  H   -0.72275630076054      0.29250924601234     -2.21329229051908
  H   -2.16697852161430     -0.19585799013105     -1.57575754394271
