16
Coordinates from ORCA-job run
  C   -0.69963743951640     -0.12370409072799     -0.22835275187406
  C   0.64618703317559     -0.02441279713080     -0.11802022798338
  N   -1.29691743521475     -0.53421135521303     -1.43656098342494
  H   -0.59760655275719     -0.69676788774261     -2.14844649485420
  H   -2.02695853503150      0.08377973019247     -1.76289645829923
  C   -1.68439192083705      0.06511642307212      0.88557903443425
  H   -2.16617069367524     -0.88640512464395      1.12859342208105
  H   -1.23465664173854      0.47899995430614      1.78641897871831
  H   -2.47877395373005      0.75258143534454      0.57275504942693
  C   1.41698089718776      0.14920518278991      1.15721436988005
  H   1.95003412837608      1.10725619943708      1.17457604940877
  H   2.17498021121650     -0.63878493089452      1.24810498046420
  H   0.78955646961532      0.08833837318928      2.04553789420721
  N   1.42450459984778     -0.15420762601061     -1.31996778527006
  H   1.39252299046679      0.69437340112028     -1.87351171524007
  H   2.39134684261491     -0.36115688708830     -1.11202336167484
