16
Coordinates from ORCA-job run
  C   -0.69938478279941     -0.12223187842984     -0.22722272345770
  C   0.64642246656821     -0.02340074569989     -0.11707452952320
  N   -1.29676014201396     -0.53173030394300     -1.43634833488914
  H   -0.59764623571450     -0.70420798545323     -2.14601722797829
  H   -2.02019825840027      0.09138821301715     -1.76776074981151
  C   -1.68434658456219      0.06566124809773      0.88666370893126
  H   -2.16358834878926     -0.88669158328945      1.13156366033788
  H   -1.23555328061966      0.48241778280298      1.78671514328236
  H   -2.48074881136270      0.75037067291202      0.57291597262005
  C   1.41777310821792      0.14505096442767      1.15830628200990
  H   0.78877691930556      0.09229723814335      2.04594992431886
  H   1.95986769888668      1.09799062434468      1.17385608018059
  H   2.16780157364982     -0.65030003376488      1.25142560933513
  N   1.42629796203106     -0.15369093388465     -1.31726057773857
  H   2.39794176529325     -0.33473575219448     -1.10812810472813
  H   1.37234495030944      0.68381247291382     -1.88558413288949
