16
Coordinates from ORCA-job run
  C   0.67024912576436     -0.01580926571858      0.09551838280898
  C   -0.67479665539834      0.02098197751013     -0.05503567534961
  N   1.46897945053456      1.14911595507548      0.23784028358630
  H   2.25475993567163      1.15410877773096     -0.40126410820225
  H   0.94410411475849      2.00561855795974      0.13798434721831
  C   1.45095328991915     -1.27950472748733      0.31891989899403
  H   0.96968445792468     -2.15031143863483     -0.13064244034794
  H   2.44332873240687     -1.19074902243625     -0.13447677296668
  H   1.60721714383168     -1.47451357191904      1.38510882231819
  C   -1.45083456842056      1.27923527573471     -0.32131208359617
  H   -1.82315660642785      1.72788657511231      0.60566938923045
  H   -0.86236710645185      2.02420635678517     -0.86052942549017
  H   -2.32728277903899      1.05439870405213     -0.93738063214856
  N   -1.51656323466748     -1.09345657917032      0.19938799264181
  H   -1.00563111039668     -1.93361434810237      0.42774040617637
  H   -2.14964419000966     -1.27759322649191     -0.56952838487307
