16
Coordinates from ORCA-job run
  C   -0.70248155534207      0.12313749014989     -0.10009961325937
  C   0.60561422922333     -0.15735528129441      0.10849347862642
  N   -1.16404083447654      1.36185071909739     -0.57883718507431
  H   -0.50312480429639      2.11866778840464     -0.49154425724799
  H   -2.05709091653585      1.62020617647956     -0.18352482676810
  C   -1.79061855154181     -0.89905443554939      0.03102716091644
  H   -2.56467225840041     -0.54612980125078      0.72292030719194
  H   -1.38159815387922     -1.83641728701730      0.39777080954729
  H   -2.27267662915400     -1.06301526908856     -0.93749542638774
  C   1.70695196494206      0.86246058370718     -0.02872915441724
  H   2.49305283704160      0.66414352609571      0.70661406224900
  H   2.17897654351328      0.82641093174488     -1.01865894937719
  H   1.37212877408037      1.89040944744088      0.13712400279983
  N   0.98185351158241     -1.51554830246968      0.40160042827883
  H   1.59710268161176     -1.53752554374979      1.20742602164702
  H   1.50162316163148     -1.91124074270022     -0.37508685872483
