16
Coordinates from ORCA-job run
  C   0.68894656723294     -0.04799225592204     -0.09866677702378
  C   -0.65130983940785      0.05124166019267     -0.23890905678883
  N   1.47565754447997     -0.04492750256978     -1.28503878968612
  H   2.42787452941507     -0.33006052450675     -1.10240752860478
  H   1.06744788037786     -0.66088627718319     -1.98096626075775
  C   1.45884586123929     -0.04390258317164      1.18403097979595
  H   2.19425217866301      0.76876712078852      1.17853122403024
  H   2.01260216989234     -0.98116153191994      1.31640915834415
  H   0.82199281348418      0.09945540304518      2.05533555960137
  C   -1.67458424105844      0.00915425173103      0.85169164011880
  H   -2.24014068471941      0.94746565800779      0.90030624281691
  H   -1.23667287959689     -0.17346841612974      1.83166170499867
  H   -2.39487039736059     -0.79439950276978      0.66012319051053
  N   -1.17026802751442      0.09375762286792     -1.56472082270857
  H   -2.14431175876205      0.36293433737027     -1.57566028634282
  H   -0.63646171636502      0.74402254016947     -2.13272017830397
