16
Coordinates from ORCA-job run
  C   -0.62943592702190     -0.02985415286270     -0.08573478139838
  C   0.71140162219771     -0.02974890244351      0.10223614230779
  N   -1.37013248835514     -1.22218147312698      0.23384540889351
  H   -1.94853380665167     -1.06737132138848      1.05330462014047
  H   -1.99751969223006     -1.45462126150291     -0.52816425386258
  C   -1.40570673760435      1.18328910393812     -0.53055189827170
  H   -2.25072145597781      0.87702823228634     -1.15493703303498
  H   -1.82036478985589      1.73994575151923      0.31932846889696
  H   -0.81332262451624      1.88527644823292     -1.12462873188494
  C   1.47739536815334     -1.23673439041199      0.55158027860644
  H   0.81739978029493     -2.09748790804437      0.61483520755417
  H   1.93360854701017     -1.05159378100041      1.52876397827806
  H   2.29106174029203     -1.45525879735082     -0.15030569425065
  N   1.50634041961646      1.12623868723571      0.01081335834706
  H   1.07224855508210      1.89676299736749     -0.47409104229748
  H   2.42328148956631      0.93631076755235     -0.36829402802377
