16
Coordinates from ORCA-job run
  C   -0.65322997197759     -0.00381024603592     -0.24272726520051
  C   0.68920918149134     -0.03927508509807     -0.09262021307565
  N   -1.16880915928057     -0.11785023647334     -1.56486165901555
  H   -2.16550044063366     -0.28459200780482     -1.56478948017250
  H   -0.70189080459075     -0.86893554259726     -2.06296723689101
  C   -1.66874855066510      0.25722771979616      0.82438819547601
  H   -1.21620046244868      0.47844276228846      1.78956275023993
  H   -2.29119469648422      1.11652814170502      0.54976757944884
  H   -2.33939476704077     -0.60112386952140      0.95141468347234
  C   1.44936140711944      0.00010790964804      1.19531677250153
  H   2.10054291588961      0.88115637582800      1.24416213453503
  H   2.09281012014195     -0.88310855099917      1.27999119619256
  H   0.79760391512168      0.01261201664883      2.06730370293148
  N   1.47489897698847     -0.24253207331616     -1.26239816159512
  H   2.45351939639186     -0.05598252484290     -1.09305015425542
  H   1.14502293997700      0.35013521077453     -2.01749284459195
