16
Coordinates from ORCA-job run
  C   0.69180771436197     -0.02652485891304     -0.07152396153101
  C   -0.65093335427554      0.03479114022307     -0.24682946449240
  N   1.62180207978820      0.12113418918582     -1.13488952651661
  H   2.21550055871104     -0.68698534119096     -1.27087561069868
  H   1.19868797268675      0.39751055200107     -2.00798502575608
  C   1.37995198538460     -0.18540416793280      1.25224446317479
  H   0.69615357028107     -0.45105764178950      2.05659986072594
  H   1.91659034492831      0.72945578864131      1.52071861988745
  H   2.12937802901151     -0.98307531514182      1.18819922388779
  C   -1.65795458058001      0.13714172499622      0.86084220168936
  H   -2.23246340521243     -0.78996703812871      0.94798997741849
  H   -1.20676105707315      0.37300130755692      1.82313508262130
  H   -2.37754102475625      0.93336114855081      0.63712070875110
  N   -1.27389453913161     -0.05969530373916     -1.51993421304832
  H   -1.81062293914344      0.76055295081127     -1.77150541176862
  H   -0.63870135498099     -0.30523913513050     -2.26430692434449
