16
Coordinates from ORCA-job run
  C   -0.64581720571487      0.00189823427527     -0.07172410739890
  C   0.69989928079802     -0.00856005247015      0.05593380493728
  N   -1.40396100631026     -1.20439307804210     -0.10407063773508
  H   -1.00263406432922     -1.92321551783409      0.48214067230872
  H   -2.35466875850080     -1.04028808829533      0.19854903302611
  C   -1.47171358250812      1.23682667322076     -0.28033184454297
  H   -1.97041652624104      1.56571718659639      0.63915342027974
  H   -2.24995964134979      1.02974858250655     -1.02176474641903
  H   -0.88073669012462      2.07046085439516     -0.66210692685714
  C   1.48583848341523     -1.28391188408071      0.15484610637879
  H   1.64330306214813     -1.58211503166860      1.19770635504013
  H   0.99829330503418     -2.10196260693433     -0.37877969844422
  H   2.47840996844487     -1.15085577042840     -0.28595689152844
  N   1.49109769183579      1.15471278620201      0.25343526066395
  H   2.23399177301255      1.22783025770727     -0.43183999694544
  H   0.95007391038993      2.00710745485031      0.25481019723649
