16
Coordinates from ORCA-job run
  C   0.67501423948905     -0.02643321816452      0.03719902477155
  C   -0.66546046769512      0.01684324309854     -0.11306633565369
  N   1.49364583504643      1.13789930905298     -0.06044745586785
  H   2.37101950167652      0.99549734528009      0.42151647097621
  H   1.04574494266418      1.95283642850230      0.33531779988777
  C   1.43808421480931     -1.30860956013330      0.18910080872819
  H   1.73080062989300     -1.50319402614020      1.22842135284092
  H   2.35528873562510     -1.25926852797089     -0.40629791497860
  H   0.86520288211045     -2.16223107039738     -0.17571237116045
  C   -1.41036245301440      1.27513879981937     -0.44674599975377
  H   -0.75241329403410      2.02880992930931     -0.88151951073645
  H   -1.91164949332578      1.71112134195217      0.42635822059244
  H   -2.18157533603600      1.05533376004032     -1.19188152719942
  N   -1.47415718959917     -1.15847705624243     -0.08854992661246
  H   -1.14784037835048     -1.83131983333963      0.59128183967530
  H   -2.43234236925899     -0.92494686466672      0.13402552449033
