16
Coordinates from ORCA-job run
  C   0.68706024776472      0.05091086812691     -0.10198743409435
  C   -0.64903957134095     -0.10384002055814     -0.23193045342285
  N   1.47675957418538     -0.04709621825346     -1.28299299497131
  H   2.46189827513202     -0.11676585378406     -1.06846778979935
  H   1.19465189451849     -0.85348394242304     -1.83119871191545
  C   1.42996213746774      0.42987999442894      1.14009273379655
  H   0.76781052603946      0.63647343632038      1.97928440994931
  H   2.02352306364037      1.33381463622498      0.96130671480608
  H   2.12710740267253     -0.36088244032281      1.44229260141117
  C   -1.66292827724656     -0.10491893526633      0.86821088201686
  H   -1.21231462091532     -0.01216155371092      1.85494832509295
  H   -2.38314660801731      0.71269881891093      0.74388893510707
  H   -2.23141611863863     -1.04190518933713      0.85450484487967
  N   -1.15206052945402     -0.40779630398716     -1.52844890185607
  H   -0.72047055299203      0.19133821173463     -2.22487559646366
  H   -2.15639684281590     -0.30526550810373     -1.57362756453663
