16
Coordinates from ORCA-job run
  C   0.67489064178875     -0.01651924658632      0.05392047274220
  C   -0.67051951207811      0.01137704974604     -0.09561775827993
  N   1.50914849561064      1.10311789642654     -0.20234179592439
  H   0.99250382255039      1.93961782204721     -0.43105589603450
  H   2.14205815110426      1.29211064909097      0.56549805610204
  C   1.45921843439329     -1.26935830400471      0.32126175309358
  H   2.33448651567271     -1.03780986553478      0.93654268693721
  H   1.83389868103684     -1.71725027241943     -0.60508261636812
  H   0.87567439658731     -2.01673571491482      0.86241558994583
  C   -1.45965557209266      1.26984247766081     -0.31871843479554
  H   -2.45096568126058      1.17447500556066      0.13569210330546
  H   -0.98362215155765      2.14339206378251      0.13100315293377
  H   -1.61820910305462      1.46406623817544     -1.38466588321393
  N   -1.46166527049310     -1.15885062385712     -0.23669141949072
  H   -0.93103930007897     -2.01173666272448     -0.13676955470430
  H   -2.24720254812851     -1.16873851244852      0.40260954375136
