16
Coordinates from ORCA-job run
  C   -0.65582427755073     -0.06466418494200     -0.22565709273904
  C   0.69018279335268      0.02438498515286     -0.09100912904812
  N   -1.30877567490635     -0.10746817639997     -1.48598578232243
  H   -0.69387199723049      0.06327931092950     -2.26724856622353
  H   -1.84827027951973     -0.94989402514742     -1.63817502556630
  C   -1.63513633218453     -0.05881218699573      0.91112488338277
  H   -2.21894304507647      0.86662261296364      0.91269483860607
  H   -2.34941969630224     -0.88180148784644      0.79200695741584
  H   -1.15837329371840     -0.18454543135019      1.88177084047040
  C   1.40705878465510      0.32653063814702      1.19201817403368
  H   1.95221648851754     -0.55370235003819      1.54593402257075
  H   2.15232673131019      1.11316681009564      1.02625377384383
  H   0.73979354371875      0.67599312488398      1.97808484347887
  N   1.59528161146898     -0.22873886917249     -1.15560105820242
  H   1.15475450179895     -0.60435140335283     -1.98172745341464
  H   2.17700014166675      0.56400063307261     -1.39448422628572
