14

C	-0.517224	0.13335	-1.4342
C	0.0	0.0	0.0
Br	0.003604	1.813936	-2.297622
H	1.105679	0.0	0.0
H	-0.051021	-0.656046	-2.021794
C	-1.970737	0.009616	-1.498629
N	-3.139888	-0.092844	-1.556397
N	-0.426175	-1.321448	0.434457
H	0.328981	-1.769258	0.93951
H	-1.228974	-1.216576	1.04423
N	-0.566803	1.043618	0.85378
H	0.03805	1.106112	1.666192
H	-0.478152	1.938633	0.383037
Br	3.555386	0.0	0.0
