14

C	-0.592455	0.003596	-1.411885
C	0.0	0.0	0.0
Br	-0.081332	-1.570128	-2.470641
H	1.099869	0.0	0.0
H	-1.679875	-0.055696	-1.313598
C	-0.243243	1.201198	-2.163325
N	0.028799	2.166803	-2.773193
N	-0.539391	-1.157319	0.725506
H	-0.311005	-1.997637	0.202812
H	0.005839	-1.223844	1.580608
N	-0.464349	1.23078	0.619479
H	-1.201621	1.011048	1.277078
H	0.305427	1.680292	1.096688
Br	3.559885	0.0	0.0
