14

C	-0.540086	-0.092506	-1.43748
C	0.0	0.0	0.0
Br	0.072003	-1.697948	-2.382449
H	1.094209	0.0	0.0
H	-1.627295	-0.198871	-1.373579
C	-0.216994	1.080185	-2.238971
N	-0.037984	2.053963	-2.87104
N	-0.586728	-1.105715	0.757897
H	-0.323246	-0.928263	1.722255
H	-0.109512	-1.960107	0.484242
N	-0.425356	1.234024	0.628602
H	-1.386717	1.462721	0.405795
H	0.184612	1.990867	0.35104
Br	3.582166	0.0	0.0
