20

C	-0.345495	0.058464	-1.490852
C	0.0	0.0	0.0
F	-0.124445	-1.254544	-2.025397
H	1.099694	0.0	0.0
C	-1.794004	0.358862	-1.827066
H	-2.456246	-0.370309	-1.356663
H	-2.066231	1.362945	-1.50156
H	-1.932088	0.290569	-2.910297
N	0.523034	0.992792	-2.11731
H	1.48377	0.814406	-1.829364
H	0.45541	0.909654	-3.124376
C	-0.508183	-1.257478	0.688384
H	-0.115992	-2.151067	0.204398
H	-0.174279	-1.260504	1.729829
H	-1.604238	-1.308658	0.686151
C	-0.458553	1.26059	0.728026
H	-0.151411	2.154828	0.183199
H	-1.546965	1.281073	0.859845
H	0.001791	1.29584	1.719111
Br	3.689712	0.0	0.0
