20

C	-0.407711	-0.088756	-1.470098
C	0.0	0.0	0.0
F	-0.038053	1.150146	-2.076099
H	1.096712	0.0	0.0
C	0.364849	-1.146311	-2.230341
H	0.166164	-1.03826	-3.301675
H	0.065315	-2.146806	-1.916089
H	1.432571	-1.0081	-2.046835
N	-1.821691	-0.272026	-1.630381
H	-2.042465	-0.245274	-2.61999
H	-2.306393	0.50078	-1.187898
C	-0.453965	-1.228755	0.784607
H	-0.087275	-1.156127	1.812658
H	-1.54425	-1.315204	0.801177
H	-0.042982	-2.147887	0.362148
C	-0.490868	1.280764	0.667931
H	-1.581962	1.292133	0.789665
H	-0.188131	2.158766	0.097866
H	-0.049699	1.358566	1.664702
Br	3.746599	0.0	0.0
