20

C	-0.414475	-0.019367	-1.46982
C	0.0	0.0	0.0
F	-0.176984	1.250905	-2.016223
H	1.097643	0.0	0.0
C	0.434619	-0.975942	-2.294069
H	0.225197	-2.014139	-2.023201
H	1.495391	-0.775562	-2.11966
H	0.199983	-0.839025	-3.354507
N	-1.854271	-0.204463	-1.612812
H	-2.072723	-0.158711	-2.603901
H	-2.095108	-1.137501	-1.297557
C	-0.455343	-1.26089	0.734418
H	-1.542881	-1.279861	0.871387
H	-0.144248	-2.175129	0.221904
H	0.004862	-1.283487	1.725383
C	-0.508037	1.248496	0.709939
H	-0.185198	1.234928	1.755107
H	-0.099811	2.145907	0.245127
H	-1.600266	1.301076	0.673367
Br	3.774441	0.0	0.0
