20

C	-0.295892	-0.032261	-1.503722
C	0.0	0.0	0.0
F	-1.68009	-0.24356	-1.690161
H	1.098704	0.0	0.0
C	0.068744	1.264637	-2.197715
H	-0.04193	1.12276	-3.273866
H	-0.587067	2.073025	-1.872979
H	1.105527	1.523832	-1.966995
N	0.373274	-1.114362	-2.201928
H	1.375074	-0.965221	-2.083842
H	0.162384	-1.984065	-1.725146
C	-0.505267	-1.247859	0.717501
H	-0.199668	-1.215278	1.766504
H	-0.086287	-2.166337	0.300339
H	-1.596933	-1.31197	0.674002
C	-0.522626	1.253863	0.693598
H	-0.011024	2.152101	0.344072
H	-0.347493	1.184397	1.771028
H	-1.599508	1.373767	0.529498
Br	3.647373	0.0	0.0
