20

C	-0.374878	0.010306	-1.487171
C	0.0	0.0	0.0
F	-0.044203	-1.260026	-1.990978
H	1.099832	0.0	0.0
C	-1.851681	0.187926	-1.779681
H	-1.992452	0.138655	-2.861016
H	-2.422114	-0.615875	-1.313997
H	-2.228831	1.143006	-1.411072
N	0.398483	0.947947	-2.261457
H	0.0241	1.881388	-2.143797
H	1.362167	0.938955	-1.927955
C	-0.495774	-1.234343	0.741712
H	-0.085131	-1.243603	1.755305
H	-1.589816	-1.251164	0.821287
H	-0.167485	-2.143319	0.238604
C	-0.446433	1.276558	0.70834
H	-0.117253	2.171429	0.174117
H	0.004631	1.316711	1.702903
H	-1.534983	1.321256	0.82914
Br	3.716399	0.0	0.0
