18
Coordinates from ORCA-job run
  C   -0.45897280287787     -0.38732376603533     -0.52336611289730
  C   0.67097901797661      0.46548351709506      0.06276279688954
  F   0.08097602320086     -1.21978840423377     -1.50618893504247
  H   0.88525007035223      1.26398346791731     -0.65699632228216
  C   -1.52457304906407      0.45378723135746     -1.19944335918769
  H   -1.92714045400258      1.17378961645966     -0.48608324799901
  H   -2.32975309374736     -0.18943451917601     -1.56278072620907
  H   -1.09953863569593      0.99235981440488     -2.04988304471523
  N   -0.95379701587044     -1.27650071727997      0.51220023548774
  H   -1.56847109122550     -0.74761970536263      1.12000332491113
  H   -1.50481163871727     -2.00315276755191      0.06835259146157
  C   1.93431980971976     -0.35212312011151      0.30276164180417
  H   2.34242489499576     -0.74474012908345     -0.62938265135253
  H   1.70444870535476     -1.19506550863415      0.95787491123759
  H   2.69517083113891      0.27242887200400      0.77901196109672
  N   0.13091312715578      1.09766845011364      1.27352415882144
  H   0.65709913245604      1.93603660807394      1.48600163750622
  H   0.26447616885029      0.45921106004278      2.05063114046935
