18
Coordinates from ORCA-job run
  C   -0.42302057238277     -0.39213644198657     -0.60361933800947
  C   0.69768416378982      0.40202751602182      0.07844956239645
  F   0.13866925326681     -0.97229550713925     -1.75143302675178
  H   1.03947638089406      1.14126689007266     -0.66169105634433
  C   -1.54450985463279      0.49985178540899     -1.11068447272797
  H   -2.25681618467288     -0.10727341623103     -1.67534686910897
  H   -1.15843442089118      1.27585612922913     -1.77674600843198
  H   -2.07254949760563      0.96328285814088     -0.27524608461562
  N   -0.84272269534581     -1.45043323310804      0.26436270754203
  H   -0.93420169672697     -1.06561315984871      1.19796837684508
  H   -1.73649278079114     -1.82585527220197     -0.02845319623475
  C   1.87038098299979     -0.49211090387297      0.44831411063928
  H   1.58313792843154     -1.19547227101274      1.23059837116820
  H   2.20067893079879     -1.06205757272219     -0.41884909964071
  H   2.70759338469886      0.11554838797462      0.80509140905435
  N   0.14861862993936      1.02376409766260      1.28904974085388
  H   -0.31895255637414      1.89306866554058      1.06163961369217
  H   0.90246060460427      1.24958144807219      1.92659525967413
