18
Coordinates from ORCA-job run
  C   -0.68417103233585     -0.42198804418598     -0.19427031309370
  C   0.43575591326466      0.35384599457409      0.51586104267035
  F   -0.16470751339562     -1.73398018149364     -0.35040575291633
  H   0.05462392219918      1.37254505455841      0.65993614431209
  C   -1.00371783008754      0.07988068588749     -1.58582629693610
  H   -0.16379041155300     -0.08879295498746     -2.25805077077163
  H   -1.86256041335300     -0.47449026351324     -1.96941571794727
  H   -1.24127557815202      1.14671544633403     -1.57248304991146
  N   -1.86481920567048     -0.51753592161851      0.59490460523116
  H   -2.58263409338656      0.12611537632463      0.29921191687406
  H   -1.63918330054457     -0.39990276097401      1.57460004022130
  C   1.73623045671878      0.40854905188212     -0.28150009549616
  H   1.62464443833577      0.95698642451657     -1.21997250057298
  H   2.07928564042040     -0.60276518884978     -0.50917319060489
  H   2.51072896523811      0.91194347754601      0.30377185814570
  N   0.57776349391068     -0.23836500565713      1.84796243004785
  H   1.23904593005364      0.29689034070946      2.39725942415297
  H   0.94878061833742     -1.17665153105305      1.74559022659505
