18
Coordinates from ORCA-job run
  C   -0.69857485591410     -0.34157373173169     -0.16411550045372
  C   0.41046323597908      0.49886546173354      0.47495762126292
  F   -0.26663644780367     -1.70568140541791     -0.01243322196823
  H   0.06354682012820      1.53705078793299      0.44121634591083
  C   -0.87951582481991     -0.13363924494770     -1.65084666231541
  H   -0.00463994291413     -0.47662836854197     -2.20179465011795
  H   -1.06026201254302      0.92106858627070     -1.86471904451132
  H   -1.74250682654742     -0.70858318086607     -1.99514652037484
  N   -1.90719747718806     -0.11446495290749      0.53311147290376
  H   -1.73052912079333     -0.18320706302586      1.52854461550906
  H   -2.61871573557745     -0.77643561846039      0.25149954301738
  C   1.74261025402743      0.37894775722343     -0.26037193845430
  H   2.51772601672194      0.91758045445292      0.29091684166591
  H   1.70009483369891      0.80067767945039     -1.26720283637224
  H   2.03901958731254     -0.66992757405426     -0.33457219991834
  N   0.47534069407496      0.11171315720074      1.88729616071357
  H   0.89081075672975     -0.81105540718621      1.95021760411060
  H   1.07096604542831      0.75529266287484      2.39344236939232
