15

C	0.0	0.0	0.0
C	-0.651041	-0.01369	-1.371228
Cl	1.752605	0.0	0.0
H	-1.717047	-0.135435	-1.135199
H	-0.346735	0.883134	0.527066
N	-0.417346	-1.162517	0.869667
O	-0.599695	-0.914997	2.055174
O	-0.490859	-2.274806	0.352086
N	-0.104173	-1.045152	-2.251899
H	-0.113379	-1.925402	-1.748187
H	-0.763663	-1.146405	-3.01679
N	-0.457016	1.308921	-1.940574
H	0.28011	1.248275	-2.632681
H	-1.314789	1.617047	-2.377987
Cl	-3.768624	0.0	0.0
