15

C	0.0	0.0	0.0
C	-0.473277	0.54608	-1.414367
Cl	1.756366	0.0	0.0
H	0.453873	0.670214	-1.983486
H	-0.381193	0.592373	0.825599
N	-0.381713	-1.424759	0.304908
O	-0.746504	-1.663307	1.450532
O	-0.222448	-2.259533	-0.582627
N	-0.996893	1.871848	-1.127268
H	-1.895494	1.726742	-0.664019
H	-1.210556	2.295497	-2.024889
N	-1.346249	-0.243235	-2.250329
H	-2.229237	-0.371681	-1.75534
H	-0.934753	-1.154765	-2.407691
Cl	-3.542049	0.0	0.0
