15

C	0.0	0.0	0.0
C	-0.61323	-0.114642	-1.416709
Cl	1.750757	0.0	0.0
H	-1.546342	-0.662163	-1.2763
H	-0.36837	0.864306	0.544334
N	-0.367859	-1.20449	0.83293
O	-0.347804	-2.295381	0.265894
O	-0.581719	-1.018394	2.024442
N	0.16892	-0.803655	-2.416639
H	1.087478	-0.381065	-2.485452
H	0.281805	-1.768179	-2.131123
N	-0.843439	1.254452	-1.857877
H	-1.094646	1.180938	-2.838526
H	-1.690169	1.548902	-1.372008
Cl	-3.515283	0.0	0.0
