15

C	0.0	0.0	0.0
C	-0.536376	0.921391	-1.190015
Cl	1.764179	0.0	0.0
H	0.36421	1.17113	-1.762073
H	-0.370258	0.312476	0.972463
N	-0.385244	-1.453126	-0.105321
O	-0.135453	-2.02614	-1.16287
O	-0.88178	-1.966667	0.891603
N	-1.106689	2.141794	-0.64848
H	-0.525945	2.50261	0.099797
H	-2.019393	1.901627	-0.264232
N	-1.489867	0.342363	-2.085827
H	-2.363836	0.154677	-1.589417
H	-1.139257	-0.519696	-2.47677
Cl	-3.901339	0.0	0.0
