15

C	0.0	0.0	0.0
C	-0.542157	-0.036217	-1.502373
Cl	1.763994	0.0	0.0
H	0.358105	-0.208141	-2.104217
H	-0.363139	0.857097	0.561243
N	-0.378826	-1.192608	0.839276
O	-0.828958	-0.963064	1.957178
O	-0.162776	-2.30509	0.364815
N	-1.0991	1.257923	-1.85764
H	-0.530471	2.002249	-1.472278
H	-2.029182	1.316963	-1.445051
N	-1.502811	-1.043166	-1.83139
H	-2.375101	-0.867112	-1.328235
H	-1.157958	-1.957027	-1.578549
Cl	-3.912621	0.0	0.0
