15

C	0.0	0.0	0.0
C	-0.50907	-0.251684	-1.44246
Cl	1.752698	0.0	0.0
H	-0.109311	0.591355	-2.014203
H	-0.345673	0.997725	0.265344
N	-0.388289	-0.897545	1.115447
O	-0.70769	-0.336454	2.220064
O	-1.291013	-1.933809	0.673548
N	-1.913249	-0.375144	-1.655901
H	-2.370201	0.474647	-1.951121
H	-2.454282	-0.735259	-0.869255
N	-0.07836	-1.563528	-2.083109
H	0.030228	-1.326385	-3.077869
H	-0.761418	-2.405883	0.001666
Cl	-4.615286	0.0	0.0
