15

C	0.0	0.0	0.0
C	-0.498462	0.15512	-1.447717
Cl	1.767895	0.0	0.0
H	0.072047	-0.571957	-2.041044
H	-0.372289	0.786346	0.65167
N	-0.421313	-1.311705	0.595992
O	-0.36043	-2.299529	-0.131975
O	-0.758667	-1.300826	1.775135
N	-0.22035	1.546715	-1.806943
H	-0.845331	1.757494	-2.575679
H	0.734657	1.649691	-2.126278
N	-1.885868	-0.097499	-1.672334
H	-2.540127	0.358031	-1.033171
H	-2.101451	-1.083308	-1.62791
Cl	-4.598455	0.0	0.0
