15

C	0.0	0.0	0.0
C	-0.682956	-0.081822	-1.352846
Cl	1.757832	0.0	0.0
H	-1.725329	-0.295999	-1.084972
H	-0.346355	0.896479	0.504631
N	-0.392676	-1.143553	0.907849
O	-0.593815	-0.868441	2.083999
O	-0.42699	-2.27179	0.420787
N	-0.075857	-1.071335	-2.23947
H	-0.769837	-1.28143	-2.948742
H	0.054727	-1.926579	-1.710857
N	-0.629032	1.243523	-1.943632
H	-0.013579	1.213312	-2.747079
H	-1.560638	1.524759	-2.220848
Cl	-3.792998	0.0	0.0
