17

C	-0.464194	0.089158	-1.447481
C	0.0	0.0	0.0
Br	-0.012655	-1.734889	-2.292258
H	1.092618	0.0	0.0
H	-0.347027	-0.939525	0.441232
N	-1.863922	0.324546	-1.550121
H	-2.38028	-0.382188	-1.039683
H	-2.160974	0.300666	-2.518169
C	0.328316	1.098918	-2.253655
H	1.396032	0.902335	-2.143514
H	0.05295	1.060331	-3.3112
H	0.106677	2.099581	-1.870734
C	-0.47779	1.184782	0.84208
H	-0.130592	2.131621	0.423708
H	-1.565941	1.229409	0.924803
H	-0.048578	1.099816	1.843712
Br	3.721075	0.0	0.0
