17

C	-0.369045	-0.008656	-1.465193
C	0.0	0.0	0.0
Br	-2.472757	-0.587641	-1.533901
H	1.097027	0.0	0.0
H	-0.327615	-0.944964	0.438747
N	-0.224996	1.224215	-2.080437
H	-0.686643	1.982081	-1.601379
H	-0.450474	1.216078	-3.064397
C	0.324032	-1.11046	-2.230773
H	0.094778	-2.081401	-1.793551
H	1.400732	-0.926143	-2.148448
H	0.018415	-1.119333	-3.280281
C	-0.524331	1.179323	0.804217
H	-1.610558	1.278121	0.716576
H	-0.276198	1.041222	1.858741
H	-0.044669	2.110638	0.492334
Br	3.682207	0.0	0.0
