17

C	-0.377155	-0.021751	-1.462883
C	0.0	0.0	0.0
Br	-2.564643	0.002363	-1.524465
H	1.096615	0.0	0.0
H	-0.337521	0.947522	0.434504
N	0.093516	1.094319	-2.126754
H	-0.020057	1.962689	-1.626129
H	-0.18588	1.164511	-3.093354
C	-0.02343	-1.296354	-2.191456
H	-0.547441	-2.153656	-1.773937
H	-0.276611	-1.221294	-3.251746
H	1.058449	-1.429115	-2.081536
C	-0.483048	-1.170344	0.843012
H	-0.141288	-1.029771	1.871272
H	-0.049458	-2.109644	0.493754
H	-1.571276	-1.258359	0.842058
Br	3.668904	0.0	0.0
