17

C	-0.449871	-0.017411	-1.458489
C	0.0	0.0	0.0
Br	-0.040084	1.746777	-2.284183
H	1.09544	0.0	0.0
H	-0.297584	-0.985021	0.393117
N	0.283647	-0.996024	-2.241256
H	1.276621	-0.87571	-2.03989
H	0.026783	-1.913652	-1.883526
C	-1.941555	-0.24009	-1.636953
H	-2.520556	0.557356	-1.170199
H	-2.184046	-0.283494	-2.699563
H	-2.220581	-1.191935	-1.167842
C	-0.546869	1.093731	0.904928
H	-1.639807	1.078976	0.970739
H	-0.234218	2.077444	0.553452
H	-0.146163	0.961276	1.91316
Br	3.696933	0.0	0.0
