17

C	-0.395887	-0.061253	-1.480889
C	0.0	0.0	0.0
Br	-0.217534	1.796991	-2.195696
H	1.095254	0.0	0.0
H	-0.371962	0.910525	0.475286
N	0.491933	-0.880396	-2.278971
H	0.31931	-1.8532	-2.043349
H	1.45431	-0.674307	-2.008445
C	-1.83461	-0.474953	-1.737707
H	-2.054202	-0.404713	-2.803624
H	-2.52828	0.159286	-1.182286
H	-1.980782	-1.51244	-1.418445
C	-0.452159	-1.232097	0.784696
H	0.01786	-1.216795	1.770929
H	-0.125769	-2.154935	0.296352
H	-1.536628	-1.276985	0.923228
Br	3.674459	0.0	0.0
