17
Coordinates from ORCA-job run
  C   -0.47778016671101      0.55811337873962      0.43450004127438
  C   0.96945174384039      0.08926153222302      0.19874137076496
  Br  -0.45646842799349      2.27738071226812      1.34834642183076
  H   1.48132801348598      0.13483305345841      1.16415112907769
  C   -1.32764376548909      0.65522165933685     -0.80949392181715
  H   -0.86885355470239      1.36540661931274     -1.49890149422219
  H   -1.41204118689492     -0.31952175371582     -1.29180345337162
  H   -2.32956644575393      0.99895594237022     -0.55957115076664
  N   -1.08369865784671     -0.43452202027337      1.42760813865387
  O   -2.18081977171264     -0.90880672076320      1.15294261439794
  O   -0.41227440776748     -0.69595688281049      2.41881973919985
  C   1.63265173318164      1.01228134681299     -0.72141838363668
  N   2.16782283696078      1.71603365532225     -1.49445832769422
  C   1.04759823036611     -1.34447092125578     -0.34424799999766
  H   2.09578445615069     -1.63319544213545     -0.43728999090764
  H   0.56742485024310     -2.04453643537355      0.34112927364089
  H   0.58708452064296     -1.42747772351656     -1.32905400642652
