17
Coordinates from ORCA-job run
  C   -0.61617903756106      0.06957586891337      0.38375692075249
  C   0.60542938147670     -0.48576999911973     -0.37219857964201
  Br  -0.41186311086994     -0.16310993089069      2.29031431479700
  H   0.36242359181742     -0.37273519353936     -1.43459817385407
  C   -0.90880812573448      1.52576029864833      0.06590194607214
  H   -0.96851077176781      1.66090626188070     -1.01577521933673
  H   -1.85990903033170      1.81693104860969      0.51530112836219
  H   -0.12968675561910      2.16641326652956      0.47658341443803
  N   -1.82920255878360     -0.74066882291101     -0.10936355442211
  O   -1.99112737446243     -0.67445082363800     -1.32601714013479
  O   -2.53036038523658     -1.34867913240561      0.68226162630177
  C   0.74880917564148     -1.92071369194996     -0.11576322216033
  N   0.88623272962656     -3.07129005429204      0.07649615929606
  C   1.91319641272838      0.25143927123412     -0.07592147340623
  H   1.83509411577443      1.30286460447501     -0.35475155809846
  H   2.71684173059416     -0.19454816302131     -0.66425853342355
  H   2.17562001270757      0.17707519147693      0.97903194445859
