17
Coordinates from ORCA-job run
  C   -0.47571541507517      0.59724931583391      0.37920225957411
  C   0.97493383761484      0.14041601697363      0.14000030859267
  Br  -0.47301733682757      2.42126298129126      1.06041821649030
  H   1.52546252012538      0.32737681162528      1.06630986953574
  C   -1.38094610834743      0.50667419035157     -0.82549265865320
  H   -2.38286606512075      0.84948343909886     -0.57431817548791
  H   -1.45065240920374     -0.52441682258984     -1.17460154850988
  H   -0.97810713873347      1.13505457294960     -1.62105077418275
  N   -1.00503330416694     -0.27326796020118      1.52011227540934
  O   -2.09364929593427     -0.81460839313144      1.35859373687649
  O   -0.28533089145686     -0.38086438756143      2.50608174389512
  C   1.56586194318929      0.95176412123843     -0.92358852608888
  N   2.02311846219395      1.57513953167158     -1.80765984866813
  C   1.07731568695950     -1.35003690652493     -0.21297287113941
  H   0.64853366031678     -1.96617743266427      0.57877156951163
  H   0.58028447413329     -1.57511141510730     -1.15697005182425
  H   2.12980738033320     -1.61993766325373     -0.31383552533096
