16

C	0.0	0.0	0.0
C	-0.194485	-0.235245	-1.509194
F	1.389317	0.0	0.0
H	0.480136	0.447434	-2.021066
H	-0.356311	-0.857068	0.568964
C	-0.543929	1.305182	0.498552
H	-0.224361	1.444204	1.5342
H	-1.635989	1.259899	0.460167
H	-0.176757	2.136326	-0.106119
N	-1.514613	-0.030547	-2.200757
O	-1.806438	1.145509	-2.359473
O	-2.097593	-1.013455	-2.63009
N	0.289462	-1.606918	-1.877638
O	0.059447	-2.532531	-1.109625
O	0.877277	-1.690535	-2.954565
Cl	-3.709461	0.0	0.0
