16

C	0.0	0.0	0.0
C	-0.573192	0.05522	-1.397631
F	1.374065	0.0	0.0
H	-1.666723	0.172426	-1.321641
H	-0.347677	-0.939201	0.433951
C	-0.453808	1.179068	0.83823
H	-1.542035	1.228511	0.848732
H	-0.038482	2.106093	0.438748
H	-0.081927	1.039422	1.855384
N	-0.307884	-1.179607	-2.205534
O	-0.719861	-1.151033	-3.361022
O	0.257292	-2.125849	-1.664807
N	0.016135	1.193404	-2.164168
O	1.063343	0.987696	-2.772388
O	-0.566714	2.269622	-2.073692
Cl	-3.59891	0.0	0.0
