17
Coordinates from ORCA-job run
  C   0.98524969394110      0.13586186438561      0.33114717518567
  C   -0.55075009463797      0.04724079642535      0.34195952825927
  Cl  1.48880997723744      1.57940009751942      1.37689513563567
  H   -0.82511508825800     -0.08504104253992      1.39749111924408
  N   1.57527219696369     -1.07258939726951      0.78847439876739
  H   2.58642107995658     -1.01573914278124      0.79481921969424
  H   1.24838952018677     -1.29117296442588      1.72265923643418
  C   1.47994249222697      0.43655571978219     -1.01690442521886
  N   1.84714385789084      0.66065886094351     -2.10988459696872
  C   -1.01031776178395     -1.17204497938970     -0.45875032446609
  H   -0.58064874616598     -2.09768955417349     -0.07902026998332
  H   -2.09967851357290     -1.24546716709754     -0.41372012089657
  H   -0.72529871864973     -1.07146557335463     -1.50984820299475
  C   -1.21843955596560      1.31301460363700     -0.18616068734091
  H   -0.94826482497118      1.48408275092849     -1.23195033877324
  H   -2.30342783551072      1.19536633072740     -0.13837429089150
  H   -0.94828767888738      2.19702879668296      0.39016744431347
