17
Coordinates from ORCA-job run
  C   0.94139350620178      0.09578004071698      0.33590155095664
  C   -0.43268217613512     -0.12827702957543     -0.31999863023122
  Cl  0.77172987146110      0.96311632415276      1.90243581809610
  H   -0.20254187553848     -0.68138814495995     -1.24324066597395
  N   1.57430474589739     -1.17272043982294      0.61868884485599
  H   1.69695908662852     -1.68496104854450     -0.24917254286708
  H   2.48641345370201     -1.02582417687073      1.03680045647719
  C   1.77118078387760      0.96134621283474     -0.52629374321066
  N   2.45965949650636      1.57706671068251     -1.25402489195933
  C   -1.11132440051848      1.18037954263986     -0.71077087707206
  H   -2.04702994910633      0.96367432492842     -1.23112423066608
  H   -1.34932304671816      1.77248965191807      0.17533249729153
  H   -0.49101043117173      1.78590145450998     -1.37495701375349
  C   -1.33958825550814     -0.99356362772506      0.54977892688966
  H   -1.66016594132776     -0.44414438474804      1.43701078621910
  H   -0.83671973155351     -1.90405506073485      0.87337986410806
  H   -2.23225513669705     -1.26582034940181     -0.01874614916038
