17
Coordinates from ORCA-job run
  C   0.96516864274993      0.30031309243247      0.49518120484408
  C   -0.55414564102013      0.10252185758875      0.29396658530347
  Cl  1.21373570254838      1.79393191445703      1.48320785141535
  H   -0.97069047504966      0.05949863026076      1.30933274368370
  N   1.66255880399296     -0.76364685635446      1.17669889002655
  H   1.16440342050429     -1.01733413245306      2.02268266749951
  H   1.75180821739773     -1.57515042882936      0.57759082336327
  C   1.61276744314401      0.50981791024350     -0.80672435420019
  N   2.08305568220506      0.63092932399839     -1.87626070693092
  C   -0.82651743332999     -1.22406105271584     -0.41504166352623
  H   -0.46614956239270     -2.08277777686746      0.15374212284916
  H   -0.36430832825681     -1.24163473312761     -1.40677256586762
  H   -1.90263918555663     -1.35190923571375     -0.55149621497598
  C   -1.21054874397934      1.25219567970945     -0.46531294477775
  H   -1.05119113509472      2.21217818702042      0.02476937226861
  H   -2.28769154703229      1.08101314025307     -0.53051846737090
  H   -0.82061586083008      1.31511448009768     -1.48504534360413
