17
Coordinates from ORCA-job run
  C   0.98804721907830      0.09782297730435      0.21943103667326
  C   -0.41040576172625     -0.10848105005632     -0.39063516905509
  Cl  0.82534978935852      1.06984518976769      1.78997851981724
  H   -0.19620689836607     -0.58606052087121     -1.35507827077720
  N   1.66098261234285     -1.13732890658892      0.41673191611104
  H   2.61040461832214     -0.99408417948639      0.73900810434493
  H   1.16950180432466     -1.71139122506713      1.08941230534160
  C   1.80274500290256      0.94040566559048     -0.66401789473017
  N   2.44550513280945      1.59730228399178     -1.39528719662056
  C   -1.13914553833692      1.20620415621669     -0.64865518499036
  H   -2.03263624242623      1.01127357264637     -1.24650541330848
  H   -1.45165339519955      1.67506660500745      0.28570715739144
  H   -0.51839093245430      1.91623859137104     -1.19969623357803
  C   -1.26327553625712     -1.06400628787056      0.43949042523242
  H   -2.25668359897958     -1.14111365490125     -0.00778237694399
  H   -1.38527193775719     -0.69809144122161      1.46147617254048
  H   -0.84786633763526     -2.07360177583243      0.46642210255149
