17
Coordinates from ORCA-job run
  C   1.01352849015263      0.20980950428146      0.48070432487368
  C   -0.50546007154590      0.38053101265756      0.23345187345821
  Cl  1.31505932229912      0.36812226247959      2.25643301959585
  H   -0.78940467653764      1.32210540935046      0.71686850980662
  N   1.61630902136838     -1.02859146845770      0.05283257578867
  H   1.62814370237239     -1.09095208621075     -0.95814127847924
  H   1.11884381361314     -1.81935777788140      0.44283392080025
  C   1.73855099723534      1.31281035742923     -0.16669443678194
  N   2.27763011242847      2.19588731730211     -0.72260576847708
  C   -1.31683759131792     -0.75396302352961      0.85295839388346
  H   -1.09093089859552     -0.89677337722790      1.91011724368984
  H   -1.14793951209131     -1.69662040601860      0.32478908566699
  H   -2.38149648408937     -0.52595908071503      0.76675213639414
  C   -0.80048259351322      0.48934292776062     -1.26227699488586
  H   -1.87317701897767      0.62953513323897     -1.41372587682537
  H   -0.51674133984307     -0.42617857180650     -1.78946427136548
  H   -0.28559527295784      1.33225186734749     -1.72683245714273
