17
Coordinates from ORCA-job run
  C   0.99713323577289      0.24431834532413      0.46147188063295
  C   -0.53596603043431      0.10680987731319      0.32434116466913
  Cl  1.34324514594760      1.67966424944546      1.50449322835897
  H   -0.90682539428966      0.03153012054875      1.35543701189305
  N   1.68815381707516     -0.87315983183733      1.05833891822275
  H   1.22382198575320     -1.14876508687631      1.91653160793765
  H   1.71777491462291     -1.65859511990944      0.41975045681781
  C   1.59039838644563      0.49520080249578     -0.85888737265515
  N   2.01340410394483      0.65368858488531     -1.94321499429611
  C   -0.88816488259441     -1.17574398648262     -0.42904274745719
  H   -0.47410772100931     -1.16285205140240     -1.44191188766876
  H   -1.97337702247935     -1.26143652075753     -0.51813599692317
  H   -0.53193237266163     -2.07119240600349      0.08292744221797
  C   -1.18477526091679      1.31213506734132     -0.35072053376220
  H   -0.83656255879848      1.41208921301807     -1.38238892271059
  H   -2.26879254361486      1.17875609588915     -0.37659874452358
  H   -0.97242780276342      2.24155264700794      0.17660948924648
