17
Coordinates from ORCA-job run
  C   0.95608684784864      0.23105104057526      0.57864129774713
  C   -0.55201286912343      0.30587570648666      0.23638459518153
  Cl  1.12293203861334      0.18807809092134      2.37861785687260
  H   -0.95132196485971      1.15588323464159      0.80117841524732
  N   1.69690560351974     -0.88922083261165      0.05301120087719
  H   1.24996003799433     -1.76126901442196      0.30713832334007
  H   1.77985284899219     -0.82295503802702     -0.95435590592588
  C   1.61860065961137      1.46331605950309      0.12704301141418
  N   2.11241727397595      2.45039082171793     -0.27439671593207
  C   -1.29860123436290     -0.95709810700104      0.65654984148448
  H   -1.13644795743468     -1.20565377569003      1.70578482400368
  H   -2.37073577516745     -0.80865923122253      0.51017413613767
  H   -1.00748922678740     -1.81320172115016      0.04139451900832
  C   -0.75420285195516      0.57037243863856     -1.25540602625489
  H   -1.82222714662344      0.65123065346688     -1.47024694664081
  H   -0.36459757902598     -0.25399503217182     -1.85975576007038
  H   -0.27811870521542      1.49685470634490     -1.58175666649013
