17
Coordinates from ORCA-job run
  C   1.01384464196534      0.16944089625588      0.31862025522612
  C   -0.36479217409005     -0.08860570466836     -0.33455440186430
  Cl  0.78922041961853      1.03122003780176      1.88487871837266
  H   -0.11209058152662     -0.57372888469844     -1.28897165003976
  N   1.82334452545011     -0.99708782961374      0.59762753268541
  H   1.34842880708327     -1.59946646198099      1.25854558823369
  H   1.99384731285421     -1.50944714371422     -0.26143402970496
  C   1.79945212815214      1.05045427999341     -0.55966514319996
  N   2.40135961264942      1.71919553507241     -1.31465279222618
  C   -1.12634727798868      1.19750470342539     -0.64214947825806
  H   -1.44744837771254      1.68936989153395      0.27778588122654
  H   -0.52298206843216      1.90270415390457     -1.21730195760614
  H   -2.01747268545106      0.96414206541094     -1.22964978997174
  C   -1.21987161683168     -1.05512421391377      0.47897613456737
  H   -2.16023867216838     -1.23618752229568     -0.04632037555045
  H   -0.73702579303624     -2.02443626087775      0.61860938153086
  H   -1.45922820053559     -0.63894754163537      1.45965612657891
