12
Coordinates from ORCA-job run
  C   -0.40426873366429      0.07215475139072     -0.14361785717799
  C   0.90462019913656     -0.17806635544578      0.18392475013398
  N   -1.24234678499649     -0.76645309533535     -0.77624255125288
  H   -2.22486718108602     -0.54242049901062     -0.73099533366850
  H   -0.97790164210912     -1.73526947565196     -0.87269945360064
  N   -1.02202434431985      1.38605616120496      0.15283717562542
  O   -0.27321017707451      2.32492539905138      0.39621067581093
  O   -2.25168208695825      1.41889492442233      0.12864066179723
  C   1.37908092169499     -1.48905920472027     -0.11757956109408
  N   1.68403434572989     -2.59251677990677     -0.39529611082785
  C   1.80365333050184      0.72216746001901      0.82050343970766
  N   2.62291215314525      1.37858671398235      1.35431416454674
