12
Coordinates from ORCA-job run
  C   -0.42746228176060      0.06074313497222     -0.04289669108338
  C   0.89582018992362     -0.23418070997580      0.17018874286109
  N   -1.35703933678365     -0.76395084943720     -0.55401222088100
  H   -1.05601170589158     -1.61931282198025     -0.99632873272635
  H   -2.21177666364797     -0.33556233411752     -0.87517595408488
  N   -0.98062082061448      1.38113165867287      0.34053016327719
  O   -2.06077945793405      1.67875376317876     -0.16806808917290
  O   -0.33136356139219      2.06433880375817      1.12352557301590
  C   1.32072219091397     -1.52302654418358     -0.26948960351980
  N   1.58268996920341     -2.60080776955296     -0.66650616506697
  C   1.87144539503750      0.62720635639417      0.74484907660752
  N   2.75537608294602      1.26366731227112      1.19238390077359
