12
Coordinates from ORCA-job run
  C   -0.41017286116106      0.06162105303829     -0.13166531600318
  C   0.90890900989701     -0.14814929196003      0.18626336346166
  N   -1.21264717971721     -0.79181570245616     -0.78915950410837
  H   -0.91112263743914     -1.74698950738387     -0.90997209923016
  H   -2.20203629404475     -0.59890873002355     -0.76331580220773
  N   -1.07756903896851      1.34439375456368      0.19491800357461
  O   -0.37268224016055      2.27504338031472      0.56604443411230
  O   -2.30147455862403      1.36051377251847      0.06950013519372
  C   1.42806416658630     -1.43203219184852     -0.15635958534594
  N   1.76888398714986     -2.51183088126024     -0.48172765381250
  C   1.78420222100640      0.76194689509304      0.84140599294974
  N   2.59864542547566      1.42520744940418      1.37406803141583
