12
Coordinates from ORCA-job run
  C   -0.42937417796337      0.05395930038450     -0.04217429705544
  C   0.89963236483472     -0.21966859090958      0.16299195425281
  N   -1.33842257568517     -0.77131239426713     -0.58852917082548
  H   -1.01559879278340     -1.59979325324624     -1.06542683114142
  H   -2.20209408817868     -0.35118239036381     -0.89695982211403
  N   -1.01327795391114      1.34466226021752      0.39184561732383
  O   -2.09766552715193      1.63888217766642     -0.10963948869103
  O   -0.38240812574481      2.00984898990857      1.20487839521366
  C   1.35546092381241     -1.47994723403170     -0.32560422426925
  N   1.64467804689105     -2.53550088415323     -0.76144595904500
  C   1.85424352918557      0.63828069904273      0.77662657343133
  N   2.72482637669476      1.27277131975196      1.25243725292002
