12
Coordinates from ORCA-job run
  C   -0.43073534558284      0.03790958542066     -0.02941823088398
  C   0.91446876620546     -0.17827112900560      0.13525148445149
  N   -1.33369158512953     -0.85465955107967     -0.47108288330935
  H   -2.22536004851978     -0.48440958346143     -0.76390834490598
  H   -0.99963902276403     -1.69645918675776     -0.91661810312367
  N   -1.04037109383397      1.33864493506225      0.33606204066567
  O   -2.16114235378371      1.55426375690695     -0.12357788484329
  O   -0.39242360259286      2.08919423269710      1.05611512974330
  C   1.38847625970012     -1.46080441235657     -0.27054532310251
  N   1.68550455324790     -2.54244322270636     -0.63061708050064
  C   1.86427410667585      0.75193143264533      0.64175668043131
  N   2.73063936637737      1.44510314263510      1.03658251537766
