12
Coordinates from ORCA-job run
  C   -0.40936357971132      0.05328624054378     -0.12730224823780
  C   0.91915689002832     -0.14190526129296      0.15865109678250
  N   -1.25200989595137     -0.85269572762411     -0.65086003809551
  H   -2.23592550697506     -0.64057657132326     -0.58909745204853
  H   -0.97158561075257     -1.82159032368770     -0.67551938651552
  N   -1.04809171003681      1.37387996511174      0.08984907176533
  O   -0.31506546298541      2.33644106856841      0.28270115003704
  O   -2.27818678964761      1.38746487347249      0.05815775751818
  C   1.40289784487474     -1.46624208801752     -0.05854642571122
  N   1.69575193145931     -2.58951835038177     -0.25867349966108
  C   1.82841576638856      0.82401731894581      0.67186835836392
  N   2.66300612330922      1.53643885568507      1.09977161580268
