12
Coordinates from ORCA-job run
  C   -0.41038204168184      0.07425424077674     -0.12270427845057
  C   0.91391498291620     -0.17179394420774      0.13974386641254
  N   -1.25183195227505     -0.72691157341741     -0.79790166590160
  H   -2.23667303429515     -0.53108747762770     -0.70163789095654
  H   -0.97138995459660     -1.67847744410352     -0.98198043865635
  N   -1.04411660480227      1.34399387061000      0.30344701011150
  O   -0.30650535823980      2.27620606367002      0.60087081596047
  O   -2.27440728172827      1.35112404839976      0.31959723024923
  C   1.40517880167179     -1.43973645884476     -0.29132799597407
  N   1.72185192282923     -2.50593437764929     -0.67948017173722
  C   1.81502554594330      0.69120591754104      0.82303941414173
  N   2.63833497425847      1.31615713485285      1.38733410480089
