12
Coordinates from ORCA-job run
  C   -0.41639405337411      0.06224371437675     -0.10915123476091
  C   0.85912484548331     -0.24160229725329      0.29580062533399
  N   -1.22460315127544     -0.71503651943870     -0.84971366382852
  H   -0.83008433404534     -1.51730991921970     -1.31731355747340
  H   -2.02379619711425     -0.26501480944671     -1.26963162503326
  N   -1.05909056047770      1.33269436113104      0.30097007308528
  O   -2.04383116405292      1.67210376783756     -0.35405843638743
  O   -0.56996178553400      1.93823803143782      1.24741126657501
  C   1.38479955270219     -1.47631533907679     -0.18793147670426
  N   1.73778695865005     -2.50778838878381     -0.63433175686602
  C   1.70132603404787      0.56338297035616      1.11231765860748
  N   2.48372385499035      1.15440442807968      1.76463212745205
