12
Coordinates from ORCA-job run
  C   -0.42546571602158      0.06173384264819     -0.02666280964843
  C   0.91619469835107     -0.20049863596524      0.11780705936099
  N   -1.33744705480511     -0.77317048433757     -0.54811720911403
  H   -2.25166551686818     -0.40363039823374     -0.75724750443373
  H   -1.03171509233884     -1.60846843389372     -1.02301595570745
  N   -1.01613110860628      1.32810337135276      0.46744535940558
  O   -2.17561040198207      1.54871509306167      0.12643174782569
  O   -0.31786725483042      2.03825865235954      1.18102408445253
  C   1.89672515646646      0.65169781920298      0.69321701518231
  N   2.78763491438219      1.28386993224902      1.13271180707396
  C   1.35354931330548     -1.44327777820393     -0.43352430154547
  N   1.60179806294729     -2.48233298023996     -0.93106929285194
