12
Coordinates from ORCA-job run
  C   -0.41928598784876      0.06106722038424     -0.10095976306906
  C   0.91835479667768     -0.14675806536637      0.12955618100130
  N   -1.25526319792254     -0.78201563821775     -0.72916840789052
  H   -0.95103341118836     -1.72723388288519     -0.90549293694436
  H   -2.24297661009696     -0.60293824714488     -0.63309077396883
  N   -1.07505111722809      1.32763879322883      0.30243820950820
  O   -0.35867394796881      2.24286690700425      0.69126407111724
  O   -2.30255515907296      1.34825823055789      0.22087120882376
  C   1.83423981723211      0.76385219703790      0.72575396197515
  N   2.68082747381258      1.42717539180371      1.20635239079193
  C   1.42208207259429     -1.41876743973117     -0.27503918676097
  N   1.74933527100982     -2.49314546667145     -0.63148495458383
