12
Coordinates from ORCA-job run
  C   -0.43256141656518      0.03156959715556     -0.01798643935101
  C   0.91623230026290     -0.17365890370124      0.14717486803530
  N   -1.29378632990658     -0.81008018076953     -0.60511716163464
  H   -2.22512202761465     -0.47882485595510     -0.80469436435356
  H   -0.94298729151148     -1.61801860133372     -1.09777471346763
  N   -1.08224829123290      1.26588204347863      0.48028670064183
  O   -0.41142408103776      2.02516172346711      1.17016617997872
  O   -2.24676199386865      1.44494650408018      0.12494044144966
  C   1.84626611590152      0.70734294420811      0.76518055268531
  N   2.71009484072142      1.36396726572341      1.22277039527838
  C   1.42478077137342     -1.37315800510289     -0.43533339385082
  N   1.73951740347794     -2.38512953125051     -0.94961306541153
