12
Coordinates from ORCA-job run
  C   -0.42249262880614      0.09650666745408     -0.03016357744047
  C   0.90564718736510     -0.17021387543982      0.18949391629242
  N   -1.46308221587898     -0.43676708530088      0.63256960711595
  H   -1.30134522053187     -1.24076691793631      1.22048593591402
  H   -2.37039517775003     -0.33699371106902      0.20310115625140
  N   -0.83798367665430      1.09035063182782     -1.04723466994998
  O   -2.01370103375778      1.03242005784821     -1.40558945666209
  O   0.00692105674876      1.88297664339581     -1.44668548523712
  C   1.18222995526478     -1.16849377927270      1.17009285577620
  N   1.31489639141240     -2.00399052532317      1.98988489704820
  C   2.00934947595378      0.42126980593089     -0.48583979945048
  N   2.98995588663429      0.83370208788508     -0.99111537965806
