12
Coordinates from ORCA-job run
  C   -0.41058338171492      0.05553505110746     -0.13217632895871
  C   0.91091542136097     -0.15423943935604      0.17387742008785
  N   -1.26560181765577     -0.85299795216676     -0.63124353743624
  H   -2.24667457004377     -0.62335956234793     -0.58665531134270
  H   -1.00040611476829     -1.82629660625638     -0.61995743526286
  N   -1.02443978050278      1.39547164808655      0.02753496576339
  O   -0.27357944086750      2.35005782286763      0.18856017480658
  O   -2.25372665435479      1.43121963117942     -0.01188164379625
  C   1.37847180452286     -1.49194831103073      0.00916839497298
  N   1.67538329277916     -2.62090031211743     -0.14982706836814
  C   1.83405510602939      0.81275059312101      0.66011801672265
  N   2.67618613521544      1.52470743691320      1.07348235281144
