12
Coordinates from ORCA-job run
  C   -0.41833344302254      0.09850389044721     -0.02551491686700
  C   0.91329762014095     -0.19514064435650      0.15156267249743
  N   -1.44394439738350     -0.55390237733436      0.52371393989307
  H   -2.37486375569577     -0.31602454154378      0.22505822229855
  H   -1.28969036532585     -1.39556107151687      1.05322851816257
  N   -0.85015181846841      1.23350479109618     -0.87330326072898
  O   0.01986229098263      1.96699888969431     -1.32775689153985
  O   -2.06229988619089      1.34419074714565     -1.05395055409907
  C   2.02456769986626      0.48734203862739     -0.41911252737898
  N   3.01069130850276      0.97772664250968     -0.83653796762075
  C   1.18163409267943     -1.34031263965390      0.95876627686694
  N   1.28823065391492     -2.30632572511499      1.62384648851605
