12
Coordinates from ORCA-job run
  C   -0.42460688083979      0.09052828509343     -0.02375126512330
  C   0.90644667938205     -0.17765595824211      0.17488628024404
  N   -1.46055778909059     -0.54448016386522      0.55083213660670
  H   -2.36552363317732     -0.40650045379225      0.12706711983487
  H   -1.28823810533887     -1.41411929918329      1.03239961928652
  N   -0.85057709253284      1.20166351621797     -0.90617761340268
  O   -2.02177067930822      1.17024540559650     -1.28214754421935
  O   -0.01787438189298      2.05536538915252     -1.18822262786069
  C   2.00453227274534      0.52034407532626     -0.40011468615795
  N   2.98149364353744      1.01582438900673     -0.83236649562899
  C   1.19487822366602     -1.28996302368578      1.02014726177738
  N   1.34079774284975     -2.22225216162475      1.72544781464345
