12
Coordinates from ORCA-job run
  C   -0.43189578293815      0.05321977968029     -0.01868219621652
  C   0.90986876213926     -0.19647856112588      0.12604261316101
  N   -1.33620558617556     -0.79036510985438     -0.53550126308321
  H   -1.03268215411963     -1.64554026474857     -0.97885603328182
  H   -2.23564227077123     -0.41006442183446     -0.78354351173214
  N   -1.01977686659864      1.33631531263800      0.43316333107855
  O   -2.16718410618128      1.56380265585482      0.05501497150930
  O   -0.33091207707324      2.05362720591728      1.14836377058016
  C   1.88176036306496      0.67036183556115      0.69666613815211
  N   2.77834767039460      1.29536777764989      1.13647775468154
  C   1.35920748247147     -1.44452768876564     -0.39969705092191
  N   1.62511456578743     -2.48671852097249     -0.88044852392706
