12
Coordinates from ORCA-job run
  C   -0.42251876187225      0.08542690702120     -0.01776109431381
  C   0.87131548446295     -0.36346196994213      0.00835180821835
  N   -1.44156392497861     -0.32085141980577      0.76124383639728
  H   -1.24000231599699     -0.90134284454706      1.56117340011938
  H   -2.22129812441327      0.31693505492889      0.82185015850822
  N   -0.83942181374060      1.10042807160871     -1.00914221273192
  O   -0.21083666047202      1.16006724988202     -2.05997108199892
  O   -1.80328000780690      1.79754855228903     -0.69161569358828
  C   1.18354283978262     -1.28955279522581      1.04868590507301
  N   1.35291770773800     -2.07885782303812      1.90598414058523
  C   1.91976204646974      0.07966466647056     -0.84412363946656
  N   2.85138353082733      0.41299635035848     -1.48267552680198
