12
Coordinates from ORCA-job run
  C   -0.42329338933967      0.09769845685473     -0.01250609006116
  C   0.90915367679710     -0.18404537158121      0.15568288419828
  N   -1.44974306012762     -0.49417827836969      0.62153733238118
  H   -2.36603142353788     -0.35825988936767      0.22208003811353
  H   -1.27621415081326     -1.34514104802325      1.13507944030789
  N   -0.85994764804518      1.17512348366444     -0.93089833437417
  O   -2.04249080330555      1.14567549116958     -1.26938010769139
  O   -0.02368623168630      2.00105613103807     -1.27751725732965
  C   1.99853197779357      0.46718076739980     -0.48694533713521
  N   2.96779532944003      0.92506011241758     -0.97458299690187
  C   1.20690908506618     -1.26401289724861      1.03887468247065
  N   1.35901663775858     -2.16815695795376      1.77857574602192
