12
Coordinates from ORCA-job run
  C   -0.41000977097275      0.04288790254614     -0.13427491886513
  C   0.91317190526388     -0.11001380114300      0.20109499170399
  N   -1.17142477351656     -0.85544615064582     -0.77852616276264
  H   -2.16627837298953     -0.69145872247111     -0.79319663847176
  H   -0.83156069347205     -1.79833516431499     -0.89218241886945
  N   -1.13218885112302      1.30235455881359      0.16486176912025
  O   -0.47497417037327      2.25489554322037      0.56704290225273
  O   -2.34906387658459      1.28091585963525     -0.01642958704458
  C   1.48556143637754     -1.37643564722093     -0.12079592138971
  N   1.86819290522019     -2.44926563881705     -0.42071540307359
  C   1.74600923136125      0.84666728205039      0.84471855455536
  N   2.52256503080893      1.55423397834717      1.37740283284454
