12
Coordinates from ORCA-job run
  C   -0.42282677536345      0.09807932286641     -0.03197819006001
  C   0.90224220998029     -0.17896946219782      0.19093334266994
  N   -1.47127138174514     -0.44678875294270      0.60920745846028
  H   -2.37256228724492     -0.34248759704713      0.16814855514725
  H   -1.31461578221779     -1.26334310388525      1.18120187223644
  N   -0.82579523770755      1.11692188637904     -1.02902418309517
  O   -1.99250886273797      1.05776668366222     -1.41477856119509
  O   0.02057261652254      1.92661249166979     -1.38895632741986
  C   2.01384195812375      0.43204056298114     -0.45300171613281
  N   3.00112391945422      0.86012968764827     -0.93169065867404
  C   1.16849698943897     -1.20215966110032      1.14881088868481
  N   1.29330263349705     -2.05680205803365      1.95012751937827
