12
Coordinates from ORCA-job run
  C   -0.42702388997776      0.06501963191036     -0.04948833082260
  C   0.90591358247584     -0.10838019295103      0.22739593395749
  N   -1.45445993242339     -0.54872741282566      0.56148219137113
  H   -2.34791835823664     -0.50638826775254      0.09516614429395
  H   -1.26269159565322     -1.34313746462000      1.15312425620112
  N   -0.86781989067707      1.03753115725925     -1.07687371112988
  O   -2.02266205133599      0.90571393331715     -1.48055262317471
  O   -0.06207691558392      1.88618043926778     -1.44020426740706
  C   1.99317632754349      0.57002109981304     -0.39013227588636
  N   2.96285351128715      1.05968263125734     -0.84497181592868
  C   1.21080973428789     -1.09356218277293      1.21293494297185
  N   1.37089947829361     -1.92495337190276      2.03211955555378
