12
Coordinates from ORCA-job run
  C   -0.40594866676334      0.05231570160700     -0.03923988678477
  C   0.90624741766061     -0.32955189722679      0.08591959408051
  N   -1.47123967558996     -0.43721345142875      0.61134474364435
  H   -2.38375912516840     -0.11106234448792      0.34158247411869
  H   -1.35485177434596     -1.06299849193130      1.38762161753747
  N   -0.76565705865636      1.12592292927942     -0.99219419872789
  O   -1.82201302412917      0.95067096208831     -1.60079871803965
  O   -0.03108319358698      2.10184810429650     -1.06165086605598
  C   1.18574941543171     -1.34383271061860      1.04721049939436
  N   1.27763105325350     -2.16392458520759      1.88746620511482
  C   1.98219013479224      0.33815849732733     -0.56998354902229
  N   2.88173449710211      0.87966728630238     -1.09727791525963
