12
Coordinates from ORCA-job run
  C   -0.41510813672697      0.12738184493493      0.00147222449194
  C   0.89820853951875     -0.25298473091899      0.11757475259762
  N   -1.46371495366643     -0.41992723379091      0.64162331965703
  H   -1.33732832739247     -1.30519699081509      1.10998460757202
  H   -2.37772371844232     -0.20941344531461      0.26952898111577
  N   -0.79990158831514      1.27471024736813     -0.85091422428660
  O   -1.98800750312544      1.33719430373455     -1.16568066071156
  O   0.08045301490813      2.06827142354903     -1.16489891083444
  C   2.01281393511306      0.34865787754584     -0.52816836822442
  N   3.00091729498204      0.74958889087796     -1.02685588685299
  C   1.14210122270427     -1.38878880901376      0.94700541379624
  N   1.24829022044253     -2.33049337815708      1.64732875167938
