12
Coordinates from ORCA-job run
  C   -0.42308744788859      0.03033399500347     -0.08419659873048
  C   0.91128071406008     -0.08924564695418      0.22025822708987
  N   -1.43968170046554     -0.50482196842161      0.60424473924785
  H   -2.37090905854778     -0.40566274853490      0.23232313941710
  H   -1.26088473566678     -1.14025625612885      1.36567301835241
  N   -0.87391900671949      0.83634623740158     -1.24441549908472
  O   -2.08498351114654      0.83643394226978     -1.46327545407971
  O   -0.02028004575043      1.43270396733051     -1.89040215674378
  C   1.20980911410493     -0.88913873520650      1.36311651544756
  N   1.36627437467243     -1.56919887870870      2.31254120748240
  C   2.00261503662342      0.50793000406684     -0.46895958364098
  N   2.98176626672427      0.95357608788256     -0.94790755475751
