12
Coordinates from ORCA-job run
  C   -0.42224110020974      0.09880963136146     -0.01297571313591
  C   0.90387655733572     -0.20917472856505      0.15722181050710
  N   -1.46917051870845     -0.54560846241199      0.53131609858082
  H   -2.37055425706064     -0.36627219534638      0.11446264481203
  H   -1.31334463787288     -1.45043312374002      0.95013772102862
  N   -0.82901056322299      1.27204980378909     -0.82260445621446
  O   0.01357946459254      2.13571092521602     -1.03599337139124
  O   -1.99623678214897      1.27670862810099     -1.21157548445747
  C   2.01038336469236      0.49928091061804     -0.38847761440337
  N   2.98869039561222      1.00706815515619     -0.80374764345030
  C   1.17577397250633     -1.37443380042813      0.93371969901942
  N   1.30725410448450     -2.34470574375021      1.58851630910476
