12
Coordinates from ORCA-job run
  C   -0.42333006421026      0.09712969426498     -0.01927077871195
  C   0.90906059754607     -0.17355149963117      0.16687971928124
  N   -1.44929256731213     -0.44508098629366      0.65841958342283
  H   -1.27523944489386     -1.25543018471114      1.23389024296155
  H   -2.36605986883249     -0.33834398662356      0.25137321492935
  N   -0.86026496888295      1.10488859504119     -1.01344419026803
  O   -0.02344981170964      1.90124992837030     -1.42210761994272
  O   -2.04377304062933      1.05288755276247     -1.34590088910816
  C   1.99812936678788      0.42802875866741     -0.52292639706577
  N   2.96722407690912      0.84894745715008     -1.04302792509018
  C   1.20692516804825     -1.18628325220402      1.12636253393822
  N   1.35907055717934     -2.03344207679289      1.93075250565362
