12
Coordinates from ORCA-job run
  C   -0.42582321232520      0.08905544083125     -0.01841911401426
  C   0.88748929345032     -0.30815121508337     -0.00684712945207
  N   -1.44817476224537     -0.51631383429575      0.61022288056578
  H   -2.29491239396668      0.02241921215655      0.71283477895433
  H   -1.24125204152986     -1.21339259660311      1.30966864334385
  N   -0.85561144171986      1.26127311378243     -0.81575676121225
  O   -0.10017552273379      1.65966199262841     -1.69461368869224
  O   -1.95122763724164      1.73811257144453     -0.52179409124181
  C   1.96417966717251      0.31021232217120     -0.70119408524730
  N   2.92704303370159      0.75201838012434     -1.21572259966166
  C   1.18890410900938     -1.43197225802931      0.81861724710626
  N   1.34856090842858     -2.36192312912716      1.52400391955138
