12
Coordinates from ORCA-job run
  C   -0.40953960411269      0.05643779765433     -0.13361254728827
  C   0.91707943871464     -0.13050526407727      0.16389653802582
  N   -1.19385723272291     -0.77663874049078     -0.83829736901524
  H   -0.86499211995998     -1.71285568934916     -1.02100850573830
  H   -2.18898478780165     -0.62648634219471     -0.76933943802450
  N   -1.11333951096028      1.29201151265201      0.28411125709515
  O   -2.34260602487931      1.24382646066294      0.26056652767903
  O   -0.42857162341928      2.25278564805198      0.61502125289853
  C   1.47775996508312     -1.37083737504934     -0.26324881327037
  N   1.85442355826114     -2.41906481803021     -0.64693788295342
  C   1.75881137184064      0.76622999499640      0.87875524203346
  N   2.53381656995654      1.42609681517380      1.47109373855812
