12
Coordinates from ORCA-job run
  C   -0.41835670065383      0.12572435137899      0.00899389871822
  C   0.85866705244542     -0.37643259643278     -0.02944355553025
  N   -1.38633481222079     -0.22928264054570      0.86965964311575
  H   -2.18791435513533      0.37879690377218      0.93776616642915
  H   -1.14735999484639     -0.80453560657768      1.66403339694555
  N   -0.86265230804734      1.13084003181336     -0.98144621206151
  O   -1.85770347053248      1.78503297074116     -0.66882528568373
  O   -0.21726965126919      1.23586471755866     -2.01785611163545
  C   1.86928858974920     -0.04336346998826     -0.97442588880002
  N   2.78091396496569      0.16752268242809     -1.68934881616577
  C   1.19060601416303     -1.30924441261785      0.99660177325970
  N   1.37711567138200     -2.05892293153014      1.88629099140836
