12
Coordinates from ORCA-job run
  C   -0.41946217095961      0.03221233480100     -0.10185601110651
  C   0.93307713444591     -0.10019916281197      0.08999281631112
  N   -1.25992878569059     -0.92115061071789     -0.53853519994682
  H   -2.24462000227803     -0.75472153714404     -0.39607509074765
  H   -0.93756416776904     -1.87693601152697     -0.56338931251500
  N   -1.09403227261065      1.33085951211267      0.12896478510590
  O   -2.31674839980779      1.28536149499261      0.25952403357269
  O   -0.39383281421536      2.33565918225290      0.17282153776772
  C   1.46057937128298     -1.40734634495533     -0.12900315005586
  N   1.79164415012995     -2.52096636483653     -0.32356805224339
  C   1.82910382168085      0.91782907571808      0.51959705036597
  N   2.65178413579140      1.67839843211548      0.88252659349184
