12
Coordinates from ORCA-job run
  C   -0.42632482515874      0.06853076245439     -0.04748217750563
  C   0.89788022011365     -0.27096863799178      0.07299334173594
  N   -1.45337212971521     -0.47374989206477      0.62857819909581
  H   -1.25413135473289     -1.05338778507551      1.43001710382584
  H   -2.32249431354303      0.03812517311606      0.61506269135926
  N   -0.86059855307431      1.09235540026793     -1.02660974928822
  O   -0.08139476005937      1.38668128973080     -1.92536564511261
  O   -1.98339262979619      1.56319524043134     -0.84883941358492
  C   1.98139449364316      0.27575423920655     -0.66924654542438
  N   2.94782779348996      0.67089439337948     -1.21396280136405
  C   1.19889721227660     -1.24553100065042      1.07024069844568
  N   1.35570884655637     -2.05089918280406      1.91561429781728
