12
Coordinates from ORCA-job run
  C   -0.42066685550359      0.04747074995043     -0.08351574399242
  C   0.90907057696450     -0.12491616599360      0.21948605265614
  N   -1.45121543222156     -0.52964536333679      0.54639403140743
  H   -2.38285208541970     -0.35904766580435      0.20460183678333
  H   -1.29462011299664     -1.18637632266890      1.29409531735981
  N   -0.84432917076654      0.93829582536737     -1.19084310205638
  O   -2.05586015237379      1.00679488271397     -1.39427135128294
  O   0.03068559228917      1.52924195309315     -1.81232183704179
  C   1.18128456141276     -1.01046867765087      1.30391692683715
  N   1.30761685497644     -1.76027207738518      2.20390804594368
  C   2.01692069473946      0.49622179072719     -0.42009793575249
  N   3.00396552889949      0.95270107098758     -0.87235224086151
