12
Coordinates from ORCA-job run
  C   -0.42820550388611      0.04266994550528     -0.06072397394400
  C   0.90828053371733     -0.22725571006621      0.09022099790754
  N   -1.44599986531481     -0.58769956760491      0.55061930778817
  H   -1.23896406793820     -1.19347271842097      1.33064916825722
  H   -2.33692065787757     -0.11447944777411      0.54250911444968
  N   -0.88536768771514      1.08971008104835     -1.00303512083075
  O   -2.01671564327039      1.53144830595374     -0.80689747777326
  O   -0.11530686679686      1.42713685008143     -1.89486303912285
  C   1.97899333722556      0.42138470334792     -0.58566855424504
  N   2.93320057349924      0.90637831291984     -1.07656052702501
  C   1.23461282767413     -1.23008597237285      1.05072638525025
  N   1.41139302068281     -2.06473478261751      1.86302371928803
