12
Coordinates from ORCA-job run
  C   -0.42994593825195      0.02999132425658     -0.06241619556924
  C   0.91190775636741     -0.19745888280789      0.11304180234510
  N   -1.43098504383004     -0.51501467753759      0.64923593939513
  H   -2.33456199293937     -0.07376152140589      0.56966064589920
  H   -1.20939471346478     -0.99577773183893      1.50816904995582
  N   -0.91278519377152      0.91640761581707     -1.14740945025222
  O   -2.07017401996943      1.31911801339422     -1.03626667864765
  O   -0.13547683076939      1.17652367064110     -2.05823043133294
  C   1.97085297182839      0.35201940695227     -0.66201454343753
  N   2.91890573669102      0.76456341916367     -1.22569470372767
  C   1.26023116971819     -1.03875193350734      1.21103683707200
  N   1.45842609839147     -1.73585870312728      2.13988772830003
