12
Coordinates from ORCA-job run
  C   -0.42725042246654      0.05727668964499     -0.05469656171929
  C   0.90499217907718     -0.08929839536741      0.24009564711668
  N   -1.45077714018609     -0.57210142674449      0.54645946864087
  H   -1.25218277003599     -1.35951857204427      1.14517586663974
  H   -2.34013078610590     -0.54642749991939      0.07151800672303
  N   -0.87270046289360      1.01536609351313     -1.09358727913279
  O   -0.08062910698258      1.88157041522587     -1.44572045163929
  O   -2.01706727616311      0.85533013162663     -1.51638999348088
  C   1.98721724322878      0.60129277867686     -0.37294634145269
  N   2.95309618897841      1.10145421145888     -0.82428760234515
  C   1.21543204809736     -1.06113704913628      1.23706867106117
  N   1.37900030545209     -1.88280737693453      2.06531056958859
