12
Coordinates from ORCA-job run
  C   -0.42434714335022      0.09439827778883     -0.01783567414370
  C   0.88508891260522     -0.31590014911862     -0.00650486675315
  N   -1.45374017936410     -0.50729285843868      0.60175055240614
  H   -1.25648026078711     -1.21794384342975      1.29024057918179
  H   -2.29833771042676      0.03455342159748      0.70472628661830
  N   -0.84047587143749      1.28060285055960     -0.80235114934722
  O   -0.07454774225069      1.68789582177923     -1.66775216138298
  O   -1.93678605066398      1.75802784829375     -0.51278395271387
  C   1.96898570876036      0.29512501152526     -0.69655468613162
  N   2.93538551522404      0.72907016570918     -1.21100205051918
  C   1.17264492127067     -1.45071865152676      0.80872477416985
  N   1.32160990042005     -2.38681789473952      1.50834234861564
