12
Coordinates from ORCA-job run
  C   -0.43037318583751      0.02564646965880     -0.05291514973011
  C   0.91718283985891     -0.17930759006823      0.10672763902959
  N   -1.41103564963563     -0.48806530004224      0.70884101158257
  H   -1.16703787752996     -0.91641400494784      1.58916379694742
  H   -2.32009639095824     -0.05912368554987      0.62443297057229
  N   -0.94473703504657      0.84147659907540     -1.17729194831654
  O   -0.19173727049292      1.04765633148366     -2.12181897591297
  O   -2.10105291640078      1.24602213251945     -1.06215905001565
  C   1.95366195710263      0.33038995594578     -0.72368886329278
  N   2.88557901438525      0.71097409782207     -1.33491579096133
  C   1.29503614028499     -0.95626036057522      1.24188700636716
  N   1.51461037426984     -1.60299464532177      2.20173735373035
