12
Coordinates from ORCA-job run
  C   -0.39513865362949      0.17000631620953      0.06221269718731
  C   0.87426263793611     -0.34602088094553     -0.01167448858995
  N   -1.37949633070004     -0.24758402278253      0.87642504514470
  H   -1.27061114805756     -1.12899244163062      1.35526108751118
  H   -2.31358591708786      0.05704636305576      0.64765593192968
  N   -0.79086226728163      1.33134109888345     -0.76843593018727
  O   -2.00108644529651      1.52180005461152     -0.88299187946296
  O   0.10286437449647      2.00387926189726     -1.26909717842422
  C   1.92981183754565      0.12119518202402     -0.84307945313671
  N   2.86291584465957      0.41575750066350     -1.49836852650680
  C   1.12967635126829     -1.48232975286403      0.81198844463151
  N   1.25024971614701     -2.41609867912233      1.52010424990352
