12
Coordinates from ORCA-job run
  C   -0.42785331419942      0.07308327619392     -0.03411015039425
  C   0.89584835386331     -0.28261756516095      0.02806421772495
  N   -1.44829778117996     -0.53395058106391      0.59578654240416
  H   -2.31044259879549     -0.01405562721405      0.66066707496515
  H   -1.23791882577960     -1.19633991149639      1.32743102704859
  N   -0.86944393770957      1.19830057320798     -0.89064452931777
  O   -0.10943387693715      1.57206694937517     -1.77627905676669
  O   -1.97830359260499      1.66534215502786     -0.63281308592982
  C   1.96953183142529      0.33534371535793     -0.67156750771886
  N   2.92865045662875      0.78326553622326     -1.18769115844482
  C   1.20954827732770     -1.35590275139622      0.91363600473219
  N   1.37811500796112     -2.24453576905461      1.66852062169718
