12
Coordinates from ORCA-job run
  C   -0.42866512293418      0.07947576251679     -0.02555951966425
  C   0.89276689290991     -0.28860159940396      0.03011100329712
  N   -1.41101185212897     -0.36744568762776      0.77144274198827
  H   -2.30028944657244      0.10583005356655      0.72385030077428
  H   -1.18014712756878     -0.89865061693535      1.59671474312438
  N   -0.91285228933297      1.01727755083273     -1.06575581676142
  O   -0.14688384659936      1.29632955276244     -1.98090952184332
  O   -2.05757102505805      1.44375066846290     -0.91766912128690
  C   1.24171153216375     -1.18772000451591      1.08131480205452
  N   1.45397610786364     -1.93680111629423      1.96595970699479
  C   1.94488148421316      0.18947963964470     -0.79967300766585
  N   2.90508469304427      0.54807579699110     -1.37882631101161
