12
Coordinates from ORCA-job run
  C   -0.42691773178011      0.07914756347088     -0.02411021100461
  C   0.89383828600101     -0.29111342073717      0.01857345907802
  N   -1.43322595939429     -0.47510497720276      0.67297433936132
  H   -2.29133635018948      0.05243699311470      0.72519750608617
  H   -1.20932853092042     -1.09703246030293      1.43525691901736
  N   -0.88334166681685      1.15553468853862     -0.93388862006282
  O   -0.13952394467685      1.47749278087044     -1.85295025089213
  O   -1.98708785672383      1.63822604735434     -0.68310747847641
  C   1.95347687803050      0.26814666480503     -0.74837076177344
  N   2.90244227558906      0.66942815070033     -1.31867754797841
  C   1.22011098868965     -1.31643538086440      0.95521744938794
  N   1.39989361219160     -2.16172664974708      1.75588519725702
