14

C	0.0	0.0	0.0
C	-0.497884	0.157894	-1.425505
Cl	1.766307	0.0	0.0
H	-1.597606	0.210236	-1.384714
H	-0.069277	1.054081	-1.866005
N	-0.399339	1.263337	0.792176
O	-0.502964	1.134206	1.999765
O	-0.468953	2.300281	0.149427
C	-0.457363	-1.17747	0.728211
N	-0.644868	-2.181024	1.311181
N	-0.121024	-0.97421	-2.309807
O	0.244808	-2.036943	-1.815009
O	-0.243861	-0.75532	-3.51312
Cl	-3.27068	0.0	0.0
