14

C	0.0	0.0	0.0
C	-0.531143	-0.057792	-1.42123
Cl	1.76776	0.0	0.0
H	-1.630374	-0.151118	-1.344048
H	-0.245364	0.839203	-1.961493
N	-0.401772	1.360558	0.618132
O	-0.490663	1.393734	1.833547
O	-0.490309	2.301381	-0.155823
C	-0.450129	-1.063123	0.892459
N	-0.648336	-1.934849	1.655716
N	0.007446	-1.214034	-2.174412
O	0.192641	-1.040735	-3.379269
O	0.187135	-2.269755	-1.574761
Cl	-3.332846	0.0	0.0
