14

C	0.0	0.0	0.0
C	-0.541919	0.142375	-1.407728
Cl	1.76884	0.0	0.0
H	-0.233134	1.092748	-1.832246
H	-1.644574	0.071372	-1.329561
N	-0.402063	1.262588	0.799407
O	-0.509247	1.126509	2.006014
O	-0.4761	2.303046	0.1632
C	-0.444787	-1.173735	0.742765
N	-0.670017	-2.154301	1.350249
N	-0.045942	-0.918896	-2.314559
O	0.104056	-0.594163	-3.493011
O	0.138585	-2.045385	-1.861192
Cl	-3.350777	0.0	0.0
