16

C	-0.462383	0.083978	-1.462682
C	0.0	0.0	0.0
Cl	-2.31922	0.094008	-1.424452
H	1.095843	0.0	0.0
N	0.018811	1.278261	-2.070104
H	0.833029	1.089121	-2.640387
H	0.253	1.939552	-1.339231
C	-0.109869	-1.063547	-2.301071
N	0.137721	-1.896858	-3.090838
N	-0.472511	-1.280575	0.652484
O	-0.186835	-2.330608	0.086083
O	-1.088882	-1.189263	1.714121
N	-0.40025	1.172189	0.697998
H	-1.355017	1.10403	1.02407
H	0.218038	1.312145	1.486141
Br	3.382141	0.0	0.0
