16

C	-0.556537	-0.01585	-1.427891
C	0.0	0.0	0.0
Cl	-2.451144	-0.212657	-1.23113
H	1.09148	0.0	0.0
N	-0.210623	1.183311	-2.04218
H	-0.361564	1.9605	-1.410842
H	-0.616585	1.308313	-2.955565
C	-0.180546	-1.14826	-2.275132
N	0.098075	-1.96796	-3.06984
N	-0.415137	-1.265654	0.7207
O	-0.130833	-2.325337	0.173247
O	-0.982277	-1.149344	1.806054
N	-0.420551	1.191481	0.659943
H	0.28356	1.446957	1.340127
H	-1.305894	1.05312	1.128884
Br	3.37144	0.0	0.0
