11

C	-0.45164	0.037685	-1.427287
C	0.0	0.0	0.0
Br	-2.395379	0.210775	-1.618474
H	1.093357	0.0	0.0
H	-0.019151	0.850929	-2.004074
H	-0.385315	-0.884936	0.503654
H	-0.347136	0.899209	0.511744
N	-0.07622	-1.218883	-2.173068
O	-0.241629	-2.289469	-1.60082
O	0.346189	-1.066988	-3.316242
Br	3.616733	0.0	0.0
