16

C	0.0	0.0	0.0
C	-0.532548	-0.375894	-1.399415
Cl	1.787487	0.0	0.0
H	-1.63817	-0.347097	-1.284103
N	-0.46379	1.343937	0.249079
H	-1.487037	1.293673	0.294687
H	-0.127253	1.642599	1.15868
C	-0.443896	-1.036472	1.024689
H	-0.042843	-2.026664	0.800142
H	-1.535664	-1.062256	1.02814
H	-0.084016	-0.732945	2.010534
C	-0.136031	-1.723839	-1.805724
N	0.164038	-2.81258	-2.126648
C	-0.129563	0.593644	-2.419408
N	0.180592	1.331901	-3.277972
Br	-3.758024	0.0	0.0
