16

C	0.0	0.0	0.0
C	-0.505765	-0.30838	-1.445011
Cl	1.790977	0.0	0.0
H	-1.610282	-0.327853	-1.328389
N	-0.473506	1.261022	0.48501
H	-0.241723	2.007469	-0.162312
H	-1.492391	1.193248	0.557504
C	-0.447921	-1.110103	0.937044
H	-0.098816	-0.864603	1.940708
H	-1.538483	-1.161999	0.931067
H	-0.023917	-2.06877	0.63391
C	-0.048135	-1.596087	-1.963665
N	0.295832	-2.639791	-2.378658
C	-0.151123	0.767722	-2.369021
N	0.100762	1.65537	-3.096083
Br	-3.737069	0.0	0.0
