16

C	0.0	0.0	0.0
C	-0.519802	0.114182	-1.453448
Cl	1.831767	0.0	0.0
H	-1.626128	0.045073	-1.325395
N	-0.510232	1.100742	0.712639
H	-0.063118	1.980296	0.500309
H	-0.609482	0.945296	1.70258
C	-0.45756	-1.307459	0.613507
H	-1.551325	-1.3065	0.621602
H	-0.071978	-1.379857	1.634104
H	-0.073685	-2.156317	0.045607
C	-0.032399	-0.95855	-2.319781
N	0.340973	-1.820559	-3.024861
C	-0.194822	1.419387	-2.026476
N	0.039301	2.477363	-2.478694
Br	-3.838585	0.0	0.0
