16

C	0.0	0.0	0.0
C	-0.434215	0.082627	-1.520952
Cl	1.789812	0.0	0.0
H	0.490856	0.076549	-2.108457
N	-0.465453	1.179574	0.673402
H	-0.207488	1.110536	1.653104
H	-1.491769	1.148591	0.621565
C	-0.413823	-1.320556	0.639714
H	-0.040006	-1.336495	1.667113
H	5.7e-05	-2.179553	0.10719
H	-1.504469	-1.369012	0.645169
C	-1.094788	1.337026	-1.892173
N	-1.506115	2.351679	-2.316211
C	-1.172414	-1.089445	-2.003447
N	-1.573464	-2.0795	-2.491355
Br	-3.636786	0.0	0.0
