16

C	0.0	0.0	0.0
C	-0.434245	0.214385	-1.505064
Cl	1.791448	0.0	0.0
H	0.488772	0.248266	-2.093826
N	-0.47162	1.109724	0.77737
H	-1.49711	1.086752	0.708631
H	-0.229032	0.944823	1.749478
C	-0.405434	-1.376852	0.518076
H	-1.495345	-1.434565	0.534362
H	-0.016022	-1.489958	1.533503
H	0.003996	-2.179071	-0.09968
C	-1.085058	1.501172	-1.767846
N	-1.468222	2.56177	-2.094324
C	-1.186089	-0.904302	-2.085702
N	-1.601771	-1.830475	-2.677067
Br	-3.634782	0.0	0.0
