16

C	-0.563694	-0.069292	-1.420215
C	0.0	0.0	0.0
Cl	-0.161481	1.44977	-2.276242
H	1.090604	0.0	0.0
H	-1.657538	-0.098625	-1.366505
C	-0.00916	-1.245845	-2.2042
H	-0.324394	-1.182605	-3.247351
H	-0.36794	-2.191569	-1.792295
H	1.081764	-1.23436	-2.149437
N	-0.4387	-1.328698	0.632793
O	0.338724	-2.27584	0.63311
O	-1.593594	-1.367815	1.075538
N	-0.493339	1.104599	0.74722
H	-1.432899	0.926178	1.077996
H	0.126152	1.290328	1.524406
Cl	3.378185	0.0	0.0
