16

C	-0.380353	0.001631	-1.476628
C	0.0	0.0	0.0
Cl	-2.177182	0.112125	-1.666553
H	1.093229	0.0	0.0
H	-0.101293	-0.958578	-1.906846
C	0.296494	1.143108	-2.202458
H	0.077399	1.106205	-3.271396
H	-0.041895	2.104891	-1.812149
H	1.37453	1.054078	-2.042419
N	-0.473359	-1.319961	0.580976
O	-0.067697	-2.331717	0.011045
O	-1.232055	-1.314344	1.545891
N	-0.447292	1.085858	0.794195
H	-1.342938	1.458275	0.509974
H	0.263534	1.799813	0.853237
Cl	3.319297	0.0	0.0
