16

C	-0.526863	-0.050887	-1.440675
C	0.0	0.0	0.0
Cl	0.161045	-1.450662	-2.321914
H	1.090022	0.0	0.0
H	-0.10252	0.832344	-1.92353
C	-2.036627	-0.077875	-1.608196
H	-2.289823	0.019215	-2.665677
H	-2.510201	0.745647	-1.069482
H	-2.450655	-1.013411	-1.233971
N	-0.51243	-1.207663	0.734025
O	-1.677967	-1.144153	1.140086
O	0.22247	-2.177992	0.856225
N	-0.413575	1.154393	0.744337
H	0.226362	1.915099	0.569245
H	-1.369493	1.428638	0.573077
Cl	3.359576	0.0	0.0
