16

C	-0.431659	0.034262	-1.451183
C	0.0	0.0	0.0
Cl	-2.240319	0.052304	-1.559983
H	1.09417	0.0	0.0
H	-0.125109	-0.896046	-1.92493
C	0.153866	1.236262	-2.156001
H	-0.10888	1.229349	-3.216205
H	-0.208412	2.15364	-1.693408
H	1.240951	1.193007	-2.044656
N	-0.40925	-1.35378	0.584573
O	-0.999475	-1.360966	1.666117
O	-0.111218	-2.357194	-0.058563
N	-0.469019	1.101782	0.759085
H	0.092697	1.198976	1.594228
H	-1.437905	0.978442	1.024519
Cl	3.315102	0.0	0.0
