16

C	-0.522433	0.009447	-1.441027
C	0.0	0.0	0.0
Cl	-0.086134	1.578198	-2.192429
H	1.090576	0.0	0.0
H	-1.616861	-0.016562	-1.424054
C	0.059653	-1.12908	-2.255002
H	1.149085	-1.119087	-2.165901
H	-0.22633	-1.041619	-3.304518
H	-0.312902	-2.086845	-1.878499
N	-0.516495	-1.305026	0.563412
O	0.27346	-2.204146	0.819889
O	-1.741604	-1.371706	0.703098
N	-0.474937	1.034402	0.868667
H	-1.388711	1.37244	0.591472
H	0.200201	1.786848	0.872937
Cl	3.371262	0.0	0.0
