16

C	-0.525374	-0.008588	-1.438973
C	0.0	0.0	0.0
Cl	-0.086893	1.554053	-2.211525
H	1.090553	0.0	0.0
H	-1.619693	-0.026014	-1.415174
C	0.038342	-1.159177	-2.250935
H	-0.343895	-2.106097	-1.863905
H	1.126789	-1.161001	-2.175262
H	-0.259912	-1.070902	-3.296762
N	-0.498387	-1.299635	0.58097
O	-1.712662	-1.372863	0.767082
O	0.289362	-2.217322	0.782232
N	-0.477115	1.047107	0.852247
H	-1.393685	1.372946	0.579188
H	0.185115	1.808378	0.827865
Cl	3.392306	0.0	0.0
