16

C	-0.55356	0.034979	-1.425167
C	0.0	0.0	0.0
Cl	-0.041393	-1.400727	-2.365524
H	1.090114	0.0	0.0
H	-0.052026	0.886728	-1.886643
C	-2.060644	0.185535	-1.520768
H	-2.354062	0.272569	-2.568436
H	-2.374685	1.090554	-0.996432
H	-2.570728	-0.675487	-1.086768
N	-0.474525	-1.269147	0.687424
O	0.24718	-2.25924	0.655134
O	-1.594313	-1.229026	1.217965
N	-0.440003	1.171152	0.703737
H	0.239809	1.390285	1.421881
H	-1.343355	1.006777	1.131115
Cl	3.389716	0.0	0.0
