17

C	0.0	0.0	0.0
C	-0.616005	-0.02303	-1.398649
Br	1.966392	0.0	0.0
H	-1.72262	-0.089072	-1.100982
C	-0.373841	1.284907	0.603886
N	-0.564432	2.293668	1.175435
C	-0.463041	-1.128546	0.919963
H	-0.099291	-0.934477	1.931616
H	-0.080907	-2.088221	0.575662
H	-1.558295	-1.079473	0.867347
N	-0.205226	-1.296824	-2.117014
O	-0.648656	-2.36566	-1.699146
O	0.52979	-1.19378	-3.105135
N	-0.293819	1.143774	-2.139962
H	-0.971787	1.282142	-2.875855
H	0.629039	1.069029	-2.550393
F	-2.832136	0.0	0.0
