17

C	0.0	0.0	0.0
C	-0.440821	-0.079902	-1.508383
Br	1.959942	0.0	0.0
H	0.451712	-0.284745	-2.106536
C	-0.427908	1.201708	0.71469
N	-0.669837	2.12153	1.40513
C	-0.463054	-1.222117	0.791444
H	-0.047218	-1.174658	1.800382
H	-0.135869	-2.134346	0.293555
H	-1.554669	-1.146046	0.804722
N	-0.765022	1.363345	-2.011415
O	0.05429	2.24087	-1.739215
O	-1.735573	1.504896	-2.746086
N	-1.44693	-1.019198	-1.74897
H	-2.263724	-0.708165	-1.131026
H	-1.68469	-1.00241	-2.731977
F	-2.877997	0.0	0.0
