17

C	0.0	0.0	0.0
C	-0.66227	-0.431944	-1.379436
Br	1.962611	0.0	0.0
H	-1.359392	-1.22014	-1.111603
C	-0.378632	1.378366	0.299001
N	-0.567208	2.518252	0.516212
C	-0.462421	-0.947394	1.103297
H	-1.556579	-0.853152	1.090504
H	-0.033402	-0.660341	2.065711
H	-0.140333	-1.960398	0.849709
N	0.381701	-1.067223	-2.25269
O	0.63755	-2.252147	-2.028976
O	0.92894	-0.376638	-3.106662
N	-1.402096	0.544948	-2.088096
H	-0.889265	1.415127	-2.166509
H	-2.21622	0.644262	-1.446228
F	-2.835227	0.0	0.0
