15
Coordinates from ORCA-job run
  C   -0.36299553653320      0.19073426953423     -0.24710830806460
  C   0.80841790907084     -0.77210511915478     -0.12049108797632
  F   -0.59571881109511      0.44220599817111     -1.59330525368895
  H   0.52508145900799     -1.71283645968629     -0.60231416039856
  H   0.93444099608176     -0.97959955358706      0.95660445917796
  C   -1.64961077064667     -0.39304346999745      0.31104284594615
  H   -2.46497826459227      0.31813659505255      0.16154781363481
  H   -1.90310178713899     -1.32249693078145     -0.20316201280088
  H   -1.55328010200537     -0.59675781953981      1.38008808703891
  N   0.01917547355493      1.47379937717955      0.31916556151019
  H   -0.67048380245092      2.16718752891998      0.05199866761281
  H   0.02742048404072      1.41370390576047      1.33089813840613
  N   1.98642996061116     -0.22612256058420     -0.77584637526184
  H   2.81000943353493     -0.73877741601152     -0.48907458834634
  H   2.08719335856019      0.73797165472468     -0.48204378678948
