15
Coordinates from ORCA-job run
  C   -0.33584941055153      0.38358435441421     -0.09822207813169
  C   1.10272260772396     -0.08813379333734      0.03306599700894
  F   -0.62780182914188      0.29993251988730     -1.49831565690749
  H   1.35637326219414     -0.10494726495696      1.09531916001484
  H   1.74314651380527      0.66776074249302     -0.45052124270119
  C   -1.33526403834401     -0.51020520738983      0.59631525161595
  H   -1.20569596282990     -1.53485346391785      0.25437365809410
  H   -2.35028280692916     -0.17887883511563      0.36313936302757
  H   -1.18559627993921     -0.46674601578607      1.67591863767294
  N   -0.44278844542401      1.72511888793457      0.35285211973192
  H   -1.39785817021057      2.05232383020509      0.27882675363340
  H   0.15128213084723      2.33412095290763     -0.19640846630155
  N   1.24706641990649     -1.42833503572842     -0.52019333565752
  H   2.18817965006868     -1.76588560391754     -0.36591946070713
  H   1.09136635882450     -1.38585606769217     -1.51923070039307
