15
Coordinates from ORCA-job run
  C   -0.47477412434271      0.32690388849481     -0.29195293533866
  C   0.85487605721300     -0.31585520288343     -0.67385207750162
  F   -1.18626768613236      0.43464121126431     -1.52705362751534
  H   1.41128456159635      0.41671261432717     -1.27043074450856
  H   0.62892525653032     -1.15333291293042     -1.34164342244860
  C   -1.31065575905465     -0.53831228228978      0.61946305474507
  H   -0.78288765820588     -0.68887135880221      1.55929996714895
  H   -1.50305369722811     -1.50247145751210      0.14475999591113
  H   -2.27393778255847     -0.05832395674602      0.80947022949361
  N   -0.26761435540076      1.61081013823836      0.27426066383861
  H   0.20447215126646      2.21659679559064     -0.38589626080577
  H   -1.14966773474060      2.03651604744865      0.53033546826172
  N   1.60902183181251     -0.72985801062432      0.50453127382591
  H   1.71041959948221     -1.73370986700812      0.53258158144760
  H   2.53085933976270     -0.32144564656754      0.51612683344593
