15
Coordinates from ORCA-job run
  C   -0.47460660783839      0.32052164037290     -0.45536534328915
  C   0.87334573507207     -0.34926279274689     -0.69185176697756
  F   -1.09659524739829      0.37480915891894     -1.71149631472562
  H   1.40131949686329      0.27752161270278     -1.41369762072268
  H   0.69455082510303     -1.32528199742240     -1.16032846872368
  C   -1.39941914131845     -0.49530134777658      0.43099667798773
  H   -0.98248222773154     -0.58225369536043      1.43650120193901
  H   -2.36847829733748      0.00539523988680      0.50081840875487
  H   -1.56315635149494     -1.49270895321161      0.01582062447297
  N   -0.24139001325168      1.66046341495302     -0.01258985456066
  H   0.52867477065745      1.64208439810306      0.64597386935290
  H   -1.05932036945742      2.04651909579341      0.44179367140422
  N   1.64336724991070     -0.40243956609009      0.55126096568796
  H   1.41323087218094     -1.23866339803439      1.07266680821721
  H   2.63295930604071     -0.44040281008851      0.34749714118248
