15
Coordinates from ORCA-job run
  C   -0.36025001369642      0.36287653086866     -0.25276759921458
  C   1.13198755998379      0.03431128907328     -0.16764314500188
  F   -0.72204779052893      0.05750373409780     -1.58285777931550
  H   1.47886662291332      0.26079586991811      0.84559955680281
  H   1.64563927069334      0.72609421547965     -0.84620270973485
  C   -1.23266979910076     -0.49450297444157      0.63769091039721
  H   -2.27414451745443     -0.19161912266046      0.51735326092921
  H   -1.14807090392426     -1.54207669649860      0.35029113273303
  H   -0.94513884087903     -0.39099009613741      1.68723904299862
  N   -0.64132771679636      1.74858853251947     -0.03770590917287
  H   0.13744339096537      2.34173128550428     -0.29213665825476
  H   -0.92629904085420      1.94267042027472      0.91034600684145
  N   1.53483928011094     -1.31699575929210     -0.51828139511275
  H   1.19295452101478     -1.98102376039232      0.16407299366569
  H   1.13121797755285     -1.55736346831350     -1.41499770856083
