15
Coordinates from ORCA-job run
  C   -0.49563700885244      0.27602579378551     -0.40650656905404
  C   0.82918963526520     -0.37309023152488     -0.81651135917098
  F   -1.22089478319756      0.36474667527895     -1.60996012267081
  H   0.61549657697671     -1.32346789510042     -1.31233992209027
  H   1.28223447181047      0.27934305206479     -1.57170674169133
  C   -1.32329757228618     -0.56824354978998      0.53879886529227
  H   -2.26783388693086     -0.05968405200664      0.73901530360214
  H   -0.80407200083275     -0.73679181132926      1.48447176816641
  H   -1.53995420020191     -1.53263378591394      0.07750997114628
  N   -0.35221767798688      1.60025240586506      0.11105464099972
  H   0.45117892782847      2.09161978907469     -0.25413682683406
  H   -0.38606584538668      1.65381683251772      1.11625889076761
  N   1.79529974419987     -0.60535254324423      0.24540036544609
  H   1.46074374948801     -1.31163977568887      0.88739218291364
  H   1.95482987010653      0.24509909601148      0.77025955317734
