18

C	-0.417036	0.003382	-1.465415
C	0.0	0.0	0.0
Br	0.490572	-1.392622	-2.481085
H	1.095098	0.0	0.0
C	-1.85153	-0.170371	-1.682821
N	-3.008591	-0.351012	-1.793324
N	-0.023162	1.352882	-2.082407
O	1.146044	1.527633	-2.372483
O	-0.927503	2.184415	-2.15245
C	-0.510669	-1.248696	0.703469
H	-0.096496	-1.256046	1.715257
H	-1.605966	-1.285408	0.775845
H	-0.158973	-2.155308	0.207732
C	-0.480762	1.266851	0.701463
H	-0.215154	1.176792	1.758016
H	-1.563502	1.431826	0.62854
H	0.03967	2.148083	0.321461
F	2.595489	0.0	0.0
