18

C	-0.395253	-0.012836	-1.459884
C	0.0	0.0	0.0
Br	0.398886	1.463753	-2.45958
H	1.096367	0.0	0.0
C	0.00799	-1.237144	-2.145172
N	0.336738	-2.221553	-2.697081
N	-1.925918	0.089471	-1.585581
O	-2.529619	-0.983519	-1.573617
O	-2.441824	1.199231	-1.549426
C	-0.428213	-1.281692	0.707252
H	0.005465	-1.255101	1.710317
H	-0.022986	-2.164239	0.208175
H	-1.51556	-1.395478	0.799718
C	-0.482577	1.232501	0.74742
H	-1.563203	1.231566	0.94039
H	0.041811	1.252837	1.706532
H	-0.227856	2.151606	0.217996
F	2.56813	0.0	0.0
