18

C	-0.456505	0.098454	-1.436134
C	0.0	0.0	0.0
Br	0.380846	1.589879	-2.377275
H	1.104628	0.0	0.0
C	-0.185185	-1.094269	-2.233577
N	0.023035	-2.034366	-2.9081
N	-1.98653	0.301458	-1.469372
O	-2.437795	1.438177	-1.43616
O	-2.645479	-0.735273	-1.386114
C	-0.425534	-1.308475	0.656395
H	-0.120627	-2.174558	0.064616
H	0.105807	-1.370735	1.6101
H	-1.503783	-1.376021	0.848201
C	-0.43631	1.199848	0.829585
H	-0.179881	2.140978	0.340349
H	-1.51097	1.208791	1.056533
H	0.118419	1.162811	1.770509
F	2.562493	0.0	0.0
