18

C	-0.438109	-0.166231	-1.437865
C	0.0	0.0	0.0
Br	0.493145	1.055164	-2.638092
H	1.096005	0.0	0.0
C	-0.225115	-1.513675	-1.956378
N	-0.039662	-2.596771	-2.374786
N	-1.95146	0.115864	-1.539463
O	-2.678837	-0.845415	-1.287699
O	-2.326349	1.269094	-1.706876
C	-0.44799	-1.162447	0.877976
H	-1.536861	-1.237749	0.988068
H	-0.06552	-2.113994	0.502312
H	-0.007193	-1.008972	1.866633
C	-0.42356	1.338256	0.59018
H	-0.173879	2.168084	-0.072629
H	-1.493701	1.393998	0.829354
H	0.148812	1.475345	1.510838
F	2.568691	0.0	0.0
