16

C	-0.226029	-0.066461	-1.520815
C	0.0	0.0	0.0
Br	-0.039713	1.852406	-2.290995
H	1.09735	0.0	0.0
N	0.732911	-0.948082	-2.030227
H	1.653534	-0.738093	-1.602172
H	0.767252	-0.966681	-3.040722
C	-1.586652	-0.427526	-1.924978
N	-2.671731	-0.773608	-2.2205
C	-0.44128	-1.297235	0.682997
H	0.037315	-2.140789	0.185416
H	-0.103099	-1.275142	1.721983
H	-1.527075	-1.428343	0.6649
C	-0.581013	1.14957	0.659697
N	-1.056003	2.027439	1.282318
H	2.715969	0.0	0.0
