16

C	-0.483816	-0.024344	-1.449614
C	0.0	0.0	0.0
Br	0.207218	-1.625423	-2.378747
H	1.095375	0.0	0.0
N	-1.931563	-0.091899	-1.53545
H	-2.310049	0.710116	-1.037285
H	-2.218928	-0.029772	-2.507219
C	0.06143	1.121138	-2.202428
N	0.354346	2.061919	-2.845719
C	-0.443829	-1.204612	0.826323
H	-1.525515	-1.351377	0.817312
H	-0.099257	-1.058393	1.85284
H	0.050376	-2.097298	0.440604
C	-0.481993	1.237933	0.590099
N	-0.898589	2.230294	1.068746
H	2.654055	0.0	0.0
