16

C	-0.190651	0.037937	-1.508145
C	0.0	0.0	0.0
Br	-2.110366	0.500032	-2.052306
H	1.099937	0.0	0.0
N	0.702883	1.013493	-2.021128
H	1.612129	0.876629	-1.534721
H	0.821418	0.925205	-3.022536
C	-0.024839	-1.303902	-2.092451
N	0.15238	-2.343855	-2.614088
C	-0.556656	-1.214773	0.720833
H	-0.321165	-1.13751	1.784336
H	-0.084011	-2.122064	0.339028
H	-1.641242	-1.295013	0.604787
C	-0.436411	1.244833	0.604982
N	-0.776902	2.216302	1.173388
H	2.649737	0.0	0.0
