16

C	-0.50195	0.031922	-1.43762
C	0.0	0.0	0.0
Br	0.470537	-1.445175	-2.477553
H	1.094414	0.0	0.0
N	-1.911609	-0.127787	-1.545902
H	-2.196427	-0.980066	-1.080422
H	-2.197638	-0.170004	-2.517224
C	-0.105272	1.258336	-2.13471
N	0.14098	2.241524	-2.72982
C	-0.416025	-1.245205	0.781175
H	0.157147	-1.251905	1.712114
H	-0.137283	-2.140919	0.222952
H	-1.481555	-1.271983	1.03031
C	-0.45842	1.200373	0.679836
N	-0.824459	2.146322	1.276554
H	2.637462	0.0	0.0
