17

C	0.0	0.0	0.0
C	-0.375367	-0.385625	-1.46215
Cl	1.796907	0.0	0.0
H	0.188754	0.301258	-2.103896
C	-0.397879	1.391874	0.229984
N	-0.663912	2.522465	0.406967
C	-0.600861	-0.921699	1.042059
H	-0.274502	-0.627086	2.040627
H	-1.692729	-0.841654	0.984461
H	-0.291391	-1.950879	0.849684
C	-1.86156	-0.287604	-1.794133
H	-2.463996	-1.03375	-1.281577
H	-1.985687	-0.415299	-2.873039
H	-2.275006	0.676588	-1.500367
C	0.127401	-1.733733	-1.747845
N	0.499075	-2.819218	-1.999217
Cl	-4.569718	0.0	0.0
