17

C	0.0	0.0	0.0
C	-0.572593	0.148324	-1.425189
Cl	1.795027	0.0	0.0
H	-1.655345	0.30828	-1.262122
C	-0.373404	1.184853	0.783458
N	-0.612356	2.148299	1.412336
C	-0.501603	-1.259828	0.689795
H	-0.106726	-2.142406	0.18435
H	-1.595883	-1.247238	0.6568
H	-0.16126	-1.270105	1.726042
C	-0.38752	-1.098769	-2.290614
H	0.658992	-1.413195	-2.320795
H	-1.008631	-1.907177	-1.905193
H	-0.715359	-0.884096	-3.309745
C	-0.012653	1.323754	-2.090167
N	0.43005	2.24281	-2.67308
Cl	-3.666459	0.0	0.0
