16

C	-0.551781	-0.004271	-1.427367
C	0.0	0.0	0.0
Br	0.212984	1.442913	-2.467537
H	1.093581	0.0	0.0
N	-0.053647	-1.306304	-2.121744
O	-0.715887	-1.671813	-3.091344
O	0.929359	-1.871374	-1.666276
N	-1.959512	0.061681	-1.442587
H	-2.289944	-0.668065	-0.816345
H	-2.300156	-0.11061	-2.380828
N	-0.527718	-1.207753	0.667189
H	-0.800117	-0.981996	1.615614
H	0.245155	-1.863384	0.720634
C	-0.470459	1.204593	0.681612
N	-0.817928	2.156355	1.275537
Br	3.471619	0.0	0.0
