16

C	-0.28473	-0.034473	-1.508035
C	0.0	0.0	0.0
Br	-0.06381	-1.912125	-2.189686
H	1.09718	0.0	0.0
N	-1.74766	0.250855	-1.83213
O	-2.572577	-0.006964	-0.96074
O	-1.996478	0.697134	-2.946466
N	0.508798	0.917631	-2.138142
H	1.485544	0.817775	-1.855284
H	0.396857	0.927362	-3.142227
N	-0.482364	-1.118988	0.767213
H	-1.420468	-0.95275	1.104592
H	0.148239	-1.275975	1.54276
C	-0.437523	1.310082	0.512359
N	-0.824947	2.309886	0.995086
Br	3.408104	0.0	0.0
