17

C	0.0	0.0	0.0
C	-0.445586	0.241958	-1.447354
Br	1.982916	0.0	0.0
H	-1.522903	0.038193	-1.442909
H	0.040881	-0.497244	-2.092583
N	-0.462024	0.965704	0.962862
H	-1.478907	0.851695	1.007917
H	-0.276441	1.904562	0.628389
C	-0.434222	-1.380864	0.460057
H	-0.057277	-2.151858	-0.215203
H	-0.065798	-1.569137	1.469743
H	-1.528484	-1.397277	0.457991
C	-0.207205	1.64921	-1.978333
H	0.83783	1.95208	-1.872461
H	-0.842651	2.371027	-1.461675
H	-0.46871	1.698726	-3.03858
Br	-3.902682	0.0	0.0
