17

C	0.0	0.0	0.0
C	-0.468576	0.117448	-1.442618
Br	2.057926	0.0	0.0
H	-1.557624	0.229074	-1.351951
H	-0.064894	1.04721	-1.860899
N	-0.447478	1.110908	0.727481
H	-0.21528	1.995636	0.300214
H	-0.182752	1.091915	1.701374
C	-0.441176	-1.278458	0.677739
H	-0.013866	-2.157324	0.196021
H	-0.134823	-1.279696	1.72724
H	-1.535834	-1.294805	0.619477
C	-0.13549	-1.057404	-2.350367
H	-0.45789	-0.835339	-3.371243
H	-0.667825	-1.956483	-2.034606
H	0.93684	-1.267018	-2.367655
Br	-4.114145	0.0	0.0
