11
Coordinates from ORCA-job run
  C   1.15324078686928     -0.44306203949159     -0.31315934944188
  C   -0.10876079206631     -0.35099547606579      0.51358521162390
  F   1.77465778474390      0.80284240831576     -0.36654902408355
  H   0.16486223097717     -0.05526730841865      1.53105496930499
  H   0.93285764488040     -0.74123237808288     -1.34258916203514
  H   1.86888321031053     -1.14654598077948      0.12013619980881
  H   -0.54451557077482     -1.35445352259061      0.57807017109830
  C   -1.11782167842952      0.63349405444795     -0.06740576131687
  H   -2.01560030970784      0.69034731514431      0.55132467371697
  H   -1.42211956789824      0.33358770227951     -1.07389344978769
  H   -0.68468373890454      1.63228522524146     -0.13057447888783
