11
Coordinates from ORCA-job run
  C   1.19988908784465     -0.35376082862399     -0.24329625318555
  C   -0.10579746155785     -0.34514157123196      0.51811034225635
  F   0.97251916387830     -0.72707244118754     -1.56626354030445
  H   -0.51840879807530     -1.35867028852876      0.50902857687658
  H   1.90926622141385     -1.06925860014483      0.18052922868418
  H   1.65681725779071      0.64029746638602     -0.25956433634181
  H   0.11389687145805     -0.09824732253342      1.56297774806026
  C   -1.11491975292334      0.63929998851159     -0.06284135041419
  H   -0.72645972142051      1.66095633785531     -0.03324956731272
  H   -2.05223827876559      0.62065633987734      0.49676060562804
  H   -1.33456458964297      0.39294091962023     -1.10219145394669
