16

C	0.0	0.0	0.0
C	-0.640718	-0.01172	-1.350763
F	1.358512	0.0	0.0
H	-1.774832	-0.113922	-0.98106
H	-0.365818	0.884967	0.514915
N	-0.30245	-1.087924	1.024446
O	-0.647154	-0.668864	2.128534
O	-0.035431	-2.258885	0.774158
N	-0.227138	-1.116474	-2.219313
O	-0.533442	-2.263759	-1.883701
O	0.331627	-0.829372	-3.295401
C	-0.389105	1.331531	-2.015359
H	0.683023	1.531933	-2.136933
H	-0.847301	2.1096	-1.395903
H	-0.852724	1.352211	-3.002413
H	-2.834022	0.0	0.0
