16

C	0.0	0.0	0.0
C	-0.291339	0.12295	-1.544876
F	1.348484	0.0	0.0
H	0.611353	-0.29851	-1.991887
H	-0.416358	0.853385	0.553935
N	-0.571395	-1.174976	0.646246
O	-1.770414	-1.406424	0.190342
O	-0.213715	-1.325161	1.842311
N	-0.152253	1.599811	-1.873777
O	-1.104538	2.184419	-2.383222
O	0.927725	2.131478	-1.614383
C	-1.508868	-0.432633	-2.245526
H	-1.460945	-0.151456	-3.301914
H	-2.422953	-0.052586	-1.789968
H	-1.511563	-1.514998	-2.147133
H	-2.858312	0.0	0.0
