16

C	0.0	0.0	0.0
C	-0.590447	-0.012697	-1.390709
F	1.351632	0.0	0.0
H	-1.663324	-0.235914	-1.207989
H	-0.412987	0.825021	0.57633
N	-0.349056	-1.249707	0.770124
O	-0.366879	-1.142516	1.992871
O	-0.432063	-2.297017	0.134904
N	0.011122	-1.041074	-2.288207
O	-0.762066	-1.794515	-2.87547
O	1.23221	-1.029398	-2.456252
C	-0.423767	1.347943	-2.03793
H	-1.086529	2.041939	-1.515822
H	0.609871	1.697388	-1.98734
H	-0.734653	1.306462	-3.084864
H	-2.926455	0.0	0.0
