16

C	0.0	0.0	0.0
C	-0.21638	0.035309	-1.53245
F	1.369834	0.0	0.0
H	0.450462	-0.745658	-1.898954
H	-0.332672	0.848672	0.578536
N	-0.607702	-1.203956	0.563071
O	-0.590453	-1.290449	1.817054
O	-0.606039	-2.220811	-0.19268
N	0.41696	1.301384	-2.042257
O	0.31466	2.329987	-1.376205
O	0.956076	1.24046	-3.150237
C	-1.546643	-0.101546	-2.246808
H	-2.026927	-1.005511	-1.883438
H	-2.200405	0.748753	-2.064798
H	-1.335064	-0.191896	-3.31738
H	-2.111604	0.0	0.0
