12
Coordinates from ORCA-job run
  C   0.70362247925284      0.16293259491383      0.54527342433768
  C   -0.58377060677940     -0.59730476970561      0.26075073230071
  Br  1.01807203815499      0.13273049555131      2.49062663939317
  H   -0.51561564629473     -1.60252016704217      0.69210246714760
  H   1.56800073723415     -0.38675491286136      0.15171144384133
  H   -1.39203878045758     -0.06357031646317      0.76525904206020
  N   0.57154286891849      1.51034683698896      0.08877318584340
  H   1.46775117496809      1.97423743903528      0.02704389696754
  H   0.13525009230524      1.47322782472137     -0.82669854619025
  N   -0.83101283009062     -0.57298303059044     -1.18264419852314
  H   -1.81507535323441     -0.70579736533088     -1.37345291900493
  H   -0.32772617397708     -1.32354462921711     -1.63874516817332
