12
Coordinates from ORCA-job run
  C   0.45643095964778      0.36007565986054      0.50276010178623
  C   -0.33212648290587     -0.44648850360263     -0.51786067783630
  Br  -0.80216802930363      1.74705944632911      1.26751779637787
  H   0.39553980042415     -1.08966512804297     -1.02551347455402
  H   0.68441951170681     -0.25507576690755      1.37174492877414
  H   -0.73378363501089      0.24488185424298     -1.26688204025982
  N   1.63619087890510      0.90933961181708     -0.04862379799977
  H   1.43086194983628      1.53377484235904     -0.81855296353545
  H   2.17838062713432      1.41271703708833      0.64033372382432
  N   -1.38388300498819     -1.21945767632442      0.12606512915072
  H   -1.23317326705274     -2.20955596665842      0.00437001357666
  H   -2.29568930839311     -0.98660541016109     -0.23535873930457
