12
Coordinates from ORCA-job run
  C   0.59423338291499      0.16060324713074      0.56243619028687
  C   -0.76311951794124     -0.43682714260521      0.24646701785328
  Br  0.46950351149113      1.02878910415007      2.38319730803018
  H   -1.08254937683967     -1.06101352013550      1.08232255332309
  H   1.32986818136351     -0.62944339023564      0.70165427993775
  H   -1.49019340100347      0.38636724921761      0.15183003668753
  N   1.01178440646375      1.04495130300607     -0.45965665324544
  H   0.40902975847646      1.85690683703552     -0.51467763781779
  H   1.96745389805522      1.35133916397209     -0.33836386415319
  N   -0.61093458553321     -1.27255063503925     -0.93761876079002
  H   -1.48315711975563     -1.73825402447163     -1.15284709223777
  H   -0.35091913769184     -0.69286819202487     -1.72474337787450
