12
Coordinates from ORCA-job run
  C   0.37862091669250      0.41160273656952      0.60122946116914
  C   -0.24840797126089     -0.42431973356541     -0.50479523367544
  Br  -1.04533973745947      1.52424216359241      1.40360141833240
  H   -0.64263472429471      0.26146531169728     -1.27226310617981
  H   0.70434137027667     -0.24479487047522      1.40874585103922
  H   0.57274271682634     -0.99131915412455     -0.95869240793868
  N   1.45927680199235      1.26705224140512      0.20813155370575
  H   1.25082590952986      1.74918552005676     -0.65723993328679
  H   2.31208181490736      0.73221026609031      0.10331113330989
  N   -1.21276839779201     -1.37457032357639      0.02856735177951
  H   -1.48837416144365     -2.02885262416707     -0.69258905482767
  H   -2.04336453797434     -0.88090153350277      0.33099296657246
