12
Coordinates from ORCA-job run
  C   0.62961312166487      0.15375725759706      0.40115070634429
  C   -0.62548333618500     -0.70313894559554      0.26718472644459
  Br  1.04381414317976      0.31834513444664      2.37673852489006
  H   -0.50093972637996     -1.62284617640027      0.84072352665499
  H   1.50504688512318     -0.36647695642826      0.01093693362514
  H   -1.46482112796842     -0.15985198008740      0.71454885597256
  N   0.47886723898267      1.39806559833607     -0.25366194847169
  H   1.33348015283555      1.93799898421323     -0.26165221416805
  H   -0.25711961200796      1.95089100039992      0.16861294191381
  N   -0.95301629773697     -1.03843294472130     -1.10919264200432
  H   -0.92995695649923     -0.19564610808557     -1.66986205087058
  H   -0.25948448500848     -1.67266486367459     -1.48652736033081
