12
Coordinates from ORCA-job run
  C   0.34719387081205      0.43340214181077      0.40016103813735
  C   -0.37830867473436     -0.46112968083446     -0.60187621962391
  Br  -0.96893857723038      1.48900608504988      1.41447548868182
  H   0.39477047727820     -0.98705632830160     -1.17754965794563
  H   0.82019834277346     -0.17933300394544      1.17850209817181
  H   -0.91568787267125      0.18700312318116     -1.29796523330124
  N   1.22114963279821      1.34455510699920     -0.28798208317689
  H   1.80700087357552      1.85503609657300      0.35999133690437
  H   1.81237019976296      0.83229046220176     -0.93238234328606
  N   -1.29054193738060     -1.45293770396170     -0.06921075856159
  H   -2.03804588871638     -0.99532934978792      0.43686441653212
  H   -0.81116044626744     -2.06750694898463      0.57697191746785
