12
Coordinates from ORCA-job run
  C   0.63859593646980      0.13337277443682      0.49654799677628
  C   -0.55364729261905     -0.79588674456087      0.29264601651240
  Br  1.06679369870684      0.20432487448376      2.40183351744076
  H   -1.37831794971797     -0.42200148318019      0.90304275508215
  H   1.53915983208331     -0.29724474653793      0.03749079338939
  H   -0.29378157166749     -1.79428621613093      0.65399719931333
  N   0.32005032555445      1.47571047766335      0.04971324865728
  H   0.28547394013976      1.47697341443204     -0.96372304945605
  H   1.05075793429595      2.11940623838059      0.32776681769354
  N   -1.00979946862723     -0.89605111464170     -1.08479674321615
  H   -0.26791686283748     -1.18407323407155     -1.70961295822745
  H   -1.39936852178091     -0.02024424027339     -1.40490559396548
