12
Coordinates from ORCA-job run
  C   0.59893180269906      0.15631173197263      0.61450563758267
  C   -0.27133960081305     -0.99029140998962      0.10545556968351
  Br  -0.55539070608145      1.27335835081254      1.87582379446392
  H   -0.69599240796790     -1.51437043200275      0.96373336845827
  H   1.37759041010932     -0.21070472123498      1.28309381315527
  H   0.40447429021385     -1.68234159761795     -0.40788324598933
  N   1.16603522711411      0.90759452057346     -0.43205509761045
  H   0.45502390295828      1.34120892644377     -1.00563007872265
  H   1.79977692813481      1.62061692568025     -0.09864285783313
  N   -1.34141770871102     -0.64370551699490     -0.80739598204178
  H   -0.98525584220721     -0.30868259732072     -1.69173445776077
  H   -1.95243629544878      0.05300581967825     -0.40127046338553
