17
Coordinates from ORCA-job run
  C   -0.41400897801954     -0.49760117993813     -0.20938439874610
  C   0.69100064795029      0.50022573230401      0.17277502951472
  Cl  -0.14203868750731     -1.06329812061274     -1.89494425310186
  H   0.43224369580693      0.81365535342907      1.20067852077640
  C   -1.78912787356545      0.14651762895180     -0.15839918261845
  H   -1.98110140832353      0.50275873825144      0.85933999454695
  H   -2.55249944295849     -0.58908929732453     -0.42131694805112
  H   -1.84599406644612      0.99517679562871     -0.83639106347185
  N   -0.27065175303683     -1.67079320435574      0.64685729410551
  H   -0.86890787176935     -2.41427472579922      0.30406781070436
  H   -0.59246036082543     -1.42525855275929      1.57902671699975
  N   0.59928725381298      1.69070245841583     -0.64904774400492
  H   1.13659063967677      2.43635088731790     -0.22304819523548
  H   1.04144476189581      1.47280680366914     -1.53664377600675
  N   1.98743458212137     -0.14993431735272      0.08375387996891
  H   1.90482710663874     -1.09735365389878      0.43646156368701
  H   2.66396175454917      0.35140865407325      0.64621475093291
