17
Coordinates from ORCA-job run
  C   -0.41159076183441     -0.65430277325762      0.08262265910164
  C   0.92686546265831      0.11098218812838      0.03143953834335
  Cl  -0.07773174146865     -2.31464977667882     -0.62930073027257
  H   1.66734582612915     -0.53190187485582      0.53496246753005
  C   -1.48227224393571     -0.00569593672781     -0.76594268351145
  H   -1.14825087694832      0.04181582689875     -1.80099783521613
  H   -1.67375834181754      1.00135779826292     -0.39263615453599
  H   -2.40317575080566     -0.59236238782313     -0.72658246761085
  N   -0.83428160462341     -0.75746874518617      1.44690909647182
  H   -0.19052725631017     -1.33924198916691      1.97240007218460
  H   -1.75247071624841     -1.18123284150157      1.50492712144004
  N   0.71680750680391      1.39627014259359      0.68871115365806
  H   0.22871659647150      1.25480706275495      1.56528084749767
  H   1.61268820368680      1.83191797184576      0.87300571673609
  N   1.36002733016693      0.30499293037189     -1.33618343372594
  H   2.35931059147741      0.19463739649620     -1.42830569623567
  H   1.10229777659827      1.24207500784539     -1.62030967185475
