17
Coordinates from ORCA-job run
  C   -0.44245261779342     -0.63472299122108      0.07618481599080
  C   0.93160321009367      0.06402878467152      0.01691839342878
  Cl  -0.20439489472442     -2.29306164130502     -0.67836518075064
  H   1.64739715046460     -0.62570383445063      0.49348762467344
  C   -1.49381399988346      0.08554672752901     -0.73807960403666
  H   -2.44186721783228     -0.45590629048993     -0.69560079639500
  H   -1.17514298896047      0.14103248005969     -1.77756845604274
  H   -1.62877919040273      1.09174372152969     -0.33865611081515
  N   -0.84611436612166     -0.74827265564754      1.44524307555650
  H   -1.78410719608845     -1.12486018854779      1.51079245845885
  H   -0.22465058185603     -1.37455208547935      1.94574232282346
  N   0.79722112717402      1.34304414874692      0.70536499115012
  H   0.32006706902308      1.20575592843205      1.58858371818484
  H   1.71663418275891      1.73083247380168      0.88049008304780
  N   1.35039149462249      0.26683235697804     -1.35367896159029
  H   2.34056325246478      0.10646627413592     -1.46751310545042
  H   1.13644556706137      1.22179679125683     -1.61334526823367
