15

C	0.0	0.0	0.0
C	-0.548725	-0.10946	-1.429181
Cl	1.790328	0.0	0.0
H	-1.637023	0.020861	-1.312288
H	-0.296122	0.970625	0.401773
C	-0.504916	-1.115418	0.892998
H	-1.596665	-1.136232	0.839907
H	-0.088187	-2.077108	0.584434
H	-0.204685	-0.929417	1.925599
N	-0.307844	-1.370014	-2.116085
H	-0.942205	-2.064873	-1.740842
H	0.645526	-1.675399	-1.952859
C	-0.047818	0.999306	-2.257067
N	0.340619	1.889782	-2.91656
Cl	-3.709107	0.0	0.0
