15

C	0.0	0.0	0.0
C	-0.524312	-0.113766	-1.428623
Cl	1.793868	0.0	0.0
H	-1.61996	-0.129239	-1.312919
H	-0.307984	0.965725	0.403018
C	-0.49683	-1.131718	0.874341
H	-0.12551	-1.006801	1.893938
H	-1.588631	-1.100026	0.875237
H	-0.151663	-2.085844	0.476752
N	-0.085076	-1.354007	-2.057121
H	-0.640197	-1.523423	-2.886246
H	0.885919	-1.270656	-2.335329
C	-0.162471	1.081542	-2.216831
N	0.128989	1.995039	-2.89644
Cl	-3.714265	0.0	0.0
