15

C	0.0	0.0	0.0
C	-0.301671	0.157983	-1.514369
Cl	1.796819	0.0	0.0
H	0.454973	-0.46868	-2.011909
H	-0.345306	0.889564	0.523056
C	-0.527751	-1.279321	0.596715
H	-0.191327	-1.387138	1.630515
H	-0.180873	-2.144997	0.025403
H	-1.620852	-1.221609	0.570963
N	-0.168085	1.570162	-1.884381
H	0.811481	1.819346	-1.81572
H	-0.454213	1.692691	-2.848268
C	-1.546315	-0.383054	-2.087518
N	-2.253066	-0.872304	-2.889966
Cl	-3.698982	0.0	0.0
