15

C	0.0	0.0	0.0
C	-0.40577	-0.043378	-1.499472
Cl	1.789465	0.0	0.0
H	0.225302	0.69775	-2.004095
H	-0.301725	0.978182	0.382069
C	-0.591827	-1.105021	0.840463
H	-0.276859	-2.084187	0.47367
H	-1.683388	-1.027133	0.796098
H	-0.280457	-1.00387	1.882094
N	-1.775997	0.248892	-1.839995
H	-2.461667	-0.302173	-1.323161
H	-1.995988	1.205874	-1.590617
C	-0.021597	-1.350274	-2.066896
N	0.292226	-2.387002	-2.519132
Cl	-4.341361	0.0	0.0
