15

C	0.0	0.0	0.0
C	-0.397487	0.090546	-1.482812
Cl	1.794129	0.0	0.0
H	0.468717	-0.258686	-2.055482
H	-0.329432	0.898187	0.518408
C	-0.498854	-1.253346	0.690587
H	-1.592763	-1.219224	0.695948
H	-0.168643	-2.139198	0.141578
H	-0.12143	-1.315158	1.713395
N	-0.691103	1.447592	-1.93232
H	0.100411	2.033592	-1.669682
H	-1.512011	1.744346	-1.412571
C	-1.444408	-0.808411	-1.984495
N	-2.138788	-1.545146	-2.578382
Cl	-3.631483	0.0	0.0
