15

C	0.0	0.0	0.0
C	-0.403363	0.154289	-1.49366
Cl	1.790238	0.0	0.0
H	0.265515	0.917189	-1.908845
H	-0.30124	0.920635	0.505001
C	-0.59341	-1.202974	0.690793
H	-1.684761	-1.123201	0.642372
H	-0.269937	-2.128265	0.209903
H	-0.294464	-1.22864	1.740871
N	-1.754117	0.556315	-1.797054
H	-1.901718	1.507691	-1.482391
H	-2.474952	0.012592	-1.317634
C	-0.081475	-1.094485	-2.211427
N	0.142184	-2.087788	-2.795658
Cl	-4.30674	0.0	0.0
