15

C	0.0	0.0	0.0
C	-0.459369	-0.238782	-1.455356
Cl	1.789386	0.0	0.0
H	0.324497	0.148685	-2.112853
H	-0.290138	1.028106	0.221916
C	-0.575856	-0.958956	1.017102
H	-0.227235	-1.976934	0.826961
H	-1.669315	-0.93701	0.952253
H	-0.279456	-0.665881	2.026137
N	-1.659706	0.521617	-1.725251
H	-2.43945	0.284807	-1.098888
H	-1.983451	0.332382	-2.667301
C	-0.518727	-1.693755	-1.743676
N	-0.546481	-2.82736	-2.052965
Cl	-4.291087	0.0	0.0
