14

C	-0.399519	0.074901	-1.457877
C	0.0	0.0	0.0
F	-0.212919	-1.211803	-2.04351
H	1.096309	0.0	0.0
H	-1.469557	0.268677	-1.603696
H	-0.319585	0.934272	0.473137
N	0.366782	1.06784	-2.11725
H	1.351496	0.940334	-1.896891
H	0.236112	1.016135	-3.119007
C	-0.562438	-1.207693	0.731893
H	-0.252518	-1.19412	1.779334
H	-1.657932	-1.228124	0.69996
H	-0.191091	-2.128597	0.283039
Br	3.759412	0.0	0.0
