14

C	-0.413258	0.081842	-1.452655
C	0.0	0.0	0.0
F	-0.233541	-1.202806	-2.039318
H	1.096239	0.0	0.0
H	-1.484804	0.280474	-1.582915
H	-0.353575	-0.948929	0.411204
N	0.342782	1.078121	-2.120136
H	1.33212	0.93897	-1.928459
H	0.181738	1.046054	-3.118411
C	-0.515655	1.185136	0.8075
H	-0.144237	2.118596	0.3826
H	-1.611336	1.224586	0.81791
H	-0.167719	1.123423	1.841207
Br	3.748665	0.0	0.0
