14

C	-0.434885	0.023411	-1.460233
C	0.0	0.0	0.0
F	-0.55591	-1.301068	-1.911302
H	1.096137	0.0	0.0
H	-1.436094	0.453263	-1.582126
H	-0.289363	0.970079	0.424472
N	0.473194	0.713364	-2.321153
H	1.419925	0.66093	-1.95608
H	0.204841	1.678779	-2.44888
C	-0.577598	-1.137272	0.827385
H	-1.67309	-1.143371	0.803243
H	-0.258005	-1.049442	1.868407
H	-0.227001	-2.095645	0.447028
Br	3.732236	0.0	0.0
