14

C	-0.422311	0.080153	-1.459001
C	0.0	0.0	0.0
F	-0.455188	-1.219998	-1.976965
H	1.09613	0.0	0.0
H	-1.444741	0.468965	-1.564811
H	-0.373831	-0.924843	0.446976
N	0.448445	0.865304	-2.288715
H	0.203804	1.843951	-2.232115
H	1.410506	0.752266	-1.975393
C	-0.475463	1.220053	0.782539
H	-0.091229	2.139273	0.331569
H	-0.10071	1.188472	1.807691
H	-1.569188	1.28689	0.818622
Br	3.720204	0.0	0.0
