14

C	-0.482974	-0.008404	-1.432225
C	0.0	0.0	0.0
F	-0.188946	1.208542	-2.043874
H	1.093698	0.0	0.0
H	0.073175	-0.752591	-2.014851
H	-0.302039	-0.95245	0.456402
N	-1.920022	-0.165116	-1.515552
H	-2.215485	-0.895728	-0.883143
H	-2.188594	-0.428741	-2.455997
C	-0.536474	1.176178	0.806773
H	-1.627645	1.173557	0.86564
H	-0.126179	1.152291	1.81872
H	-0.223565	2.112228	0.343365
Br	3.803255	0.0	0.0
