15

C	-0.378372	0.006522	-1.469626
C	0.0	0.0	0.0
Cl	-2.166828	-0.068083	-1.66932
H	1.095283	0.0	0.0
H	0.01107	-0.915346	-1.899367
C	0.194393	1.225238	-2.162762
H	1.273904	1.244484	-1.987157
H	-0.250481	2.141678	-1.770591
H	-0.000178	1.173566	-3.234992
N	-0.416737	-1.277852	0.669515
O	-0.829043	-1.216688	1.824025
O	-0.263217	-2.304293	0.016062
C	-0.516728	1.14728	0.727238
N	-0.900701	2.113971	1.272557
Br	3.333494	0.0	0.0
