15

C	-0.380656	0.015092	-1.468673
C	0.0	0.0	0.0
Cl	-2.169358	-0.053041	-1.665772
H	1.095286	0.0	0.0
H	0.005443	-0.905371	-1.904635
C	0.194266	1.235885	-2.15598
H	-0.24618	2.151443	-1.755982
H	1.274462	1.250064	-1.983697
H	-0.004554	1.192109	-3.228234
N	-0.413557	-1.281195	0.664374
O	-0.798056	-1.22878	1.828531
O	-0.283034	-2.302757	-0.000956
C	-0.514985	1.142963	0.735779
N	-0.899227	2.102885	1.29292
Br	3.333598	0.0	0.0
