15

C	-0.371681	-0.00344	-1.472815
C	0.0	0.0	0.0
Cl	-2.156042	-0.086267	-1.681969
H	1.095285	0.0	0.0
H	0.026202	-0.926395	-1.892915
C	0.200518	1.212847	-2.170297
H	0.015825	1.152789	-3.243751
H	1.278147	1.239108	-1.985749
H	-0.253147	2.130212	-1.789767
N	-0.423582	-1.272609	0.670703
O	-0.236615	-2.304016	0.034104
O	-0.879454	-1.204955	1.808813
C	-0.519602	1.153	0.716702
N	-0.90314	2.12353	1.255315
Br	3.330568	0.0	0.0
