15

C	-0.51605	-0.003241	-1.447503
C	0.0	0.0	0.0
Cl	0.092525	-1.442414	-2.309356
H	1.091402	0.0	0.0
H	-0.028762	0.852243	-1.921024
C	-2.024848	0.078286	-1.591432
H	-2.503369	-0.804636	-1.167568
H	-2.407836	0.962042	-1.07659
H	-2.288014	0.142989	-2.648624
N	-0.516462	-1.196023	0.746992
O	-1.640343	-1.101997	1.249393
O	0.194956	-2.192714	0.765589
C	-0.473884	1.208255	0.666963
N	-0.837052	2.217575	1.145072
Br	3.387935	0.0	0.0
