15

C	-0.380264	0.009639	-1.469016
C	0.0	0.0	0.0
Cl	-2.167895	-0.065823	-1.664238
H	1.095315	0.0	0.0
H	0.009586	-0.9106	-1.902143
C	0.18937	1.231234	-2.158814
H	-0.006641	1.182481	-3.230247
H	-0.256126	2.145769	-1.762985
H	1.268533	1.251	-1.985443
N	-0.413936	-1.280235	0.667201
O	-0.822613	-1.223664	1.822583
O	-0.260743	-2.303293	0.010636
C	-0.51762	1.144993	0.730697
N	-0.904355	2.10848	1.279776
Br	3.332487	0.0	0.0
