15

C	-0.54409	0.027168	-1.430192
C	0.0	0.0	0.0
Cl	0.29984	-1.125894	-2.497847
H	1.094709	0.0	0.0
H	-0.262891	1.012031	-1.81111
C	-2.047718	-0.163055	-1.527548
H	-2.322162	-1.176426	-1.236534
H	-2.374798	0.00208	-2.555579
H	-2.559943	0.553998	-0.879768
N	-0.41135	-1.20499	0.799876
O	-0.465368	-1.067335	2.01879
O	-0.609416	-2.252887	0.19062
C	-0.472514	1.192442	0.696386
N	-0.865459	2.193621	1.169617
Br	3.333408	0.0	0.0
