15

C	-0.533815	-0.007014	-1.438108
C	0.0	0.0	0.0
Cl	-0.001194	1.499653	-2.234185
H	1.09157	0.0	0.0
H	-1.625032	0.029012	-1.412557
C	-0.025079	-1.217539	-2.197471
H	1.062557	-1.273805	-2.117548
H	-0.461908	-2.130718	-1.78484
H	-0.315212	-1.147047	-3.247032
N	-0.495222	-1.281313	0.626235
O	-1.710192	-1.357035	0.820885
O	0.320094	-2.170169	0.834344
C	-0.530382	1.109016	0.783009
N	-0.953396	2.007381	1.40999
Br	3.401517	0.0	0.0
