15

C	-0.380021	0.009672	-1.468794
C	0.0	0.0	0.0
Cl	-2.167898	-0.067901	-1.667283
H	1.095304	0.0	0.0
H	0.010752	-0.909883	-1.902163
C	0.189005	1.231257	-2.158898
H	1.268687	1.25146	-1.985323
H	-0.25646	2.145471	-1.761726
H	-0.008331	1.183073	-3.231168
N	-0.413484	-1.279945	0.667184
O	-0.268335	-2.303441	0.008471
O	-0.814996	-1.224101	1.825103
C	-0.516754	1.144691	0.731132
N	-0.904685	2.102029	1.289781
Br	3.334536	0.0	0.0
