15

C	-0.496232	-0.054123	-1.451729
C	0.0	0.0	0.0
Cl	-0.081178	1.495034	-2.239691
H	1.09157	0.0	0.0
H	-1.586746	-0.116912	-1.456969
C	0.154603	-1.207156	-2.192353
H	-0.112582	-1.1711	-3.24986
H	1.239665	-1.144311	-2.081893
H	-0.186182	-2.16189	-1.783918
N	-0.488517	-1.27222	0.649773
O	-1.699519	-1.343736	0.868478
O	0.33002	-2.15894	0.857858
C	-0.551133	1.123274	0.745379
N	-0.99816	2.029639	1.34343
Br	3.420392	0.0	0.0
