16
Coordinates from ORCA-job run
  C   0.54292216125860     -0.15076794796132      0.64923429614915
  C   -0.58651183392980     -0.64307290654171     -0.28146506326281
  Br  1.00528943565955     -1.66787472488972      1.80580878786602
  H   -0.26744758226421     -1.56639342045465     -0.76579894713769
  C   1.79622943967959      0.28937533824419     -0.10163361545372
  H   1.59159637732307      1.19300837270780     -0.67983484287039
  H   2.59204201339857      0.50646840207361      0.61066537923763
  H   2.12608424842862     -0.50190002852461     -0.77655435760914
  C   0.05517391470892      0.92078801988569      1.51247306060718
  N   -0.33095806130342      1.80031836584795      2.19054955966144
  N   -0.66443187873890      0.36992603803295     -1.43286471179216
  O   -1.26501614698296      1.41671890864835     -1.20071356930233
  O   -0.10443733731433      0.06812175525606     -2.48358669665929
  N   -1.80936399958382     -0.80934294438599      0.40157967281236
  H   -2.18974603528463      0.07796921051545      0.70921902902415
  H   -2.49242471505486     -1.30134243845404     -0.15807798127041
