16
Coordinates from ORCA-job run
  C   0.49521588522230     -0.13253726887134      0.59848054818861
  C   -0.61406530902820     -0.58650043508850     -0.39461037403221
  Br  0.81704495405234     -1.68906002187521      1.76245311932393
  H   -0.27080115013593     -1.49626278569001     -0.88751823433394
  C   1.80039177292199      0.24926430271630     -0.08896712367128
  H   1.65891756274813      1.16282360712694     -0.67112122931340
  H   2.11993954876524     -0.55262792832125     -0.75663081120620
  H   2.57779020424260      0.42803223980149      0.65400836086358
  C   0.00589297745889      0.94208892513767      1.45433907137556
  N   -0.39606413828771      1.81125338141427      2.13678472700449
  N   -0.66443618066136      0.46151172358591     -1.47816293153304
  O   -0.10254150144087      0.20307585229774     -2.53883461867089
  O   -1.23751283108073      1.50859847395492     -1.19044909686835
  N   -1.93497357108551     -0.75542276729500      0.10374282049817
  H   -2.01208178349563     -1.59953173960098      0.65333036308697
  H   -2.24071644019554      0.04629444070703      0.64215540928800
