16
Coordinates from ORCA-job run
  C   0.35326337100703      0.36229387235075      0.52967036973162
  C   -0.48688005502416     -0.16783373152385     -0.66991227220523
  Br  -0.70630999845605      0.29323568289097      2.18084405561416
  H   0.14288160010169     -0.06534055699973     -1.55731342130862
  C   1.58860398602493     -0.51608700977975      0.71544145110824
  H   2.19727787958431     -0.13778014376625      1.53667662729956
  H   2.18723675262107     -0.50318826922727     -0.20044486510804
  H   1.29121350649245     -1.53927959635889      0.94555588347300
  C   0.76413624555405      1.74725512464430      0.32526111987345
  N   1.16676688390789      2.84085065206601      0.16703207835997
  N   -1.64345839784500      0.77604127892734     -0.91250023413661
  O   -2.71543167378368      0.48870659011171     -0.39399474295487
  O   -1.39822069241494      1.76852278693716     -1.59453610919235
  N   -0.99138056982934     -1.49027886631653     -0.58485472505016
  H   -0.28588778367244     -2.18487625113344     -0.77775490439311
  H   -1.46581105426779     -1.67324156282253      0.28882968888897
