16
Coordinates from ORCA-job run
  C   0.56364755232119     -0.39040811701798      0.49877848906118
  C   -0.75149017966066     -0.52091728624280     -0.32927121879352
  Br  1.71147694344239     -1.93853396316587      0.12652491317155
  H   -1.17694682925813     -1.50728376482052     -0.14215327788131
  C   1.36652086243539      0.88725218027581      0.27395883399832
  H   0.74445927582829      1.76280951102929      0.47364579193198
  H   1.73379873545487      0.93600334371406     -0.74914339586038
  H   2.21339130820003      0.90512463030076      0.96049257941463
  C   0.14772133729657     -0.48332751060531      1.89646783428601
  N   -0.23819718794089     -0.50692224958065      3.00707330763942
  N   -0.42226626865965     -0.49503068046020     -1.79664806854506
  O   -0.47213388781321     -1.55405327514173     -2.41131984517316
  O   -0.13942655827811      0.60706309820805     -2.26317357684095
  N   -1.73758569553503      0.48651121237340     -0.10448137594337
  H   -2.16735974313333      0.39475808319943      0.80570296739826
  H   -1.37660966469976      1.41995478793425     -0.24445395786361
