16
Coordinates from ORCA-job run
  C   0.39968750753663      0.22846113856540      0.61976362132250
  C   -0.43348653243263     -0.05780642553613     -0.64665182507457
  Br  -0.50726525569813     -0.54463490807868      2.18605568243758
  H   0.05243763659618      0.45964693401755     -1.47873385864600
  C   1.78186208993138     -0.40807357466778      0.48932320784804
  H   2.37272795601528     -0.19559202849881      1.38051312837502
  H   2.28934241284649      0.01746198917778     -0.38139165901559
  H   1.68077652698427     -1.48255190079471      0.35309609373787
  C   0.54442635581519      1.65977775614481      0.86812655288625
  N   0.75983646605732      2.79515029400455      1.08471324720900
  N   -1.79351122832501      0.65067860623502     -0.53010183175248
  O   -2.77106022412165     -0.04874057028690     -0.28519853748050
  O   -1.78682109105432      1.86608254229490     -0.70049142604035
  N   -0.53652822380962     -1.44258232571343     -0.90607727383653
  H   -0.91382396867835     -1.60942856084118     -1.82954168042491
  H   -1.13760042766298     -1.88984896602246     -0.22440344154536
