16
Coordinates from ORCA-job run
  C   0.53279379434409     -0.15487795877467      0.65963780482260
  C   -0.58821429443776     -0.63655317617385     -0.28733206904177
  Br  0.95677716313450     -1.67183342319924      1.83031884520726
  H   -0.27297941217767     -1.56569259156436     -0.76299855262390
  C   1.80304919770914      0.26575288239443     -0.07370915844025
  H   2.13027745165128     -0.53127008992015     -0.74295640388970
  H   1.62031350264643      1.17139629561670     -0.65602676220952
  H   2.59218599772594      0.47182659064116      0.64905802638019
  C   0.04266419817126      0.92729548075368      1.50846131479295
  N   -0.35061909101043      1.81573314863859      2.17050958514265
  N   -0.63533702104748      0.37345468262778     -1.44299220242256
  O   -1.23611852661000      1.42368449039388     -1.22793206528334
  O   -0.06906010503752      0.05779301726027     -2.48650271150910
  N   -1.82357471810137     -0.78556417625227      0.37678203422419
  H   -2.50380021538900     -1.27008536960690     -0.19264726298871
  H   -2.19735792157138      0.10694019716498      0.67732957783897
