16
Coordinates from ORCA-job run
  C   0.47447123746825     -0.13087387783401      0.61555113653109
  C   -0.60062019905884     -0.58936869172700     -0.41314134243173
  Br  0.75508100590602     -1.68188401565162      1.79708909816625
  H   -0.24036944265505     -1.50091209234237     -0.89041830516417
  C   1.80293004931994      0.24738141447162     -0.02768951220252
  H   1.68203121941740      1.15743014517454     -0.61979836596463
  H   2.14594692148038     -0.55823468632611     -0.67902777923957
  H   2.55348292072935      0.43064836766687      0.74135218991075
  C   -0.04404660950038      0.94833493485086      1.44799250995098
  N   -0.46503315605403      1.82473460591679      2.10944060476038
  N   -0.61537618692198      0.45407148378043     -1.50140621974674
  O   -1.20328197991714      1.49975832962271     -1.23963245584718
  O   -0.01304609943198      0.19386866238448     -2.53922777494172
  N   -1.93777762794604     -0.75706652267674      0.04124909220065
  H   -2.02875082531805     -1.59091303003245      0.60444452588201
  H   -2.26464122751788      0.05302497272202      0.55422259813618
