16
Coordinates from ORCA-job run
  C   0.42767240410110      0.22366526334999      0.60357036945684
  C   -0.46534534203679     -0.05293833390174     -0.62368767567884
  Br  -0.37908450746317     -0.60043964931203      2.19836340964534
  H   -0.03376175904717      0.49195372909800     -1.46809496392887
  C   1.81326843328521     -0.38109242942876      0.38662584043884
  H   2.44688985674039     -0.17341950139604      1.24911976318067
  H   2.26453206735721      0.07138073601118     -0.50128163528666
  H   1.72665597032552     -1.45465880241495      0.23419412502980
  C   0.55632847200459      1.65229958095763      0.87480421275614
  N   0.75271960105830      2.78991969073945      1.09751510823753
  N   -1.83100737189135      0.62437944713003     -0.42130550793060
  O   -2.77897487791309     -0.09971920917796     -0.13508246502630
  O   -1.85907440685181      1.84204640783138     -0.57245980772793
  N   -0.55448665281414     -1.43395317667529     -0.90753130524173
  H   -1.10695050107649     -1.90789198864866     -0.20308538684339
  H   -0.98038138577834     -1.58953176416223     -1.81166408108082
