16
Coordinates from ORCA-job run
  C   0.32060269037205      0.27958999088160      0.59579134617908
  C   -0.48103488419201     -0.07693401697160     -0.69111048963495
  Br  -0.67961052915699     -0.27563140526125      2.19113235093516
  H   0.10800669236695      0.29308730588327     -1.53416834961355
  C   1.65693083213229     -0.45959020395385      0.58603741612561
  H   1.49050129612600     -1.53691188572107      0.58678215266079
  H   2.23683880885666     -0.19658300073654      1.47066123844694
  H   2.22558774402796     -0.17479253487962     -0.30438941144471
  C   0.55731785797199      1.71556588121900      0.69968918636835
  N   0.82709713765107      2.85679198779571      0.78875455584474
  N   -1.74886005329815      0.74710704281307     -0.72123276887424
  O   -2.76486995946681      0.22280423635052     -0.28144680532903
  O   -1.64239483619814      1.88804396459747     -1.16532247349546
  N   -0.81986102135764     -1.43804427974524     -0.89791655614611
  H   -0.04152959261038     -1.98180597206796     -1.23831367460414
  H   -1.24572218322487     -1.86369711020356     -0.08594771741845
