16
Coordinates from ORCA-job run
  C   0.46212540174507      0.33951505393695      0.51889466176204
  C   -0.45758164278943     -0.18560536094752     -0.60316701320210
  Br  -0.53958846432834      0.39789797720545      2.21187743556832
  H   0.10381670283273     -0.12047339172116     -1.53951789427104
  C   1.66015531059699     -0.59225488262119      0.68968348747077
  H   2.21881480466304     -0.63043949709810     -0.25008447702010
  H   2.31519433336834     -0.21287554071812      1.47422370187273
  H   1.31511113587651     -1.59301295251690      0.94007855703067
  C   0.93352048934672      1.69443719719528      0.24869788341446
  N   1.40505273835045      2.75078880401584      0.03859381444637
  N   -1.61828541148013      0.80082071097393     -0.81170028786673
  O   -1.34637982181412      1.83869976947185     -1.40766884672838
  O   -2.71736922340023      0.47320067389489     -0.37618677918439
  N   -0.87829885016234     -1.51221015173022     -0.35932288462063
  H   -1.31636154246820     -1.90772535443362     -1.18079122763575
  H   -1.54092596033708     -1.54076305490738      0.40638986896373
