16
Coordinates from ORCA-job run
  C   0.48253401035371     -0.14337325827649      0.60644046429829
  C   -0.60671528525225     -0.57889762977215     -0.41674561750429
  Br  0.77599267636825     -1.71834263956317      1.75247707981129
  H   -0.25343064362876     -1.48006738812960     -0.91825913766961
  C   1.80293541823537      0.24493859659074     -0.04747817022231
  H   1.67637592074859      1.16735995111201     -0.61892063046573
  H   2.13437886136255     -0.54789840606369     -0.72015554400250
  H   2.56500811047649      0.41035126854322      0.71424153777016
  C   -0.02230974794752      0.91985637154245      1.46742334636716
  N   -0.43725014819039      1.78037693169424      2.15305367184442
  N   -0.63543987610021      0.48772237817973     -1.48274227498457
  O   -0.04636270271404      0.24946066512001     -2.53336491064212
  O   -1.21967715346528      1.52735968412474     -1.19125270903379
  N   -1.93776075852596     -0.75553214944116      0.05168404675055
  H   -2.25580798983088      0.04099800159705      0.59072932345528
  H   -2.02347069188969     -1.60431237725790      0.59286952422776
