16
Coordinates from ORCA-job run
  C   0.53578538085454     -0.14870339139594      0.65700820217229
  C   -0.58538729899481     -0.64250837985981     -0.28312331215952
  Br  0.97687280956942     -1.65778045080053      1.83141870493899
  H   -0.26423042911121     -1.56957295787013     -0.75890469433540
  C   1.79932127353961      0.27915367764894     -0.08357913225498
  H   2.12967158995750     -0.51786236402314     -0.75129076559824
  H   1.60708214406794      1.18109897178307     -0.66855789418420
  H   2.59013152775419      0.49401965107727      0.63478910842822
  C   0.04090380803530      0.93289303513347      1.50393092975589
  N   -0.34927023103956      1.81987419663589      2.16972555716090
  N   -0.64784543563543      0.36480727359476     -1.44062232105431
  O   -1.25310509696064      1.41196847453203     -1.22321300182068
  O   -0.07475974119394      0.05677436010951     -2.48270825487756
  N   -1.81624463975865     -0.80126637483375      0.38737609682593
  H   -2.49489967672360     -1.29173662714897     -0.17888833756702
  H   -2.19602598436065      0.08884090541735      0.68763911456965
