16
Coordinates from ORCA-job run
  C   0.65141517607819     -0.25127603397473      0.48088592914881
  C   -0.65300496355669     -0.66851960229521     -0.26510924471548
  Br  2.05476584713789     -1.57088140071413      0.10570991725609
  H   -0.87327886434173     -1.70662276002489     -0.01459464141604
  C   1.18305817865882      1.14256166135379      0.16049419503229
  H   2.04586809916395      1.35208053743360      0.79333454951599
  H   1.48000638402691      1.21049347854104     -0.88407376658454
  H   0.41681201375641      1.89365159837002      0.36575841733085
  C   0.32850551136596     -0.35203610174162      1.90246868091175
  N   0.01057661763638     -0.40475104632240      3.03335770857316
  N   -0.40671569733681     -0.65521927142073     -1.74856974572121
  O   -0.28139865395848     -1.73439225974393     -2.31550666248439
  O   -0.36404523760998      0.45520604349414     -2.27514007880625
  N   -1.80141610302312      0.14546030649857     -0.02517041530368
  H   -2.15732749972121      0.02392630790989      0.91308138541045
  H   -1.63182080827649      1.12131854263658     -0.22592622814776
