17

C	0.0	0.0	0.0
C	-0.423528	-0.02698	-1.51315
Cl	1.757504	0.0	0.0
H	-1.534721	-0.059484	-1.446447
N	-0.433913	1.108769	0.627432
O	0.378912	2.087889	1.105102
O	-1.663863	1.536738	0.195794
C	-0.410395	-1.20194	0.889036
H	-0.177943	-0.874376	1.906562
H	-1.487319	-1.340055	0.828533
H	0.09276	-2.142596	0.660768
N	-0.033416	-1.21873	-2.235876
O	-0.456349	-2.282327	-1.757835
O	0.623814	-1.129904	-3.283568
C	-0.015721	1.206549	-2.156958
N	0.184086	2.238397	-2.686153
H	-2.202898	0.0	0.0
