17

C	0.0	0.0	0.0
C	-0.430705	-0.014315	-1.467395
Cl	1.755734	0.0	0.0
H	-1.496033	-0.139902	-1.569297
N	-0.386038	1.257145	0.666429
O	-1.806106	1.595668	0.41466
O	0.352485	2.044423	1.408663
C	-0.427108	-1.177839	0.870553
H	-1.547951	-1.293664	0.915291
H	-0.015366	-2.158459	0.663064
H	-0.162864	-0.85837	1.918643
N	0.016939	-1.214633	-2.279839
O	0.586285	-1.071426	-3.348536
O	-0.38813	-2.308329	-1.782399
C	-0.045815	1.214871	-2.157737
N	0.24557	2.215391	-2.70155
H	-1.961107	0.0	0.0
