14

C	0.0	0.0	0.0
C	-0.385338	0.176571	-1.485804
Br	1.960972	0.0	0.0
H	0.195779	1.015897	-1.881632
H	-0.277979	0.896566	0.558762
H	-0.043377	-0.717938	-2.020896
C	-0.586193	-1.231315	0.648726
H	-1.677527	-1.131849	0.643439
H	-0.253103	-1.339017	1.683105
H	-0.302872	-2.13005	0.093583
N	-1.777627	0.405193	-1.792007
H	-2.134429	1.218861	-1.306798
H	-2.390113	-0.338498	-1.477032
Cl	-4.448599	0.0	0.0
