14

C	0.0	0.0	0.0
C	-0.504063	0.063491	-1.43777
Br	1.964039	0.0	0.0
H	-0.086152	-0.783829	-1.992743
H	-0.277263	0.914988	0.527255
H	-1.589686	-0.063966	-1.374697
C	-0.50434	-1.221662	0.738535
H	-0.183655	-2.135568	0.231185
H	-1.597465	-1.166801	0.739978
H	-0.137734	-1.247627	1.767091
N	-0.229737	1.295283	-2.168913
H	0.738245	1.562841	-2.031424
H	-0.813527	2.028937	-1.785754
Cl	-3.8307	0.0	0.0
