13

C	0.0	0.0	0.0
C	-0.548865	0.182478	-1.385127
F	1.350279	0.0	0.0
H	-0.194171	-0.58528	-2.065456
H	-0.383812	0.7237	0.711387
H	-1.647951	0.181661	-1.303813
N	-0.373138	-1.364962	0.529266
O	-0.55495	-1.447981	1.739477
O	-0.332267	-2.302509	-0.265758
N	-0.12154	1.492399	-1.931716
O	0.034885	2.426143	-1.146128
O	0.010079	1.569643	-3.151952
Cl	-3.443209	0.0	0.0
