13

C	0.0	0.0	0.0
C	-0.533455	0.213908	-1.386364
F	1.35028	0.0	0.0
H	-1.633213	0.18644	-1.331786
H	-0.39237	0.706676	0.724151
H	-0.143765	-0.519593	-2.085264
N	-0.378512	-1.376822	0.490849
O	-0.381569	-2.284671	-0.337224
O	-0.544651	-1.499527	1.698647
N	-0.125396	1.551631	-1.88202
O	0.042232	2.453384	-1.062745
O	-0.024509	1.68175	-3.100017
Cl	-3.423811	0.0	0.0
