13

C	0.0	0.0	0.0
C	-0.549082	-0.105371	-1.392307
F	1.350178	0.0	0.0
H	-1.648525	-0.138839	-1.312485
H	-0.387837	0.852363	0.548447
H	-0.153033	-0.967064	-1.921291
N	-0.374382	-1.229277	0.793022
O	-0.434031	-2.296065	0.187337
O	-0.467797	-1.079416	2.006212
N	-0.182058	1.100451	-2.175892
O	-0.056874	2.168753	-1.579492
O	-0.067258	0.955647	-3.391794
Cl	-3.439297	0.0	0.0
