13

C	0.0	0.0	0.0
C	-0.576009	-0.144767	-1.382191
F	1.350281	0.0	0.0
H	-1.6183	-0.47967	-1.288485
H	-0.392254	0.890603	0.487706
H	-0.578523	0.81893	-1.889042
N	-0.376442	-1.148843	0.921724
O	-0.061769	-0.964304	2.096032
O	-0.883459	-2.158399	0.455964
N	0.184147	-1.066815	-2.268431
O	0.071425	-0.857785	-3.477112
O	0.84182	-1.976746	-1.773046
Cl	-3.449027	0.0	0.0
