11

C	-0.454573	0.034457	-1.447697
C	0.0	0.0	0.0
F	-1.84067	0.143849	-1.538791
H	1.093623	0.0	0.0
H	-0.02268	0.901241	-1.954545
H	-0.350506	-0.914424	0.484966
C	-0.06057	-1.189758	-2.164895
N	0.202876	-2.159695	-2.770738
C	-0.515471	1.161234	0.715348
N	-0.950271	2.093204	1.280675
Cl	3.290686	0.0	0.0
