11

C	-0.453652	-0.016016	-1.454801
C	0.0	0.0	0.0
F	-0.063339	1.164929	-2.057654
H	1.093061	0.0	0.0
H	0.028876	-0.840968	-1.986115
H	-0.359386	0.915997	0.475341
C	-1.918545	-0.131346	-1.596912
N	-3.08422	-0.205379	-1.714524
C	-0.510883	-1.166239	0.708336
N	-0.931929	-2.117805	1.251915
Cl	3.312579	0.0	0.0
