11

C	-0.465407	0.026023	-1.443953
C	0.0	0.0	0.0
F	-1.856672	0.075992	-1.519631
H	1.093591	0.0	0.0
H	-0.078161	0.914303	-1.949078
H	-0.345831	-0.916308	0.485167
C	-0.027992	-1.173756	-2.174867
N	0.262689	-2.130903	-2.787761
C	-0.519556	1.158175	0.717042
N	-0.947165	2.091227	1.286164
Cl	3.289286	0.0	0.0
