11

C	-0.451441	-0.039716	-1.453482
C	0.0	0.0	0.0
F	-0.218304	1.175183	-2.064654
H	1.093361	0.0	0.0
H	0.13681	-0.797103	-1.9792
H	-0.313092	-0.925757	0.493796
C	-1.886853	-0.356116	-1.594409
N	-3.021859	-0.636275	-1.699622
C	-0.56801	1.137706	0.709736
N	-1.05363	2.040029	1.281824
Cl	3.305491	0.0	0.0
