11

C	-0.549565	0.011642	-1.421253
C	0.0	0.0	0.0
F	-0.154699	-1.144513	-2.066965
H	1.092619	0.0	0.0
H	-1.645141	0.014516	-1.412805
H	-0.327502	-0.933097	0.46897
C	-0.111618	1.179973	-2.203896
N	0.154792	2.117746	-2.856477
C	-0.539698	1.126851	0.750503
N	-1.017829	2.030118	1.328567
Cl	3.308636	0.0	0.0
