16

C	0.0	0.0	0.0
C	-0.209207	0.100916	-1.54663
F	1.372589	0.0	0.0
H	0.393841	-0.718434	-1.938993
N	-0.572842	0.986109	0.761095
H	-0.404169	0.803115	1.744794
H	-1.597048	0.93515	0.593139
N	-0.278238	-1.462729	0.481435
O	-0.577911	-1.584185	1.662239
O	-0.062342	-2.369329	-0.31431
C	0.367685	1.373073	-1.978127
N	0.888468	2.352376	-2.361446
N	-1.541979	-0.081982	-2.251966
O	-2.114323	0.928083	-2.633922
O	-1.854075	-1.2426	-2.471297
Cl	-3.454763	0.0	0.0
