16

C	0.0	0.0	0.0
C	-0.532285	0.000115	-1.439652
F	1.345745	0.0	0.0
H	-1.623832	-0.144261	-1.39274
N	-0.517374	1.064547	0.722733
H	-1.54444	1.027858	0.652449
H	-0.236112	0.98142	1.693285
N	-0.321208	-1.390106	0.639232
O	-0.680179	-2.31153	-0.082484
O	-0.132462	-1.44301	1.850314
C	0.147731	-0.953561	-2.302883
N	0.692048	-1.684384	-3.042989
N	-0.270329	1.386669	-1.99401
O	0.885297	1.635959	-2.328277
O	-1.223695	2.150001	-2.050013
Cl	-3.455573	0.0	0.0
