16

C	0.0	0.0	0.0
C	-0.359503	0.153396	-1.508502
F	1.364544	0.0	0.0
H	0.53601	0.659549	-1.877901
N	-0.492492	1.074726	0.728787
H	-1.522851	1.019759	0.679597
H	-0.188271	0.982108	1.692009
N	-0.330425	-1.377665	0.638307
O	-0.795414	-2.282419	-0.037207
O	-0.04125	-1.432427	1.831172
C	-1.468936	1.007971	-1.920419
N	-2.038222	1.858541	-2.499565
N	-0.339834	-1.140492	-2.296966
O	-1.34532	-1.481625	-2.897883
O	0.745496	-1.714209	-2.299564
Cl	-3.310383	0.0	0.0
