13

C	0.0	0.0	0.0
C	-0.250258	-0.10482	-1.527722
Cl	1.792021	0.0	0.0
H	0.383568	-0.915191	-1.899581
H	-0.32812	-0.907004	0.507462
H	0.158996	0.811519	-1.964622
C	-0.569658	1.237251	0.643005
H	-0.275423	1.293898	1.692914
H	-0.21245	2.133023	0.127818
H	-1.660723	1.175614	0.573387
C	-1.550144	-0.314841	-2.175005
N	-2.35767	-0.481014	-3.011275
Br	-3.973598	0.0	0.0
