13

C	0.0	0.0	0.0
C	-0.544784	0.265193	-1.39768
Cl	1.791911	0.0	0.0
H	-0.250038	1.266406	-1.726648
H	-0.301745	-1.000287	0.313145
H	-1.64234	0.231077	-1.31202
C	-0.507884	1.033712	0.984175
H	-1.600332	0.992502	0.988902
H	-0.129539	0.82655	1.987247
H	-0.175554	2.032673	0.687363
C	-0.09964	-0.708557	-2.390664
N	0.264015	-1.477986	-3.198608
Br	-3.897842	0.0	0.0
