14

C	-0.368235	-0.014607	-1.466934
C	0.0	0.0	0.0
F	-1.748992	-0.132343	-1.672833
H	1.096801	0.0	0.0
H	0.107922	-0.871641	-1.952759
C	0.06028	1.217305	-2.1532
N	0.330647	2.198038	-2.73857
C	-0.478047	-1.22671	0.616099
N	-0.850287	-2.214849	1.133739
C	-0.48145	1.238244	0.748294
H	0.004104	2.121777	0.326864
H	-0.177125	1.165465	1.794474
H	-1.566727	1.3613	0.699777
H	2.691752	0.0	0.0
