14

C	-0.373682	-0.013034	-1.465703
C	0.0	0.0	0.0
F	-1.755769	-0.118479	-1.666172
H	1.096802	0.0	0.0
H	0.092163	-0.875061	-1.95182
C	0.066115	1.212681	-2.153436
N	0.357093	2.189344	-2.735892
C	-0.478501	-1.224812	0.618899
N	-0.851006	-2.211995	1.138378
C	-0.474238	1.239951	0.750611
H	-0.15416	1.170313	1.792362
H	-1.559967	1.362082	0.717555
H	0.004827	2.122516	0.320489
H	2.689746	0.0	0.0
