14

C	-0.492401	-0.017088	-1.441898
C	0.0	0.0	0.0
F	-0.110216	1.149486	-2.085982
H	1.09582	0.0	0.0
H	-1.589113	-0.050069	-1.483726
C	0.012909	-1.168005	-2.21363
N	0.318542	-2.087847	-2.875468
C	-0.502165	-1.188246	0.667694
N	-0.919766	-2.145034	1.210481
C	-0.439785	1.274884	0.715884
H	-1.527375	1.405235	0.725577
H	-0.075017	1.246844	1.744548
H	0.026418	2.128263	0.222603
H	2.706328	0.0	0.0
