14

C	-0.492078	-0.015962	-1.441536
C	0.0	0.0	0.0
F	-0.110666	1.151138	-2.085208
H	1.095825	0.0	0.0
H	-1.588599	-0.049108	-1.483584
C	0.01369	-1.16602	-2.213907
N	0.322755	-2.085055	-2.875125
C	-0.502914	-1.187581	0.667824
N	-0.921335	-2.143861	1.211098
C	-0.436016	1.276364	0.716647
H	0.031412	2.128309	0.221549
H	-0.067476	1.246875	1.743552
H	-1.522817	1.410431	0.730536
H	2.705645	0.0	0.0
