14

C	-0.371277	-0.014179	-1.466453
C	0.0	0.0	0.0
F	-1.751978	-0.12783	-1.670246
H	1.096756	0.0	0.0
H	0.101474	-0.872998	-1.952293
C	0.061365	1.215333	-2.153129
N	0.338705	2.196776	-2.734319
C	-0.478035	-1.225866	0.617432
N	-0.850358	-2.213556	1.136008
C	-0.477285	1.238862	0.750232
H	-0.164924	1.1669	1.794182
H	0.005847	2.121799	0.32506
H	-1.56279	1.362069	0.709594
H	2.691481	0.0	0.0
