14

C	-0.35501	0.027537	-1.47632
C	0.0	0.0	0.0
F	-0.151368	-1.210501	-2.059477
H	1.095878	0.0	0.0
H	0.325158	0.738253	-1.961058
C	-1.753137	0.423898	-1.73746
N	-2.860434	0.764836	-1.931873
C	-0.563662	-1.161233	0.65824
N	-1.030437	-2.087961	1.212387
C	-0.391085	1.303224	0.694565
H	-1.471367	1.469454	0.72653
H	0.090638	2.138552	0.176464
H	0.002637	1.28925	1.712635
H	2.676719	0.0	0.0
