16

C	-0.492715	0.024815	-1.449767
C	0.0	0.0	0.0
F	0.110857	-1.037612	-2.129541
H	1.094947	0.0	0.0
N	-1.914866	-0.055783	-1.526418
H	-2.209246	-0.081651	-2.495612
H	-2.225182	-0.903263	-1.062591
C	-0.071454	1.263589	-2.139827
N	0.188561	2.24752	-2.72416
C	-0.489419	-1.235044	0.60751
N	-0.954219	-2.20262	1.08606
C	-0.471375	1.219273	0.796284
H	-0.085446	1.148098	1.814344
H	-1.559787	1.293375	0.819225
H	-0.055234	2.123726	0.348559
Cl	3.297156	0.0	0.0
