16

C	-0.315352	0.022567	-1.508185
C	0.0	0.0	0.0
F	-0.001142	1.29436	-1.958831
H	1.098183	0.0	0.0
N	0.452111	-0.911326	-2.275349
H	1.41847	-0.856519	-1.946965
H	0.115946	-1.853658	-2.118425
C	-1.762903	-0.17658	-1.76613
N	-2.912355	-0.340273	-1.9399
C	-0.45373	-1.279046	0.535798
N	-0.846155	-2.303848	0.955745
C	-0.559291	1.179857	0.784402
H	-1.652249	1.209613	0.743332
H	-0.155835	2.104013	0.372785
H	-0.248115	1.105275	1.827631
Cl	3.292717	0.0	0.0
