12

C	-0.591003	0.046999	-1.401464
C	0.0	0.0	0.0
Br	-0.211262	-1.608265	-2.393074
H	1.097675	0.0	0.0
H	-1.681362	0.111916	-1.366546
H	-0.399142	-0.891284	0.495693
C	-0.102058	1.177813	-2.184307
N	0.259563	2.079858	-2.84307
N	-0.467061	1.239973	0.666032
H	0.374463	1.787206	0.808165
H	-0.816221	1.016646	1.589606
F	2.658306	0.0	0.0
