12

C	-0.354005	0.040721	-1.460485
C	0.0	0.0	0.0
Br	-2.319008	0.207657	-1.805705
H	1.094633	0.0	0.0
H	0.070106	0.941872	-1.901657
H	-0.390041	-0.918329	0.458433
C	0.090035	-1.138933	-2.195707
N	0.419629	-2.089515	-2.801546
N	-0.423304	1.239058	0.646586
H	-1.266468	1.108524	1.189381
H	0.325708	1.511665	1.269903
F	2.62184	0.0	0.0
