12

C	-0.452929	-0.035747	-1.455068
C	0.0	0.0	0.0
Br	-0.051423	1.653482	-2.367544
H	1.092821	0.0	0.0
H	0.129942	-0.798971	-1.972351
H	-0.417824	0.884653	0.496498
C	-1.880732	-0.298696	-1.611594
N	-3.035551	-0.502708	-1.690151
N	-0.411593	-1.277504	0.590633
H	-1.205499	-1.176844	1.208827
H	0.378879	-1.622359	1.120032
F	2.659742	0.0	0.0
