12

C	-0.588796	-0.011219	-1.401987
C	0.0	0.0	0.0
Br	0.21693	-1.42662	-2.507191
H	1.098629	0.0	0.0
H	-1.647092	-0.27976	-1.370154
H	-0.377717	0.910032	0.484769
C	-0.436835	1.259405	-2.101942
N	-0.362709	2.304908	-2.634108
N	-0.49479	-1.202626	0.708468
H	-0.722137	-0.93759	1.66161
H	0.316661	-1.812689	0.78317
F	2.6605	0.0	0.0
