12

C	-0.366141	-0.072178	-1.456485
C	0.0	0.0	0.0
Br	-2.314154	0.27635	-1.809112
H	1.09506	0.0	0.0
H	0.146709	0.714854	-2.011118
H	-0.337877	0.970853	0.386305
C	-0.068461	-1.364934	-2.059221
N	0.164484	-2.406196	-2.548137
N	-0.501813	-1.148533	0.741726
H	0.252047	-1.479502	1.329351
H	-1.28866	-0.906284	1.329337
F	2.626272	0.0	0.0
