12

C	-0.249153	0.022013	-1.492728
C	0.0	0.0	0.0
Br	-2.179916	0.268379	-2.014134
H	1.095116	0.0	0.0
H	0.248595	0.887361	-1.931792
H	-0.407897	-0.917015	0.435792
C	0.203161	-1.187626	-2.169116
N	0.540915	-2.166295	-2.724014
N	-0.465392	1.174421	0.714721
H	0.192499	1.926669	0.549878
H	-1.386264	1.464641	0.399747
F	2.611028	0.0	0.0
