12

C	-0.58734	0.057389	-1.403389
C	0.0	0.0	0.0
Br	-0.198032	-1.586705	-2.402722
H	1.097673	0.0	0.0
H	-1.676114	0.120154	-1.371795
H	-0.399941	-0.896283	0.484779
C	-0.103792	1.192741	-2.180957
N	0.200367	2.125792	-2.823912
N	-0.48128	1.226432	0.677699
H	0.344105	1.803698	0.792755
H	-0.791625	0.992785	1.611135
F	2.664707	0.0	0.0
