16

C	0.0	0.0	0.0
C	-0.322837	0.133718	-1.546672
Cl	1.780573	0.0	0.0
H	0.20358	1.014651	-1.915652
C	-0.401195	1.285964	0.595379
N	-0.641565	2.344059	1.04398
N	-0.589818	-1.069299	0.727414
H	-0.495702	-1.927863	0.196811
H	-1.584025	-0.860927	0.852589
N	-1.673365	0.149971	-1.957664
H	-2.063328	1.078695	-1.872996
H	-2.287357	-0.43947	-1.396505
N	0.347104	-1.01578	-2.268876
O	1.116055	-0.746428	-3.186938
O	0.039937	-2.153846	-1.914848
Cl	-4.037592	0.0	0.0
