16

C	0.0	0.0	0.0
C	-0.413767	0.009812	-1.491581
Cl	1.837411	0.0	0.0
H	0.075988	0.854737	-1.977571
C	-0.363803	1.309183	0.556856
N	-0.594397	2.370878	1.002812
N	-0.609488	-1.020365	0.722323
H	-0.534827	-0.949756	1.72408
H	-0.445461	-1.941869	0.346828
N	-1.789709	-0.039125	-1.709042
H	-2.162932	0.769006	-2.17956
H	-2.415234	-0.287534	-0.934185
N	0.260519	-1.195246	-2.1814
O	0.810061	-0.97646	-3.256478
O	0.141139	-2.303309	-1.661537
Cl	-4.423416	0.0	0.0
