16

C	0.0	0.0	0.0
C	-0.477591	-0.056833	-1.468026
Cl	1.838069	0.0	0.0
H	-1.561269	0.113166	-1.403818
C	-0.355749	1.258645	0.670041
N	-0.554342	2.249358	1.268338
N	-0.487152	-1.097635	0.764484
H	-1.492812	-0.922653	0.890077
H	-0.397229	-1.921798	0.175345
N	-0.177698	-1.323523	-2.037102
H	0.760229	-1.322572	-2.420152
H	-0.838201	-1.540451	-2.771477
N	0.100829	1.099232	-2.270686
O	0.903197	0.835925	-3.167629
O	-0.274146	2.226755	-1.965988
Cl	-3.471963	0.0	0.0
