16

C	0.0	0.0	0.0
C	-0.387111	0.135962	-1.500681
Cl	1.839512	0.0	0.0
H	0.125291	1.007868	-1.907883
C	-0.351304	1.274291	0.642723
N	-0.569669	2.303724	1.164204
N	-0.636119	-1.048703	0.630564
H	-0.801346	-1.000625	1.618636
H	-0.558802	-1.955666	0.204
N	-1.759949	0.138489	-1.762343
H	-2.391106	-0.234934	-1.044106
H	-2.115352	1.032093	-2.062379
N	0.263182	-1.023533	-2.271663
O	0.826181	-0.741535	-3.324819
O	0.11505	-2.16377	-1.832403
Cl	-4.355439	0.0	0.0
