16

C	0.0	0.0	0.0
C	-0.495272	0.106255	-1.462131
Cl	1.799481	0.0	0.0
H	-1.590781	0.108364	-1.383052
C	-0.403635	1.153195	0.818446
N	-0.643754	2.063258	1.520365
N	-0.478923	-1.193589	0.641332
H	-0.290884	-1.981503	0.030384
H	-1.49829	-1.075666	0.706524
N	-0.045616	-0.940564	-2.315312
H	-0.733067	-1.66764	-2.426163
H	0.861036	-1.303846	-2.057691
N	-0.166775	1.437962	-2.124851
O	-0.634646	1.592276	-3.246992
O	0.506147	2.266961	-1.514484
Cl	-3.457389	0.0	0.0
