16

C	0.0	0.0	0.0
C	-0.507865	-0.112867	-1.466726
Cl	1.781579	0.0	0.0
H	-1.590821	0.042595	-1.404051
C	-0.372092	1.289693	0.615529
N	-0.612543	2.303095	1.160591
N	-0.516567	-1.146673	0.694334
H	-0.218003	-1.107679	1.664527
H	-1.542761	-1.026431	0.670125
N	-0.196754	-1.338408	-2.126105
H	-0.640978	-2.087062	-1.604544
H	0.806905	-1.490341	-2.110704
N	0.052836	1.024276	-2.270054
O	-0.484088	2.12066	-2.126849
O	1.019432	0.79304	-2.994877
Cl	-3.469231	0.0	0.0
