14

C	0.0	0.0	0.0
C	-0.501489	-0.235723	-1.416055
F	1.393576	0.0	0.0
H	0.260886	-0.842449	-1.917821
H	-0.322071	0.983949	0.349676
H	-1.435573	-0.803943	-1.364427
C	-0.440046	-1.091946	0.951286
H	-0.027977	-0.912632	1.947685
H	-0.05821	-2.054355	0.592031
H	-1.528144	-1.127855	1.002216
N	-0.662125	1.034278	-2.135259
H	-0.782762	0.830367	-3.122319
H	-1.552037	1.416292	-1.824917
Br	-3.956308	0.0	0.0
