14

C	0.0	0.0	0.0
C	-0.38298	-0.290011	-1.455705
F	1.399758	0.0	0.0
H	0.281611	0.329013	-2.070409
H	-0.316535	1.013573	0.272508
H	-0.10865	-1.33261	-1.661522
C	-0.528439	-1.003171	0.993165
H	-0.194048	-2.00895	0.720056
H	-1.621607	-0.970527	0.985719
H	-0.177458	-0.776146	2.003108
N	-1.747849	-0.067573	-1.885463
H	-2.430689	-0.575791	-1.330849
H	-2.008015	0.902126	-1.752327
Br	-4.595156	0.0	0.0
