15

C	0.0	0.0	0.0
C	-0.514317	-0.257197	-1.403212
F	1.41494	0.0	0.0
H	-1.591458	-0.434278	-1.296906
H	-0.029015	-1.166682	-1.772357
N	-0.495455	1.20113	0.534604
H	-0.315673	1.306423	1.520685
H	-0.211598	2.008858	0.002741
C	-0.347464	-1.122047	0.90227
N	-0.49158	-2.046614	1.61105
C	-0.262905	0.913362	-2.346
H	-0.906564	1.757083	-2.08861
H	0.782419	1.232711	-2.327584
H	-0.509922	0.627632	-3.37041
Cl	-3.951554	0.0	0.0
