15

C	0.0	0.0	0.0
C	-0.470145	-0.151116	-1.438454
F	1.387682	0.0	0.0
H	0.027644	-1.040446	-1.838039
H	-1.545878	-0.33495	-1.410279
N	-0.499995	1.194902	0.591655
H	-1.518164	1.167044	0.465717
H	-0.322164	1.180747	1.590093
C	-0.323136	-1.240307	0.771842
N	-0.494591	-2.234088	1.37423
C	-0.141648	1.076194	-2.281081
H	-0.724546	1.936095	-1.953248
H	0.91759	1.331787	-2.208021
H	-0.379522	0.879931	-3.329904
Cl	-3.609933	0.0	0.0
