15

C	0.0	0.0	0.0
C	-0.398115	0.346056	-1.435543
F	1.38621	0.0	0.0
H	-0.299962	1.435142	-1.507498
H	0.389516	-0.087475	-2.059032
N	-0.522959	0.936657	0.935842
H	-1.505115	1.098091	0.719061
H	-0.477118	0.569879	1.879349
C	-0.331622	-1.418619	0.326983
N	-0.52842	-2.535836	0.631353
C	-1.762923	-0.133557	-1.904094
H	-1.933303	0.220202	-2.925005
H	-2.598117	0.200648	-1.286473
H	-1.808843	-1.225423	-1.915628
Cl	-4.608083	0.0	0.0
