16
Coordinates from ORCA-job run
  C   0.76061369270850     -0.20406508908422     -0.78721523264035
  C   -0.65691778049794      0.28885381195842     -0.47267639347329
  F   0.60625896693684     -1.36776488788814     -1.54046502466840
  H   -1.14204814846613      0.50867080983545     -1.42640402066195
  H   1.24517421227856      0.53149711471924     -1.43425908396554
  C   1.61172824497238     -0.51009700389782      0.42128170372047
  H   1.73599977956107      0.37341318641888      1.05048956806404
  H   2.59892969381389     -0.83844265182662      0.09255456939879
  H   1.16799302234822     -1.30782750633478      1.01747875626761
  N   -0.49949279782942      1.62720231095280      0.19041098821500
  O   -0.13039622604477      2.54794678523622     -0.53743224851228
  O   -0.69720375664536      1.71130402414902      1.40038556691394
  C   -1.48910857999391     -0.66023202281365      0.35780733256623
  H   -1.06626927098279     -0.81146902102132      1.34887740398581
  H   -2.50123615525768     -0.27208962473389      0.48005248916176
  H   -1.54302489690145     -1.61790023566959     -0.16188637437184
