16
Coordinates from ORCA-job run
  C   0.97404507670335      0.24079501817931      0.06122589986861
  C   -0.47371496567326      0.28473548801990     -0.38549764064965
  F   1.68794798427163      1.08732627976310     -0.78784307206521
  H   -0.53410891543106      0.03181187652992     -1.44558692758543
  H   1.05426484925919      0.66227949185893      1.06670605085065
  C   1.58085366825458     -1.14069651781146     -0.01601722496568
  H   1.14538222967475     -1.80939065759877      0.72794512639790
  H   2.65241860269220     -1.06899391924481      0.17544915912124
  H   1.43791593408719     -1.56898489541493     -1.01072502409211
  N   -0.94101329503570      1.70990691288367     -0.30764343819013
  O   -1.40701618318417      2.20902548394543     -1.32786016626191
  O   -0.84758845107914      2.26191026349111      0.78630501589515
  C   -1.40468352834233     -0.56598366961395      0.46042146987116
  H   -1.19574456570546     -1.62522946526093      0.30727980866635
  H   -1.28711745878426     -0.32601867478639      1.51852308082826
  H   -2.44284098170750     -0.38349301494013      0.17631788231079
