16
Coordinates from ORCA-job run
  C   0.96115366943548      0.24098473384920     -0.17068172806655
  C   -0.54692581845731      0.22607925540446     -0.32234015813701
  F   1.47294777387505      0.94285195702900     -1.26292822136583
  H   -0.80865939722205     -0.18566399986807     -1.29877987781092
  H   1.22886391183517      0.81058448523138      0.72315247962895
  C   1.57280556137425     -1.14043338807380     -0.15668105287797
  H   2.65883581468685     -1.04828950980858     -0.20246545598683
  H   1.31460290034767     -1.68017794249775      0.75566241916890
  H   1.24068969707542     -1.71889266808345     -1.02176875882846
  N   -1.02360656700253      1.64916843550426     -0.36941698502261
  O   -1.69497031969157      1.98957161411855     -1.33916611369753
  O   -0.72821717433657      2.36171098689098      0.58720451766709
  C   -1.27242452354536     -0.47935683181740      0.80999335843304
  H   -0.95809131881773     -0.07720468121399      1.77458362200007
  H   -1.06849772333855     -1.55024492204317      0.78371251918885
  H   -2.35050648621822     -0.33968752462163      0.70991943570682
