16
Coordinates from ORCA-job run
  C   0.64667533849950     -0.73939384382977     -0.11767767674713
  C   -0.56920381657555      0.15586662719181     -0.34737043358216
  F   0.51652726930766     -1.39037977639419      1.10429228089458
  H   -0.54029914383168      0.50488528888696     -1.38162761166998
  H   0.61283894179639     -1.51570745296526     -0.89105451095365
  C   1.97366928078684     -0.01684278871274     -0.13936514096866
  H   2.04113870438683      0.66885399769224      0.70666051401777
  H   2.09535925266773      0.55442194920380     -1.06146221824956
  H   2.78493069775996     -0.74130791405792     -0.05898720796223
  N   -0.41151771631729      1.40396437393833      0.46811474466592
  O   -0.68375468865129      1.33800183068023      1.66415784231973
  O   0.02881670536665      2.39593421896515     -0.11292305265112
  C   -1.88116213245351     -0.52520528684885     -0.01560002902605
  H   -2.72169518663312      0.14419651082694     -0.20693846687636
  H   -1.99711243571507     -1.41339629203054     -0.64079383923954
  H   -1.89521107039404     -0.82489144254616      1.02957480602845
