16
Coordinates from ORCA-job run
  C   0.75101164423527     -0.19763344144164     -0.79749644256424
  C   -0.66346230045670      0.28977046391824     -0.46334744761587
  F   0.58978872523861     -1.35494721486211     -1.55982606472233
  H   -1.16254926438432      0.50952796265912     -1.40979142297780
  H   1.22742303093149      0.54420750459161     -1.44360538389508
  C   1.61603535973847     -0.51455971540102      0.39819947977857
  H   1.18201451329350     -1.32265299064127      0.98761094882763
  H   1.74159182931694      0.36088650624862      1.03827491554221
  H   2.60140414164316     -0.83352317403378      0.05509546993290
  N   -0.50186505689428      1.62863928083848      0.19871621630196
  O   -0.15140455849233      2.55237357740100     -0.53438139552849
  O   -0.67725045684922      1.70926600251700      1.41240279215817
  C   -1.48080784379499     -0.66233367836251      0.37856251090718
  H   -1.53457989451992     -1.62246556891612     -0.13660736625657
  H   -2.49399865952901     -0.27992656362360      0.51001195190648
  H   -1.04535120947668     -0.80662895089203      1.36518123820528
