15

C	-0.551683	-0.055582	-1.423021
C	0.0	0.0	0.0
Cl	0.224538	-1.296636	-2.393887
H	1.095062	0.0	0.0
H	-1.627247	-0.228405	-1.434547
N	-0.389861	1.299434	-2.072354
O	0.711484	1.62682	-2.485842
O	-1.407909	1.994469	-2.071442
C	-0.475241	-1.197471	0.689467
N	-0.891837	-2.129489	1.271078
C	-0.452205	1.257305	0.751587
H	-1.538138	1.380878	0.745526
H	0.015688	2.136486	0.306187
H	-0.102453	1.187601	1.782464
Br	3.444636	0.0	0.0
