15

C	-0.409131	-0.030718	-1.469567
C	0.0	0.0	0.0
Cl	0.235579	1.337553	-2.364474
H	1.095919	0.0	0.0
H	-0.06426	-0.945899	-1.946334
N	-1.917009	-0.058301	-1.594393
O	-2.536117	0.995238	-1.489008
O	-2.413055	-1.176548	-1.731297
C	-0.458366	-1.228868	0.644455
N	-0.820764	-2.208427	1.182918
C	-0.468855	1.229514	0.778768
H	-0.015662	1.194658	1.770926
H	-1.554882	1.270566	0.880222
H	-0.119871	2.134944	0.282573
Br	3.416799	0.0	0.0
