15

C	-0.501567	-0.005298	-1.442378
C	0.0	0.0	0.0
Cl	0.226213	-1.288826	-2.399655
H	1.095019	0.0	0.0
H	-1.584976	-0.097773	-1.506235
N	-0.201044	1.334379	-2.070761
O	-1.181354	2.062402	-2.247823
O	0.96534	1.614807	-2.302391
C	-0.490473	-1.217731	0.638296
N	-0.91444	-2.170784	1.178932
C	-0.484146	1.239108	0.758556
H	-0.006112	2.130131	0.348886
H	-0.181287	1.154704	1.802939
H	-1.57074	1.354736	0.708929
Br	3.447571	0.0	0.0
