15

C	-0.39471	0.102249	-1.456519
C	0.0	0.0	0.0
Cl	-2.151184	0.25331	-1.711807
H	1.095652	0.0	0.0
H	0.085557	0.967786	-1.90708
N	0.078774	-1.072325	-2.272948
O	-0.289803	-2.186294	-1.924062
O	0.781641	-0.804557	-3.241855
C	-0.538658	-1.168891	0.683015
N	-0.988615	-2.044707	1.323518
C	-0.390669	1.275599	0.756858
H	0.025125	2.14452	0.241064
H	-1.472496	1.386496	0.850245
H	0.055817	1.237549	1.751485
Br	3.395876	0.0	0.0
