15

C	-0.392368	-0.10208	-1.470515
C	0.0	0.0	0.0
Cl	0.210072	1.255177	-2.412523
H	1.095953	0.0	0.0
H	-0.001839	-1.019248	-1.905696
N	-1.893701	-0.195537	-1.61819
O	-2.340496	-1.330465	-1.783751
O	-2.557342	0.829812	-1.505213
C	-0.456258	-1.205073	0.6898
N	-0.817716	-2.164851	1.26287
C	-0.477943	1.256944	0.725416
H	-0.037479	1.258708	1.723748
H	-0.121504	2.14289	0.200515
H	-1.564883	1.301099	0.810337
Br	3.416088	0.0	0.0
