15

C	-0.532873	-0.017058	-1.429423
C	0.0	0.0	0.0
Cl	0.218832	-1.267481	-2.411596
H	1.095059	0.0	0.0
H	-1.612285	-0.155091	-1.462528
N	-0.309253	1.336667	-2.055131
O	0.831025	1.657511	-2.353391
O	-1.319926	2.035923	-2.160135
C	-0.484393	-1.210636	0.658163
N	-0.908569	-2.152739	1.217447
C	-0.464772	1.244572	0.765155
H	-0.141335	1.157916	1.802977
H	0.014471	2.130205	0.345285
H	-1.550593	1.369459	0.735542
Br	3.456594	0.0	0.0
