14
Coordinates from ORCA-job run
  C   -0.87316927527398      0.18814869678574      0.16278782778668
  C   0.60792215522325      0.62179335367939     -0.07218033066208
  Cl  -1.79193695323888      1.73557481469009      0.11776242027511
  H   0.87287165996745      1.35085598554309      0.69612682510526
  N   -1.11134428449270     -0.47198838162690      1.39989744521990
  H   -0.88739160130173     -1.45786036495748      1.36900625491208
  H   -0.65851624999889     -0.01747825019577      2.18238613929688
  C   -1.33495168792809     -0.66268152856940     -0.93680076778983
  N   -1.71946233264827     -1.36341403491733     -1.79817643413856
  C   0.84938370472643      1.14628050019549     -1.40538640660233
  N   1.03695376175078      1.58431919297414     -2.47913710117781
  N   1.47783681354981     -0.58452453078629      0.18077547115946
  O   1.95653360175588     -0.66437550156966      1.30861337289557
  O   1.57427068790890     -1.40364995124511     -0.72567471628033
