14
Coordinates from ORCA-job run
  C   -0.76477897501864      0.20460007185039      0.30738392841491
  C   0.62341685866576      0.56098708314043     -0.28536719564384
  Cl  -1.14758738417684      1.33590606898422      1.63401072502853
  H   0.66095197183469      1.63157079346834     -0.49529833146634
  N   -0.73761371753875     -1.12383842998535      0.83804071016122
  H   -0.46983396438711     -1.80097249475271      0.13088835674830
  H   -1.63954126885880     -1.37408351802653      1.22534294918823
  C   -1.76164935445299      0.44007270632234     -0.75581671199033
  N   -2.56287495304433      0.56358552635795     -1.60825562004915
  C   0.87633232618209     -0.22732243623334     -1.48437065653624
  N   1.04054097075308     -0.86583888011989     -2.45704121811834
  N   1.70624894986611      0.28084311978992      0.73687515891278
  O   2.18008041774813     -0.84723960897356      0.74823429813269
  O   1.99630812242760      1.22072999817779      1.46637360721759
