14
Coordinates from ORCA-job run
  C   -0.70860864728101     -0.20727808330215      0.13510567371237
  C   0.79409904347062      0.15063468326381      0.03018889964592
  Cl  -1.50338450393640      0.27705182387263     -1.43291104262657
  H   1.30230901190761     -0.30810292208979      0.88274165629982
  N   -1.22502168251665      0.44647833470513      1.28465404284242
  H   -1.23648772904252      1.45391637528335      1.16803330833202
  H   -2.15604092022799      0.11948644317568      1.51210256904586
  C   -0.89520172610300     -1.65246221972024      0.28912233378080
  N   -1.11214866193328     -2.79343004049427      0.46636587930296
  C   0.97417151193153      1.59439170732578      0.04161924473805
  N   1.07813442348515      2.76197151635424      0.11552783789834
  N   1.41675250196493     -0.45759235267371     -1.20752414527504
  O   1.52219741494813     -1.67795860755986     -1.17261303713106
  O   1.74922996333288      0.29389334185939     -2.11341322056589
