14
Coordinates from ORCA-job run
  C   -0.81132938722823      0.18708445622888      0.19354107968700
  C   0.65836877882349      0.59584146840049     -0.01103458172214
  Cl  -1.72304582358560      1.72639824940386      0.20044954691964
  H   0.92554220639257      1.27392615959457      0.80294017276175
  N   -0.94856185149912     -0.41902737729743      1.49471102697969
  H   -1.91789536599362     -0.38801180822756      1.78811471561010
  H   -0.65040530299939     -1.38730235827164      1.44896578459376
  C   -1.31196320495700     -0.61673865195933     -0.93245366001387
  N   -1.74243979391524     -1.28566233651035     -1.79825719523818
  C   0.90934989839240      1.21131936150995     -1.30781933506587
  N   1.11170965973920      1.70287472831890     -2.35540948804965
  N   1.60235923192850     -0.58843198812651      0.12786700423088
  O   1.11820202380465     -1.71444999590565      0.08538676953737
  O   2.78110893109736     -0.29681990715816      0.26099815976952
