14
Coordinates from ORCA-job run
  C   -0.81392076824022     -0.14344549254912     -0.00438613197583
  C   0.72979242666872      0.09821087438962      0.06349216539885
  Cl  -1.37758526084961      0.42117038519367     -1.60209122635994
  H   1.10580467411176     -0.38896131571222      0.96827987500117
  N   -1.54362309081695      0.55666641961607      1.00854024991184
  H   -1.36087797782010      0.18911025874604      1.93429458513212
  H   -1.38268883198787      1.55640432698899      0.97044287928491
  C   -1.09157262272991     -1.57729608423168      0.13428992210522
  N   -1.33871126857974     -2.71273216953980      0.30718396974414
  C   1.01074551321758      1.52466476351063      0.09874026538399
  N   1.19027251108565      2.68195976858060      0.18945784806479
  N   1.45784396466818     -0.56611101941598     -1.08430572754746
  O   1.87226066593563      0.14546072808085     -1.98935960202911
  O   1.54226006533691     -1.78610144365766     -0.99457907211469
