13
Coordinates from ORCA-job run
  C   -0.52002306193371     -0.13709053058432     -0.61634154762705
  C   0.74736460893202     -0.71181626988700     -0.01788449687087
  F   -1.14361126465879     -1.05311527969772     -1.41565661570873
  H   1.43675528651856     -0.89178448509593     -0.84643274612887
  H   0.49022024225340     -1.67564707981472      0.42887357428673
  C   -0.27281095392265      1.09560552757410     -1.36705024786872
  N   -0.01924125568779      2.03339806597536     -2.02619534401156
  N   -1.52090088772964      0.16623546313050      0.50182933968725
  O   -2.32872936725288      1.06235492143066      0.29452215223948
  O   -1.47463768284709     -0.57329861908503      1.47854251845384
  N   1.27102316903055      0.26889637229346      0.91273001118264
  H   2.26384790968742      0.40587063691129      0.80281826921821
  H   1.07174325761061      0.01139127684936      1.86824513314766
