13
Coordinates from ORCA-job run
  C   -0.52338930310533     -0.18582991213770     -0.61780469715964
  C   0.73485874182114     -0.69997286248621      0.05888386070525
  F   -1.05235842199498     -1.14539918607833     -1.42703699538106
  H   0.44124529478018     -1.60607649002862      0.59152442186257
  H   1.44166504096432     -0.97864852698067     -0.73236075842799
  C   -0.27945697712492      1.03933056438369     -1.38307650290814
  N   0.00819478773283      1.97024137300596     -2.03861452059765
  N   -1.56288895136571      0.09745551948624      0.46647056306591
  O   -1.87420920126484     -0.87983983868432      1.13345952637182
  O   -1.98815466022784      1.23879325535336      0.57408913663756
  N   1.19161761026621      0.31622890998911      0.98465025299334
  H   1.57945368508598     -0.09039587801075      1.82245748725564
  H   1.88242235443294      0.92411307218825      0.56735822558240
