13
Coordinates from ORCA-job run
  C   -0.45462404511384     -0.02870499837365     -0.50006638388360
  C   0.57503183758930     -0.36656863854943      0.57581597562443
  F   -0.32131910529462     -0.84265357669944     -1.57033334136378
  H   0.42191522839368     -1.41942465561084      0.82689681579560
  H   0.32364657531741      0.23715291146533      1.45584319520560
  C   -0.39413570156971      1.37624888918866     -0.90201552114107
  N   -0.33600074510015      2.51987431912601     -1.16272937668572
  N   -1.84508282493598     -0.31247367649736      0.10530730523329
  O   -2.50287892555805      0.64600103966029      0.48924888350725
  O   -2.19749125166045     -1.48229865633539      0.04890963098599
  N   1.89154483217104     -0.08958454435370      0.05969804776183
  H   2.35171352167281      0.66410675472600      0.54318250123487
  H   2.48668060408856     -0.90067516774647      0.03124226772532
