13
Coordinates from ORCA-job run
  C   -0.37945250519267     -0.03489854558567     -0.62354751676216
  C   0.91514079635605      0.22787898010635      0.12728985603610
  F   -0.30609249312572     -1.22328103070681     -1.27325403573766
  H   0.82249496474244      1.19735229851977      0.61777446678960
  H   1.71114063957792      0.29547778332254     -0.62712470097716
  C   -0.72523623571939      1.03176727797423     -1.56701693513050
  N   -0.95377135061015      1.89535669174453     -2.32941900859157
  N   -1.50740181873723     -0.13042549724398      0.40717978331150
  O   -2.09436221351052     -1.19146859676277      0.50456942198871
  O   -1.68730088236200      0.89800859644641      1.04477465636024
  N   1.07261986047709     -0.81670368086536      1.11755399107235
  H   1.48637301425424     -1.64605660294486      0.71568778560698
  H   1.64684822384993     -0.50400767400436      1.88653223603359
