13
Coordinates from ORCA-job run
  C   -0.44554965913922     -0.05436304286108     -0.47098319361541
  C   0.58000642542752     -0.24077079734745      0.63619866430355
  F   -0.21470783544967     -0.94782611215037     -1.46386038457585
  H   0.43432010953377     -1.25755429793249      1.02921018418202
  H   0.34906909282189      0.47132443955202      1.42946957449009
  C   -0.46817059236970      1.30467993215078     -1.01425082190257
  N   -0.49099060221498      2.39555321647885     -1.44762104763333
  N   -1.82971004140096     -0.35043460520903      0.11378058415820
  O   -2.39336792096411     -1.36633002442795     -0.25859861200483
  O   -2.21016185693765      0.45972839362122      0.94972274552554
  N   1.88791773544302      0.02951004045959      0.07906215055624
  H   2.27125699982708     -0.78932845289108     -0.37114324898237
  H   2.53108814542302      0.34481131055699      0.79001340549869
