13
Coordinates from ORCA-job run
  C   -0.43603439540623      0.04145005587049     -0.48233946179040
  C   0.57474013897743     -0.36254557326734      0.57956108321169
  F   -0.16548792277592     -0.60587018299971     -1.64178935173604
  H   0.31114329951726      0.15092613382388      1.50514116211489
  H   0.44941322299974     -1.44411205224360      0.73450679074390
  C   -0.48452167013284      1.48601408277680     -0.71292006444507
  N   -0.52758045860268      2.64504584765669     -0.89464983619021
  N   -1.82166240614770     -0.40616329861183     -0.00758652331051
  O   -2.35143350203193     -1.32795727458365     -0.60634116580564
  O   -2.23760029776700      0.19081767833795      0.97753017518718
  N   1.88472297693441      0.05308225598119      0.12620075225977
  H   2.50593525721350      0.21772203059798      0.90452372803608
  H   2.29836575722197     -0.63840970333884     -0.48283728827564
