15
Coordinates from ORCA-job run
  C   0.72822427186741     -0.01927595411083     -0.38567982661378
  C   -0.64465678242146     -0.69367142094256     -0.14517292092156
  H   0.85492813762672      0.03930249418973     -1.47439557367265
  H   -0.56963960456958     -1.74333820471626     -0.46622589051033
  C   1.79226254956402     -0.88150650926599      0.13336566447670
  N   2.63788751563380     -1.57298371743700      0.56411085538833
  C   0.80489850439355      1.38685838632304      0.20979882535151
  H   0.75839445834463      1.34552986416260      1.29952278380822
  H   -0.03296607625863      1.97726898905570     -0.15997314657940
  H   1.74102515048027      1.86852769366576     -0.07711034448403
  N   -1.67282418184288      0.06461971075464     -0.85605406054617
  H   -2.59439845888848     -0.19176711920601     -0.52290590039076
  H   -1.62818149209412     -0.16116559804101     -1.84331197961844
  C   -0.95457518703501     -0.70534286743594      1.28922016709145
  N   -1.21937880480023     -0.71305574699588      2.43281134722091
