15
Coordinates from ORCA-job run
  C   0.75555957011365     -0.10326157948573     -0.26452366943201
  C   -0.76089151011176     -0.39493414004472     -0.32905327461956
  H   1.26266204769425     -0.78136444534352     -0.96028214667612
  H   -1.10603181170947     -0.07870490707484     -1.31939858690392
  C   1.23414303213573     -0.40972414652132      1.08651442609556
  N   1.57750438432358     -0.62979905618146      2.18783413103120
  C   1.05794734523525      1.34945155859695     -0.63816019795507
  H   2.12746646520711      1.55073281350203     -0.55960534255840
  H   0.74703084172274      1.53545059954407     -1.66910538311530
  H   0.51479991407642      2.02520295340388      0.02071849643756
  N   -1.46419525564383      0.39987873409210      0.66446865216672
  H   -1.27297498906103      0.04202395004868      1.59445724939531
  H   -2.46406222255725      0.34654010218027      0.51271030155137
  C   -0.99808073121813     -1.85015944840858     -0.22028870534113
  N   -1.20987708020727     -3.00033298830782     -0.10628595007623
