15
Coordinates from ORCA-job run
  C   0.80276067368027     -0.04447577034665      0.06947281626495
  C   -0.55206987367472     -0.59302778990900     -0.43280379205930
  H   1.57370872925715     -0.79365340469367     -0.14374456519463
  H   -0.49823524532681     -0.62746031416845     -1.52638134736092
  C   0.73098227592827      0.12068829594672      1.52401705799275
  N   0.62807432949923      0.27651148441326      2.68348290987419
  C   1.15545125785876      1.27702651308200     -0.61658779451348
  H   1.26421480846113      1.11485510789052     -1.69176818877303
  H   0.36510259964529      2.00700818299582     -0.44874445463303
  H   2.09748947212530      1.66969022638507     -0.23067980929938
  N   -1.62525963895789      0.31688531265911     -0.06650209992071
  H   -1.79685075163771      0.26781021883522      0.93231775560078
  H   -2.48194685955299      0.05725552552132     -0.54004634130140
  C   -0.74142781439387     -1.97876594663617      0.04593974704279
  N   -0.92099396291142     -3.07034764197510      0.44202810628044
