15
Coordinates from ORCA-job run
  C   0.50967427194443      0.37503170256004     -0.31696688174444
  C   -0.71390756085282     -0.47860234731726      0.08554145394722
  H   0.16171388096963      1.08797965763991     -1.07216153213759
  H   -0.38507869070277     -1.19270269521376      0.85808105838448
  C   1.48006122257102     -0.51846653954799     -0.95426492360342
  N   2.23908431642577     -1.27335372271038     -1.43733929728675
  C   1.14022524213806      1.10799628713755      0.86873596721083
  H   1.45335206025176      0.40038576442580      1.63974063000205
  H   2.01740634589253      1.67018790506389      0.54521248437752
  H   0.42300865870137      1.80719151398616      1.30213176755964
  N   -1.28677157657433     -1.10197704115923     -1.10255246143916
  H   -0.64393064385112     -1.80276472791766     -1.45503301452995
  H   -2.15524545773897     -1.56838929532617     -0.86885895200353
  C   -1.71973832882811      0.39510264893246      0.70217918326527
  N   -2.52085374034644      1.09138088944665      1.20355451799781
