15

C	-0.499799	0.011191	-1.428478
C	0.0	0.0	0.0
F	-0.123428	-1.190076	-2.047156
H	1.094285	0.0	0.0
H	-0.001336	0.812578	-1.987664
H	-0.338667	-0.93154	0.468835
C	-2.005488	0.122458	-1.575589
H	-2.284981	-0.005232	-2.62417
H	-2.369412	1.094422	-1.235497
H	-2.494983	-0.661323	-0.989631
C	-0.478679	1.210356	0.799905
H	0.033749	1.241803	1.763292
H	-1.556648	1.197469	0.986954
H	-0.233384	2.140973	0.277871
Br	3.826902	0.0	0.0
