15

C	-0.405727	0.030856	-1.456529
C	0.0	0.0	0.0
F	-1.818056	0.000861	-1.570995
H	1.095872	0.0	0.0
H	-0.05225	-0.884184	-1.943178
H	-0.3388	-0.946761	0.434222
C	0.106049	1.23728	-2.21092
H	-0.14696	1.161364	-3.271524
H	1.191901	1.292435	-2.099718
H	-0.339201	2.153439	-1.8183
C	-0.528389	1.172881	0.818864
H	-0.067692	2.113152	0.509411
H	-1.613722	1.268222	0.725466
H	-0.284256	1.031418	1.874339
Br	3.749916	0.0	0.0
