20

C	-0.158405	0.035498	-1.529858
C	0.0	0.0	0.0
F	-0.070052	-1.332769	-1.994714
H	1.099694	0.0	0.0
C	-1.487712	0.508258	-2.090721
H	-2.307448	-0.100669	-1.69949
H	-1.658178	1.55455	-1.835126
H	-1.479807	0.409987	-3.18112
N	0.935653	0.791108	-2.028542
H	1.788303	0.539198	-1.489128
H	1.060855	0.622194	-3.019371
C	-0.604073	-1.22289	0.660318
H	-0.165102	-2.135345	0.258081
H	-0.403155	-1.194862	1.736741
H	-1.694312	-1.27408	0.526681
C	-0.478925	1.297049	0.636887
H	-0.047596	2.154078	0.114794
H	-1.574026	1.393245	0.633995
H	-0.142041	1.339719	1.67792
F	2.780055	0.0	0.0
