9
Coordinates from ORCA-job run
  C   0.80058707335543     -0.24391193686855      0.19116357616383
  C   -0.51632910867699      0.04874470641926      0.30261909252652
  H   1.50528167409818      0.00309856626187      0.97945329146427
  H   -1.19415285964070     -0.22034727572345     -0.50300235642982
  C   1.30527329186174     -0.90056483819788     -0.96460469807567
  N   1.73237923153285     -1.43619247127246     -1.92114207774197
  N   -1.12357244444859      0.60218734777883      1.40118176086153
  H   -1.98770169292738      1.08916519753073      1.23555204167441
  H   -0.52176516515455      1.05782070407166      2.06877936955690
