9
Coordinates from ORCA-job run
  C   0.78581964542847     -0.06550687025130      0.00562809360297
  C   -0.49023225138875     -0.08392686909565      0.45703743179659
  H   1.52444433989858      0.61374911950331      0.42111846228556
  H   -1.20155187069561     -0.78223793493553      0.02385512514590
  C   1.20823929824604     -0.95209817146285     -1.02253485771561
  N   1.56517871241992     -1.67799916437710     -1.87697613382352
  N   -0.98183690009775      0.66189839323269      1.49776609749436
  H   -0.43525605681373      1.45885738643921      1.78289356290042
  H   -1.97380491699716      0.82626411094723      1.50121221831332
