9
Coordinates from ORCA-job run
  C   0.70934653799242     -0.44964954362179      0.21008431221005
  C   -0.41401733284469      0.30492405513219      0.24723744292042
  H   1.28481541526851     -0.65546820363903      1.10779103824032
  H   -0.95982301054831      0.49732015436971     -0.67278280667072
  C   1.18494694150598     -0.98652846691739     -1.01761420505313
  N   1.58265387890161     -1.43824872456239     -2.02858912880307
  N   -0.91487957904011      0.94089380650287      1.35393349966546
  H   -0.57664166140823      0.62837385146266      2.25000240531739
  H   -1.89640118982717      1.15838307127315      1.34093744217327
