9
Coordinates from ORCA-job run
  C   0.68386655341547     -0.48618573429685      0.20976369715144
  C   -0.40170809719656      0.32175563866124      0.24524197253813
  H   1.27620948358882     -0.68029833888116      1.09915751342947
  H   -0.96595312637493      0.50052964249868     -0.66627052552159
  C   1.09820695406986     -1.09774303258975     -1.00513735896296
  N   1.44521533781145     -1.61236585273619     -2.00467102346175
  N   -0.83842644935343      1.02791564048211      1.33680795283134
  H   -1.80937535162137      1.28903156977454      1.34244054371285
  H   -0.48803530433931      0.73736046708739      2.23566722828307
