9
Coordinates from ORCA-job run
  C   0.69703419462383      0.05296492243815     -0.16505255437532
  C   -0.45905743319302     -0.12440349606026      0.51662258489488
  H   1.23096593146264      0.99842971928313     -0.14129140663303
  H   -0.97033814186760     -1.08188283434690      0.46162213323108
  C   1.24392858666032     -0.99478424934099     -0.95575366837725
  N   1.70549595253249     -1.85804118355878     -1.60842891785074
  N   -1.12002743243782      0.83809024826249      1.23547719532051
  H   -0.59151368311942      1.65772775176006      1.48873287235008
  H   -1.73748797466143      0.51189912156309      1.95907176143978
