9
Coordinates from ORCA-job run
  C   0.41492744933051     -0.97407193495721      0.16044859565600
  C   -0.63271596183960     -0.31099785100455      0.71155704903114
  H   0.50055325809512     -2.04726676443498      0.26174178286114
  H   -1.38079182379825     -0.87213492535760      1.26390971353365
  C   1.41204365021593     -0.26150264259537     -0.55999841526813
  N   2.20823555189217      0.38650565744011     -1.13693165956475
  N   -0.89691875742155      1.02318468142114      0.57796770888234
  H   -1.47701665274163      1.44953694390049      1.27890087676198
  H   -0.14931671373268      1.60674683558796      0.23340434810665
