9
Coordinates from ORCA-job run
  C   0.44970115702655     -0.95740436360870      0.15568075437446
  C   -0.48303054810517     -0.29946717688351      0.88905539637646
  H   0.59614001835765     -2.02163285017603      0.27989219135979
  H   -1.08659509577278     -0.85813238845204      1.59846358957835
  C   1.24727392858385     -0.25116441820209     -0.78569059604647
  N   1.87018633737335      0.38864204245142     -1.55336767041002
  N   -0.69900709657901      1.04990511423656      0.88652714929842
  H   -1.60003036572259      1.37239930321616      1.19278724175891
  H   -0.29463833516185      1.57785473741824      0.12765194371011
