9
Coordinates from ORCA-job run
  C   0.74916699756852     -0.03540351960541     -0.08036688385031
  C   -0.43793991543779     -0.10404928563487      0.56709546929457
  H   1.31083630259486      0.89206342469012     -0.14007371085959
  H   -0.96718142807208     -1.05229154413009      0.61441675706803
  C   1.31298708301802     -1.18950912899227     -0.69018954324742
  N   1.78491463488465     -2.13816983229400     -1.20161667925649
  N   -1.03126977396084      0.91838451303421      1.26127493257526
  H   -2.02705145834564      0.85911141148085      1.38637188845270
  H   -0.69546244224970      1.84986396145147      1.07508776982325
