9
Coordinates from ORCA-job run
  C   0.45144352852448     -0.95286635296076      0.13119589106292
  C   -0.53259324883029     -0.32911054423460      0.82618275012673
  H   0.62862940872851     -2.01187359054629      0.25929810142281
  H   -1.13695490411488     -0.90662136415069      1.51949768508371
  C   1.25829300407848     -0.21695008569315     -0.77914555803848
  N   1.89561025228139      0.44988338791199     -1.51100377469382
  N   -0.90766021822218      0.97766443896719      0.68548829748793
  H   -0.26631979409226      1.58745188556701      0.20109252108962
  H   -1.38944802835327      1.40242222513929      1.45839408645858
