9
Coordinates from ORCA-job run
  C   0.41554276352056     -0.96765424265663      0.12725490668463
  C   -0.64688664744108     -0.32578967036143      0.67501224741715
  H   0.49309510910449     -2.04493576129990      0.18183067017659
  H   -1.41627432777171     -0.90876456209236      1.17288700011083
  C   1.44093981488338     -0.22812508549882     -0.52276652206527
  N   2.26001164440616      0.44112139030598     -1.04033608156688
  N   -0.90110854909823      1.01449427775611      0.59655765299650
  H   -1.50359494264881      1.41078055060795      1.29626269178472
  H   -0.14072486495476      1.60987310323911      0.30429743446173
