9
Coordinates from ORCA-job run
  C   0.76868129432703     -0.07036341947075     -0.03523386629141
  C   -0.50982939187258      0.00525459469903      0.40331348827306
  H   1.55576572362686      0.53592087501265      0.40359354270698
  H   -1.27325485293726     -0.60981838639451     -0.06598726682142
  C   1.12166390919956     -0.94115766182526     -1.10242113334588
  N   1.42312198529769     -1.66343623423017     -1.98083202815726
  N   -0.97714001712677      0.86517367182349      1.36412138846092
  H   -1.82021276678037      0.59030391725443      1.83838714715741
  H   -0.28979588373417      1.28812264313108      1.96705872801760
