9
Coordinates from ORCA-job run
  C   0.76739916261942     -0.33609438172862      0.19892374844709
  C   -0.46541165528590      0.22105441733200      0.24850013650495
  H   1.43727176252234     -0.30656839964405      1.05326924161733
  H   -1.10722117565185      0.17849365696971     -0.62769645068034
  C   1.23348200170602     -0.96979958867303     -0.98540662922027
  N   1.62581257490561     -1.49979617617243     -1.95977630265253
  N   -0.98247814526691      0.92686565113079      1.30431641693338
  H   -0.52385776877920      0.81377008193477      2.19421362562949
  H   -1.98499675676952      0.97307473885086      1.36465621342090
