9
Coordinates from ORCA-job run
  C   0.48722236205255     -0.94197916103457      0.17221812376528
  C   -0.46996364170101     -0.30825772492172      0.89548465107678
  H   0.67712566979189     -1.99675735040845      0.31624792440256
  H   -1.04934585917352     -0.87661596323899      1.61728420861527
  C   1.25464557462683     -0.22127373457360     -0.78306024488863
  N   1.85020564331328      0.42970514079728     -1.56300887409287
  N   -0.74066524967071      1.03068952417234      0.86671674081356
  H   -1.65139238613388      1.32429695284137      1.17325484217774
  H   -0.35983211310543      1.56019231636634      0.09686262813030
