9
Coordinates from ORCA-job run
  C   0.42795179375885     -0.96323522772643      0.13069208402780
  C   -0.50739579443424     -0.30784768332474      0.86315382453539
  H   0.59687557487425     -2.02141983745826      0.27532094028051
  H   -1.07995286407542     -0.85977732536576      1.60289021829245
  C   1.19625268628767     -0.26256112290056     -0.83876420362991
  N   1.80369830637976      0.37493159134085     -1.62060301624601
  N   -0.87265097935531      1.00021019131778      0.71158634573337
  H   -1.30739424129111      1.45081201906467      1.49740215630717
  H   -0.25738448214447      1.58888739505244      0.17032165069923
