15

C	0.0	0.0	0.0
C	-0.376797	-0.112383	-1.501414
F	1.346433	0.0	0.0
H	0.476501	0.338541	-2.019449
C	-0.459305	1.281399	0.539528
N	-0.540441	2.387125	0.933269
N	-0.411414	-1.122787	0.932138
O	-0.450035	-0.823259	2.117454
O	-0.512146	-2.246069	0.463535
C	-1.593835	0.557048	-1.949669
N	-2.28275	1.189366	-2.665963
N	-0.338606	-1.543201	-2.003856
O	0.78463	-2.034415	-2.07252
O	-1.38626	-2.078272	-2.330267
F	-2.252805	0.0	0.0
