15

C	0.0	0.0	0.0
C	-0.382646	0.136714	-1.4971
F	1.346267	0.0	0.0
H	0.422524	0.751457	-1.913994
C	-0.468953	1.162603	0.754967
N	-0.54709	2.177361	1.344839
N	-0.400793	-1.276194	0.715821
O	-0.612319	-2.274455	0.046756
O	-0.321627	-1.218537	1.937157
C	-1.662839	0.756846	-1.826789
N	-2.3773	1.374615	-2.532791
N	-0.210896	-1.172539	-2.248278
O	-1.19111	-1.689539	-2.761771
O	0.944958	-1.582706	-2.314101
F	-2.27651	0.0	0.0
