15

C	0.0	0.0	0.0
C	-0.387651	0.071442	-1.499428
F	1.346283	0.0	0.0
H	0.450721	0.604331	-1.96064
C	-0.45551	1.205294	0.696831
N	-0.52975	2.249094	1.234638
N	-0.408172	-1.228673	0.78739
O	-0.421076	-1.085086	2.002433
O	-0.532327	-2.280164	0.179291
C	-1.627136	0.761377	-1.84626
N	-2.315858	1.447202	-2.513347
N	-0.322614	-1.283994	-2.178659
O	0.810035	-1.740005	-2.308672
O	-1.359464	-1.794467	-2.571286
F	-2.268997	0.0	0.0
