15

C	0.0	0.0	0.0
C	-0.387812	0.130942	-1.495157
F	1.346168	0.0	0.0
H	0.423861	0.729122	-1.923646
C	-0.455694	1.173554	0.748603
N	-0.517174	2.191398	1.334542
N	-0.405071	-1.265822	0.730273
O	-0.583658	-2.278131	0.072255
O	-0.367717	-1.186322	1.951406
C	-1.660974	0.771294	-1.818643
N	-2.364352	1.41409	-2.514486
N	-0.248418	-1.185488	-2.239334
O	0.90417	-1.595282	-2.351764
O	-1.249018	-1.712382	-2.696616
F	-2.276885	0.0	0.0
