16
Coordinates from ORCA-job run
  C   -0.31704941259753      0.34682983755043     -0.39998321985596
  C   0.72358827273074     -0.49104313163714      0.34496032671718
  H   0.12879537143250      0.72630919772665     -1.32066557341415
  H   0.26596451809471     -0.86388886015249      1.27139684753705
  N   -0.60684536956117      1.57293589450920      0.41891156819147
  O   -0.95934955249764      2.57289578572841     -0.19599464620653
  O   -0.52485497504526      1.47598664380674      1.64408586186450
  C   -1.63517859722042     -0.36584059232361     -0.64849659017607
  H   -2.33463308520707      0.30677541181453     -1.14731485315725
  H   -1.47541608462076     -1.23458337221992     -1.28932183460149
  H   -2.07477108865220     -0.69792551805222      0.29524302868957
  N   1.92552933145800      0.31128308779298      0.56884448844541
  H   1.79734548854992      0.85307743109372      1.41493244979820
  H   2.73170409623843     -0.28651062820964      0.70038122498449
  C   1.04851201950952     -1.64906373974603     -0.49309972912615
  N   1.30765906738823     -2.57623744768158     -1.16487934969027
