16
Coordinates from ORCA-job run
  C   -0.45638794980179      0.23077402715992     -0.53976008407914
  C   0.77753888073310     -0.61714942438280     -0.21321647888178
  H   -0.50510895428281      0.38829780574706     -1.62015483460674
  H   0.65344801646738     -1.52853845720176     -0.81050751500191
  N   -0.33371293066393      1.61833329159387      0.02728862828016
  O   0.41417559503235      1.79116749514053      0.98960024259460
  O   -1.03496394545458      2.47864618059886     -0.49423723829622
  C   -1.75023191959215     -0.37615316185512     -0.02373763684642
  H   -1.87534115387496     -1.37677114210801     -0.44250988706954
  H   -1.72049610031170     -0.46394682082637      1.06124114044823
  H   -2.59630961126616      0.24078252456476     -0.32876675616212
  N   0.83142046035991     -1.01909761623893      1.18099306136434
  H   1.52469754151803     -1.74645893998281      1.30326334045279
  H   1.09319477234170     -0.22413031501995      1.74973633372513
  C   1.99665790984251      0.05059278687274     -0.71964408607604
  N   2.98041938895311      0.55365176593802     -1.11858822984535
