15

C	-0.56246	0.082762	-1.402225
C	0.0	0.0	0.0
Br	0.228348	-1.252656	-2.618346
H	1.090644	0.0	0.0
H	-1.629257	-0.149659	-1.422045
C	-0.349968	1.393045	-1.998541
N	-0.247341	2.458943	-2.483988
N	-0.55492	-1.154939	0.705713
O	-0.153191	-1.332422	1.862945
O	-1.371132	-1.900175	0.133617
C	-0.293085	1.243739	0.843855
H	-1.365006	1.460748	0.923565
H	0.227761	2.104599	0.420561
H	0.117189	1.067087	1.83879
H	2.525881	0.0	0.0
