15

C	-0.527629	0.063523	-1.413947
C	0.0	0.0	0.0
Br	0.560882	-0.986175	-2.707902
H	1.090666	0.0	0.0
H	-1.511186	-0.401339	-1.490417
C	-0.586248	1.421892	-1.935335
N	-0.674305	2.514597	-2.359659
N	-0.443252	-1.220388	0.632488
O	-0.908981	-2.140057	-0.072482
O	-0.221234	-1.341279	1.850786
C	-0.296969	1.215017	0.860651
H	0.213821	2.080266	0.433945
H	-1.367461	1.428541	0.952471
H	0.125536	1.030531	1.847465
H	2.428148	0.0	0.0
