15

C	-0.475927	0.018795	-1.440741
C	0.0	0.0	0.0
Br	0.281035	1.548789	-2.417523
H	1.093116	0.0	0.0
H	-0.100196	-0.862262	-1.95772
C	-1.927466	0.092176	-1.556599
N	-3.097878	0.182353	-1.623975
N	-0.375823	-1.272372	0.591496
O	-0.647385	-2.227745	-0.162869
O	-0.277083	-1.379831	1.822576
C	-0.444049	1.160952	0.85932
H	-0.129346	2.093567	0.388314
H	-1.527937	1.177234	1.010941
H	0.053312	1.086161	1.825313
H	2.506193	0.0	0.0
