16
Coordinates from ORCA-job run
  C   1.00409290531341     -0.33011557157281      0.31357689601860
  C   -0.29224082604580      0.15936978629152     -0.35398866074732
  F   0.76297502876631     -0.59649083415420      1.65182159808955
  H   -0.03595432193024      0.34927374491911     -1.40386621212397
  C   2.06220465398140      0.69369218405177      0.23368395862231
  N   2.88262908414614      1.52992739393236      0.15082270818633
  C   1.49237283304617     -1.56916021568005     -0.31927036075063
  N   1.85382848559924     -2.55395944020562     -0.84728143699171
  C   -0.76079831658115      1.45996241833411      0.29509239464341
  H   -0.02210849989693      2.25818673357025      0.19775000162270
  H   -0.97054056981732      1.30682191787981      1.35547031237207
  H   -1.68116932986981      1.79531412686108     -0.18704255415812
  C   -1.36365803389954     -0.92672182017751     -0.28392998415454
  H   -1.60163888498247     -1.16593322909357      0.75431481941536
  H   -2.27525775022310     -0.56884970192957     -0.76652988031839
  H   -1.05473645760631     -1.84331749302668     -0.79062359972566
