16
Coordinates from ORCA-job run
  C   1.16772893425365      0.00262713637097     -0.09926382682710
  C   -0.28766395784211      0.44176291471082     -0.31557121694190
  F   1.96540715042270      1.12148946564176      0.07454691298862
  H   -0.25349404543680      1.07575656108132     -1.21027497840125
  C   1.67699820994233     -0.73537700675717     -1.26935955613563
  N   2.05202319930138     -1.30356124136410     -2.22645959699658
  C   1.29034632005999     -0.84208835083396      1.10324068175655
  N   1.34573732288085     -1.51010389828760      2.06757211501649
  C   -0.77136678007263      1.26890097553571      0.87193830090036
  H   -0.10170569094308      2.10446155604240      1.07857698981001
  H   -0.85258809033736      0.65346278171574      1.77204128359223
  H   -1.76184676005558      1.67351689781150      0.65234763098005
  C   -1.18649272183724     -0.76333007252379     -0.57778424280305
  H   -2.20614555450581     -0.42098155187522     -0.76554213409858
  H   -1.21341378340919     -1.42795633710325      0.29009154704954
  H   -0.86252375242110     -1.33957983016512     -1.44709990988975
