16
Coordinates from ORCA-job run
  C   1.03969334054491     -0.45170730598588     -0.29571236023421
  C   -0.33913745824749      0.20015251085897     -0.47290998772574
  F   1.22712778386730     -1.40726008724759     -1.28074868457931
  H   -0.31125829425110      0.63318420775648     -1.48053712656197
  C   1.14369111892623     -1.11646269148554      1.01657115138770
  N   1.18510566225959     -1.63505298414226      2.06949703106056
  C   2.11824029061973      0.54492423441413     -0.42459949385225
  N   2.95246184796389      1.36271363916589     -0.54604095345446
  C   -0.55311917468865      1.30891116645924      0.55360581779709
  H   0.21283472015250      2.08466218079506      0.49005806032294
  H   -0.55697104627826      0.90617943029104      1.57012945675081
  H   -1.52183594495672      1.78166551614819      0.38016120770941
  C   -1.43546563361589     -0.85919996131481     -0.40786534046357
  H   -1.51112259959296     -1.28447671845802      0.59654430263563
  H   -1.25543629115993     -1.66773182780445     -1.11717002396407
  H   -2.39680832154314     -0.40150130945045     -0.65098305682855
