16
Coordinates from ORCA-job run
  C   -0.86735668406294      0.08054360809002     -0.05465643843011
  C   0.44016486865262     -0.64080627170834      0.31874772526025
  Cl  -2.17447945422180     -1.06265785528728     -0.23677012786107
  H   0.15999981179495     -1.27934451439193      1.16532523744086
  N   -1.22548190023103      1.05109098639945      1.06699034486379
  O   -1.34377679558606      2.23252118653031      0.77966746437775
  O   -1.35513608990273      0.53094957199815      2.16307058733992
  N   -0.70595154954568      0.91201279048082     -1.32714200126987
  O   -1.61422344215582      0.90783224640826     -2.14135377039785
  O   0.33855795063323      1.54394662044205     -1.39563356867288
  N   1.39993215305270      0.30374512408520      0.81174441833961
  H   1.84876819950289      0.80489560031376      0.05821261425027
  H   2.08018359365906     -0.14608197683398      1.40730165200371
  N   0.86607823801181     -1.37644240555834     -0.86616017705831
  H   1.83478883319739     -1.64569591125685     -0.75407940326883
  H   0.31593226720142     -2.21750879971130     -0.99526455691721
