16
Coordinates from ORCA-job run
  C   -0.90502509991902      0.00754641081685     -0.02848583470272
  C   0.43421500615693     -0.67006355396910      0.31433969557910
  Cl  -2.20661367450761     -1.13695090780060     -0.14433443926126
  H   0.17942872405658     -1.31537087920943      1.15908782778879
  N   -1.20756859891515      1.01544859680654      1.08347411582053
  O   -1.14939264207916      2.20055201336053      0.79484847193248
  O   -1.43148670925721      0.51907014093818      2.17414105036356
  N   -0.82725058960396      0.82596844213647     -1.31207133785596
  O   -1.87709431137007      1.15542862206410     -1.83677929540986
  O   0.30392360700839      1.12328514040000     -1.68888925669690
  N   1.34953115615433      0.33346018887249      0.81347911344556
  H   1.77584899617959      0.84769220244260      0.05475677224987
  H   2.06803307128130     -0.09272587955645      1.38246886813045
  N   0.80366120311009     -1.52058492864228     -0.79698537569139
  H   1.32302230454484     -0.99565937584532     -1.48809098503433
  H   1.36576755716014     -2.29809623281456     -0.47995939065794
