16
Coordinates from ORCA-job run
  C   -0.81168250924183      0.07977917957252     -0.00964677375998
  C   0.51422873891856     -0.68285746666384      0.30419959000601
  Cl  -2.11454607346903     -1.01180740135249     -0.39751582169564
  H   0.32314370895138     -1.18484459768309      1.26310919253859
  N   -1.27018940522556      0.95706940175999      1.15523647550761
  O   -2.35089617292448      1.50955911566452      1.02956010993297
  O   -0.50932789958098      1.03693001666328      2.11526049905411
  N   -0.54829870062588      1.03722739495878     -1.16300531858001
  O   -0.39963925874328      2.21580919705432     -0.88103162828176
  O   -0.42634467416870      0.51144229283988     -2.26006360788478
  N   1.57730412850904      0.29438791270103      0.31308606687360
  H   1.53788409617322      0.87042000389929      1.14292616387834
  H   2.45513447869918     -0.20842252283756      0.29137048498334
  N   0.87652284272454     -1.68422005740175     -0.65811479290584
  H   0.22933985939577     -2.45957820030273     -0.65890448513964
  H   0.91836684060804     -1.28289426887215     -1.58746615452694
