16
Coordinates from ORCA-job run
  C   -0.85892335482969      0.16789680555086      0.00658780927781
  C   0.39026003413972     -0.68770472510627      0.28407063600954
  Cl  -2.28372819960471     -0.83625701334750     -0.08423948487405
  H   0.10758019252086     -1.29567483621190      1.15169364896259
  N   -1.02887717821324      1.15928032891755      1.15377733596159
  O   -1.00410071131232      2.35019973190658      0.88251221237720
  O   -1.15946629182348      0.64487002670411      2.25254697061150
  N   -0.71196155072625      0.99491304715999     -1.27007814412888
  O   0.40081852405038      1.46738657970662     -1.45429696491177
  O   -1.69801049646143      1.15136349820479     -1.97105174199670
  N   1.47495741562297      0.15213590651697      0.70249354567985
  H   2.15444823537095     -0.37057978057668      1.23629463758309
  H   1.90720036548323      0.62181633938765     -0.08022517809532
  N   0.64231031112809     -1.46725808970260     -0.92283188353918
  H   1.61014966473303     -1.76016394743316     -0.93006990869746
  H   0.05734303992192     -2.29322387167700     -0.95818349021978
