16
Coordinates from ORCA-job run
  C   -0.87714728200944      0.13014315106927     -0.18375543803376
  C   0.44432238015744     -0.63947109532648     -0.36068297005339
  Cl  -2.25383226870008     -0.81157231657845     -0.66846314273518
  H   0.36767311874645     -1.03882611950942     -1.37535768609244
  N   -1.07217987500215      0.62498529125548      1.24461075172982
  O   -0.05925547904305      0.66667446992770      1.93909323898010
  O   -2.19217136892264      0.97716746589443      1.57279897482964
  N   -0.79202465289236      1.39238736787852     -1.04721074750825
  O   -0.75947685107380      1.18659198262911     -2.24827803545457
  O   -0.71666771905837      2.46357060764144     -0.46597427107622
  N   0.43716257961132     -1.75967712128657      0.55626492937946
  H   0.78906403865569     -1.47793848605629      1.46177918589621
  H   1.00816099095763     -2.51371520091646      0.20034018416443
  N   1.53853615591543      0.30749425449940     -0.36267007904123
  H   1.79714598283619      0.56816091905858      0.57909251996519
  H   2.34069024982175     -0.07697517018025     -0.84258741494983
