16
Coordinates from ORCA-job run
  C   -0.78528161661358      0.07763369106202     -0.01593093643054
  C   0.72385714778841     -0.21786990396865      0.02321416951333
  Cl  -1.76648852645698     -1.29216839960707      0.37450977362336
  H   1.20146132852107      0.71837013430376     -0.28895122708767
  N   -1.03307544913881      1.24245040444069      0.95006071493365
  O   -0.48256954644080      2.27754495848551      0.59133639868639
  O   -1.69451823068774      1.05741848105154      1.95170434844570
  N   -1.23421787080964      0.63974988377509     -1.36173780694306
  O   -0.40580522861028      0.66128199519357     -2.26608671647036
  O   -2.38770340874351      1.03944779589049     -1.41368879641573
  N   1.02857925887733     -1.35896113487795     -0.81703264578642
  H   1.97065807668170     -1.66764388252283     -0.61286251351903
  H   0.97884534677240     -1.10142988704233     -1.79503910996398
  N   1.04416695836886     -0.43383089108905      1.41132476129768
  H   0.82056142704823     -1.38633960667962      1.67506938477797
  H   2.02253033344332     -0.25565363841523      1.59111020133874
