16
Coordinates from ORCA-job run
  C   -0.76958501965400      0.09028351361593      0.05274751001237
  C   0.73610820980054     -0.14177141610951     -0.03389159087037
  Cl  -1.61824523958186     -1.33141417345556      0.56148335612565
  H   1.15559470347510      0.80968555635654     -0.35905465976427
  N   -1.05094343120226      1.26471827911544      1.00990645769535
  O   -0.31695446923729      2.23061783360651      0.85427711043145
  O   -1.97207829708646      1.15426687537834      1.80227829089459
  N   -1.29072713721290      0.57645033388297     -1.31351794491226
  O   -0.59564410248246      1.43130252671487     -1.84456306206504
  O   -2.33689808523483      0.10773531185402     -1.73110083577562
  N   0.95501481443115     -1.10968069253602     -1.08860115129615
  H   1.90434249604410     -1.05410721250810     -1.43218472902516
  H   0.78004498773720     -2.05295649798840     -0.76451541522548
  N   1.20282710575121     -0.39825597219900      1.31279907564032
  H   2.19519318410874     -0.21897812889983      1.38648649385941
  H   1.02295028034402     -1.35589613682820      1.58845109427526
