16
Coordinates from ORCA-job run
  C   -0.71898417364150      0.08706899443681     -0.01653111994166
  C   0.78349175732454     -0.23855385050251     -0.08628819107271
  Cl  -1.66567643261641     -1.28073647135581      0.46563690366311
  H   1.25428719773562      0.66292116401891     -0.47628713128170
  N   -0.92642389989561      1.25740959486892      0.95937620705093
  O   -1.75911262729188      1.15244523556195      1.84550511609779
  O   -0.19102330108371      2.21576443661953      0.74458386296818
  N   -1.21680895533039      0.64107046975309     -1.36577125137259
  O   -0.40562660181546      1.31881205552509     -1.98005969042437
  O   -2.37319268399731      0.40351114320026     -1.67877417582209
  N   0.92084424129206     -1.28473323626287     -1.07033242824758
  H   1.88820038443349     -1.32158655084154     -1.36615748075880
  H   0.69531089813347     -2.18380396120012     -0.66030734651669
  N   1.37336607442997     -0.52668884945840      1.20025965195508
  H   0.84124347233970     -1.21025867550147      1.72478750177085
  H   1.50010464998340      0.30635850113818      1.76035957193226
