16
Coordinates from ORCA-job run
  C   -0.88512851203505      0.09996503629064     -0.01906836746605
  C   0.40418439664024     -0.70562849008155      0.26831842492919
  Cl  -2.25046345392251     -0.90415504238691     -0.38905003890943
  H   0.22073207815704     -1.19912295237139      1.23183389117197
  N   -1.26502592341067      0.99489402090228      1.16462383168433
  O   -2.30840080300433      1.61811828206926      1.05914824259126
  O   -0.49210633407452      1.01438675541044      2.11833515991195
  N   -0.58815147690064      1.06072521941711     -1.17225816437804
  O   -0.40463579622764      2.23315880223416     -0.88750717554064
  O   -0.48809975867156      0.53522914189674     -2.27025744332489
  N   1.51092327001017      0.23971740869423      0.27441173801905
  H   2.38178914856460     -0.27170872597855      0.21904646384239
  H   1.51174403096795      0.79693493345941      1.11957723009538
  N   0.56045680860941     -1.73341510536041     -0.72214564024725
  H   0.88665168615280     -1.34005670766960     -1.59623489309527
  H   1.20853063914465     -2.43804257652581     -0.39877325928401
