16
Coordinates from ORCA-job run
  C   -0.90479522395694      0.01422613986954     -0.03447420194103
  C   0.42735171066359     -0.67479080520859      0.31269023735146
  Cl  -2.21389756287912     -1.12037871686879     -0.16459126895763
  H   0.16310786708606     -1.32137658234001      1.15359275336236
  N   -1.20647946027737      1.01825457092339      1.08151076977778
  O   -1.13591355032226      2.20440893376414      0.80026475461233
  O   -1.44135298772801      0.51753723361985      2.16790828350562
  N   -0.81394813896205      0.83988538596090     -1.31241538595946
  O   -1.85880812154611      1.18414521827271     -1.83763592550961
  O   0.32152010107470      1.12676572923976     -1.68442726026009
  N   1.34718792599485      0.32037930667490      0.82086743021545
  H   2.05449203553197     -0.11201557895923      1.39911748414213
  H   1.78766506112148      0.82898140186342      0.06643890613950
  N   0.79682032918158     -1.52381363391092     -0.79955948931155
  H   1.31994145481854     -0.99880364117883     -1.48779422800823
  H   1.35610856019911     -2.30340496172225     -0.48249285915905
