16
Coordinates from ORCA-job run
  C   -0.86549578521939      0.09018046604486     -0.05763823836811
  C   0.43296344461018     -0.65093288856804      0.30862665902331
  Cl  -2.18309977063915     -1.03609393092230     -0.26950744127867
  H   0.14188948399900     -1.30384025527661      1.14044230422966
  N   -1.22162688962709      1.04163154700703      1.08079468603201
  O   -1.33459042797634      2.22854488371434      0.81484560977476
  O   -1.35702732561553      0.50203704190210      2.16666657164112
  N   -0.68830459195023      0.94466188444251     -1.31273778018478
  O   -1.58740486472669      0.95911317511478     -2.13676443083029
  O   0.35944947581657      1.57327376110527     -1.35787163979205
  N   1.39863710993818      0.27449014227966      0.82589971379788
  H   1.85826866233833      0.78386876187599      0.08444760939498
  H   2.06957738933662     -0.19333598545891      1.41814010597006
  N   0.85969287522217     -1.36529014506985     -0.88891121398500
  H   1.82184575143500     -1.65521605102795     -0.77120819426704
  H   0.29622546305834     -2.19309240716288     -1.04422432115783
