16
Coordinates from ORCA-job run
  C   -0.77490737250428      0.24922546731012      0.05650868308707
  C   0.35330170315768     -0.82926943702715      0.10215983871185
  Cl  -2.06799223249820     -0.11159566052890      1.16841350906642
  H   -0.10313077176232     -1.72511486169845     -0.34178068100929
  N   -0.15267680115972      1.60189541559770      0.37375196360534
  O   0.15805241690059      1.77151756024170      1.54390947690251
  O   0.05423279313907      2.35066743969548     -0.56808376244610
  N   -1.38548888497841      0.39589625213666     -1.33741908684071
  O   -0.85379573382341     -0.24460769652881     -2.23965055216930
  O   -2.34478736235553      1.14322401811927     -1.43756290389182
  N   0.81020334936638     -1.16819875740404      1.41996715683580
  H   1.10317616066024     -0.33558471246132      1.91740038975739
  H   0.09886576553832     -1.64404329408061      1.95622605961327
  N   1.48822260469331     -0.29039473126309     -0.60992323341443
  H   1.32771174262802     -0.29085384069770     -1.60803215519207
  H   2.28801262299829     -0.87176316141081     -0.39488470261592
