16
Coordinates from ORCA-job run
  C   -0.69953091031829      0.11327730178805      0.09879459602340
  C   0.80369389008629     -0.18850249255174     -0.08122338431330
  Cl  -1.56776781574890     -1.20718234612945      0.82592440400654
  H   1.23058256489636      0.74738920919288     -0.44853829347383
  N   -0.95185172854414      1.37137110793533      0.92655492278510
  O   -2.12015490863128      1.71991379758121      1.01365289531431
  O   0.02343849905196      1.93385330987689      1.41108781476461
  N   -1.27295039809508      0.47505136899700     -1.27234147890964
  O   -0.80281472491623      1.51731360188237     -1.71307406910126
  O   -2.07718635465145     -0.26743058430093     -1.79981141144146
  N   0.86826662739502     -1.16110372402777     -1.14651770589425
  H   1.83450713987111     -1.25563969549637     -1.43382118512572
  H   0.55683293334712     -2.06873849983000     -0.81834465388068
  N   1.51864438675018     -0.56356160375050      1.11136464080652
  H   1.10013085801472     -1.36969518136558      1.55890254131676
  H   1.55815994149260      0.20368443019860      1.76939036712288
