9
Coordinates from ORCA-job run
  C   -0.00795595141887      0.08228572954999      0.03315835756260
  C   1.23322529035491     -0.12086612462333     -0.45483155270432
  H   2.08848044138402      0.35747370579696      0.00127266997509
  H   1.39460928733968     -0.74272058265682     -1.32860290876592
  C   -0.18163559252738      0.91650097269817      1.19525889767028
  N   -0.33625633438753      1.57625645922299      2.15580060793441
  N   -1.20122877572840     -0.36825240852271     -0.53296402084014
  H   -1.91830822183109     -0.59568887532510      0.13926679977198
  H   -1.07093014318534     -1.10598887614015     -1.20935885060399
