9
Coordinates from ORCA-job run
  C   -0.00793682050909      0.08230894272640      0.03325982910173
  C   1.18735388855446     -0.07392769834110     -0.57243722333868
  H   1.28968818122246     -0.70034546756308     -1.45194533304340
  H   2.06123174702718      0.44617476203112     -0.20613556595819
  C   -0.10431417387281      0.92417886330838      1.19889896766358
  N   -0.19460144548010      1.58962922565586      2.16362844049438
  N   -1.22987319166018     -0.42630811195035     -0.40850084263710
  H   -1.13522997325433     -1.16478449292270     -1.08983067582065
  H   -1.86631821202759     -0.67692602294451      0.33306240353833
