9
Coordinates from ORCA-job run
  C   -0.00079682931998      0.03091098819579      0.08369271702572
  C   1.24233475513642     -0.35410746046912     -0.27181311490181
  H   1.39683876817004     -1.20297147205260     -0.92894621872527
  H   2.10956051286515      0.16202279087207      0.11535800624320
  C   -0.16557403390180      1.16243158187775      0.96065473833607
  N   -0.31666829660358      2.09749891108379      1.65683600316033
  N   -1.19122999941804     -0.62129409835442     -0.24098525979994
  H   -1.09575623362285     -1.27097930312126     -1.00758936116915
  H   -1.97870864330535     -0.00351193803200     -0.36820751016917
