9
Coordinates from ORCA-job run
  C   -0.00597668778885      0.08250212258371      0.03372074399476
  C   1.23140573453465     -0.14826904513970     -0.45171491504735
  H   1.37941720083858     -0.76520610354404     -1.33135691540137
  H   2.09722384265531      0.30157217808459      0.01346642488401
  C   -0.16250820738404      0.90962144494876      1.20330563347664
  N   -0.30417411487229      1.56350191777608      2.16985669801561
  N   -1.20853545431000     -0.33068987517010     -0.54168136880492
  H   -1.09459828230900     -1.06746725616630     -1.22217818559594
  H   -1.93325403136434     -0.54556538337301      0.12658188447855
