9
Coordinates from ORCA-job run
  C   0.01080171758929      0.01225888394448      0.07286247144224
  C   1.20095292790744     -0.04386864656459     -0.56230632277443
  H   1.92170689046118      0.73742100129380     -0.39106521321791
  H   1.45901880860602     -0.83815383905506     -1.24350661093642
  C   -0.24308651120618      1.14506651763668      0.93120170995200
  N   -0.42830079284345      2.06777769662265      1.63726767966102
  N   -1.00775226472157     -0.93336820542037      0.05094790628261
  H   -1.92966329826278     -0.57110623567069      0.23079171882513
  H   -0.98367747752995     -1.57602717278689     -0.72419333923424
