9
Coordinates from ORCA-job run
  C   -0.00604721423291      0.08837599349760      0.01045561922949
  C   1.24576307919305     -0.26613806440573     -0.34630352739380
  H   2.09849630448601      0.29281198880062      0.01280884355492
  H   1.41982428754294     -1.09769548440124     -1.02068191555024
  C   -0.19656513603965      1.20025052988673      0.90713776224570
  N   -0.36628414312515      2.09116891323967      1.65494339208785
  N   -1.19127108845800     -0.46325987041706     -0.47868975127770
  H   -1.94232715460540     -0.49042760697200      0.19426232766704
  H   -1.06058893476089     -1.35508639922860     -0.93293275056326
