9
Coordinates from ORCA-job run
  C   -0.00532273774800      0.08825922536249      0.00801872394900
  C   1.23509824894947     -0.29619695642491     -0.35687306095652
  H   2.10195758528859      0.25508689969108     -0.02050473661218
  H   1.38638663269256     -1.14695714708309     -1.01233953976906
  C   -0.16271188824916      1.22537863271076      0.87902313147508
  N   -0.30241657545072      2.13780153888222      1.60699601222145
  N   -1.20649567147901     -0.45360034018726     -0.45198374071263
  H   -1.94884626870335     -0.45112564391773      0.23117487554863
  H   -1.09764932530038     -1.35864620903356     -0.88551166514377
