9
Coordinates from ORCA-job run
  C   -0.00747375372262      0.08273763588793      0.03233076879328
  C   1.21654525888297     -0.11274443986149     -0.50005325127440
  H   1.35169613525681     -0.74313473355584     -1.37214120419470
  H   2.08295395057790      0.37952536760515     -0.08139607329381
  C   -0.14621523665139      0.92861096749453      1.19066779706317
  N   -0.27178501279450      1.59808661537516      2.14871194179007
  N   -1.21621444248568     -0.38716338392700     -0.48279601743061
  H   -1.10400359446137     -1.13268323237956     -1.15384094732221
  H   -1.90550330460212     -0.61223479663888      0.21851698586922
