9
Coordinates from ORCA-job run
  C   0.00184737222404      0.05481836097915      0.07013240581584
  C   1.25288007386944     -0.22655768205377     -0.34893868611618
  H   2.03936716544730      0.51006989990309     -0.26478549123099
  H   1.50034351607031     -1.20273711808831     -0.75146911121681
  C   -0.28714273704720      1.36323365356785      0.60025579866164
  N   -0.54295613686929      2.43325310040362      1.01430043573871
  N   -1.06756853579826     -0.83925646708387      0.13484078586089
  H   -0.92803383929098     -1.67285528491426     -0.41682268154604
  H   -1.96873687860537     -0.41996846271348     -0.03751345596707
