9
Coordinates from ORCA-job run
  C   0.01529753851481      0.00563528799356      0.08749282057293
  C   1.17592159470938     -0.03750989984210     -0.59887003463529
  H   2.04645305750590      0.49292339243964     -0.23923914437809
  H   1.26707106168580     -0.62603130425293     -1.50523470909569
  C   -0.06499828596844      0.79746066729997      1.28875604356990
  N   -0.15219306945107      1.45712226753187      2.25777958485309
  N   -1.13787053197112     -0.72826554609804     -0.19357201577393
  H   -1.99718628815836     -0.24958618639299      0.03042584288674
  H   -1.15249507686689     -1.11074867867898     -1.12753838799964
