9
Coordinates from ORCA-job run
  C   -0.01995301010076      0.08640218650106      0.00857890024727
  C   1.15180937093337     -0.07365474555553     -0.64040563272366
  H   1.30793655467475     -0.90990419364424     -1.31303109609543
  H   1.94883954746583      0.64678783882991     -0.52179061113470
  C   -0.18903525699367      1.21168211863645      0.89270775806904
  N   -0.33355005155583      2.11254061751274      1.63390640437005
  N   -1.16560779513399     -0.69441611147788     -0.15136910811694
  H   -1.71426398197157     -0.79977186699186      0.68874228719920
  H   -0.98717537731813     -1.58166584381065     -0.59833890181482
