9
Coordinates from ORCA-job run
  C   -0.00785404424974      0.08321369839633      0.03231313436740
  C   1.21122400535804     -0.10151169358492     -0.51505999380522
  H   1.34025881644811     -0.72857507680198     -1.39046979609274
  H   2.07831916207584      0.39952560803600     -0.10839784488009
  C   -0.13991728515180      0.92628625888291      1.19353872974619
  N   -0.25939477545181      1.59177077043312      2.15514365312389
  N   -1.21870771554854     -0.39765568575073     -0.46793823380279
  H   -1.10747169444169     -1.14093205624849     -1.14174087447667
  H   -1.89545646903839     -0.63212182336224      0.24261122582002
