9
Coordinates from ORCA-job run
  C   0.00965082545379      0.00930511439963      0.08768650742794
  C   1.21057537306118     -0.08716294319033     -0.51910102649542
  H   1.34638057417441     -0.71726400144698     -1.39127738416572
  H   2.06832601590140      0.44115711009202     -0.12714688380778
  C   -0.12974632877480      0.85553365289885      1.24578963865677
  N   -0.26372040146989      1.55921669591873      2.17779113205091
  N   -1.13923502196747     -0.71383361415995     -0.23555776181497
  H   -2.00032059764145     -0.20904239430219     -0.08842220467234
  H   -1.10291043873717     -1.13790962020977     -1.15076201717940
