9
Coordinates from ORCA-job run
  C   -0.00890147606306      0.07963064468524      0.04009754997496
  C   1.20937456990432     -0.03417449886000     -0.52768770070018
  H   2.07100024404942      0.44192659882580     -0.08125903308286
  H   1.34330285866947     -0.57917493860708     -1.45574665706980
  C   -0.14824696011205      0.81284541729565      1.27287233834684
  N   -0.27354313484621      1.38788245565556      2.29044686992745
  N   -1.21519609244207     -0.37293135951922     -0.49643749542970
  H   -1.88295197547889     -0.68437309518506      0.19280378105582
  H   -1.09583803368093     -1.05063122429089     -1.23508965302252
