14

C	-0.481802	-0.020853	-1.443356
C	0.0	0.0	0.0
Br	0.217309	1.473708	-2.44296
H	1.097033	0.0	0.0
H	-0.335937	-0.931816	0.465569
C	-0.148723	-1.261606	-2.134407
N	0.068867	-2.285987	-2.669215
N	-2.035628	0.035364	-1.478397
O	-2.602686	-0.37718	-0.472614
O	-2.577982	0.407936	-2.508511
N	-0.494253	1.195754	0.659069
H	0.27855	1.65058	1.126888
H	-1.207389	0.968697	1.335718
Br	3.523276	0.0	0.0
