18

C	-0.590728	-0.000862	-1.382728
C	0.0	0.0	0.0
Br	0.412324	1.450016	-2.473676
H	1.089268	0.0	0.0
N	-0.236225	-1.23105	-2.215838
O	0.851738	-1.743057	-2.024354
O	-1.056903	-1.555302	-3.072179
N	-1.969678	0.189488	-1.434143
H	-2.316814	0.174094	-2.384946
H	-2.232967	1.038208	-0.954231
N	-0.433604	-1.170747	0.737075
O	-0.855539	-2.167663	0.124574
O	-0.260742	-1.144634	1.966841
C	-0.321648	1.255234	0.795863
H	0.353741	1.281418	1.651926
H	-1.353691	1.26871	1.162933
H	-0.12387	2.137734	0.186482
H	2.455935	0.0	0.0
