18

C	-0.576897	0.010228	-1.405073
C	0.0	0.0	0.0
Br	0.323873	1.440714	-2.427471
H	1.087792	0.0	0.0
N	-0.1638	-1.280262	-2.143398
O	-0.879508	-1.653481	-3.063665
O	0.882021	-1.797175	-1.780049
N	-1.981263	0.192277	-1.592886
H	-2.445806	-0.54108	-1.065482
H	-2.245007	1.099531	-1.230671
N	-0.462679	-1.166982	0.71226
O	-0.056683	-1.315569	1.875434
O	-1.205781	-1.995314	0.135282
C	-0.342033	1.232391	0.819811
H	-1.416973	1.316083	1.015363
H	0.187377	1.151457	1.768691
H	0.013685	2.12794	0.309798
H	2.471369	0.0	0.0
