15
Coordinates from ORCA-job run
  C   -0.42543221664792      0.29385279005186     -0.50138332765773
  C   0.82722675501286     -0.35826902102089      0.11754542796827
  Cl  0.04043783956904      0.91412637456691     -2.11415490234909
  H   1.16138939491329     -1.16350649147251     -0.54035195551266
  C   -0.91977617917311      1.40518180477326      0.31034991731656
  N   -1.41019581050345      2.26228795289025      0.94771737433500
  C   -1.52150515935783     -0.75674776390821     -0.66481339439701
  H   -2.38255146750603     -0.30536541299098     -1.15814561775413
  H   -1.83190107116914     -1.13274054911640      0.31238253755745
  H   -1.15518516946881     -1.58152768177163     -1.27924761372492
  C   0.54942975142354     -0.85398889456629      1.45898975417320
  N   0.29711146943340     -1.27586735835371      2.52612264914093
  N   1.98304797652184      0.61814015449628      0.18265610738850
  O   1.84410272611071      1.57447018873121      0.93429022848319
  O   2.94380116084161      0.35995390769086     -0.53195718496755
