15
Coordinates from ORCA-job run
  C   -0.43819600260292      0.28427124885781     -0.49736906088191
  C   0.83280294909622     -0.34554742592288      0.10669421735229
  Cl  -0.00658616556209      0.89701947140700     -2.12255658667902
  H   1.16797974714612     -1.15109492390510     -0.55034029029663
  C   -0.93410145889607      1.39560279383493      0.31324024670537
  N   -1.42231034366337      2.25162289039982      0.95375249253220
  C   -1.52203584271681     -0.78264733770392     -0.63462745875616
  H   -2.39760615016027     -0.34709464094050     -1.11633058565933
  H   -1.15461206080671     -1.60646914911516     -1.24952920565493
  H   -1.81039399506847     -1.15596681171020      0.35021476101903
  C   0.58431530649258     -0.83565500282076      1.45601067020863
  N   0.36029106456202     -1.25545005983654      2.53028118988754
  N   1.97600737563222      0.64690188049085      0.14712060480489
  O   2.92731895837825      0.39882890447972     -0.58349302729443
  O   1.83712661816929      1.60467816248492      0.89693203271244
