15
Coordinates from ORCA-job run
  C   -0.61435011444632      0.37974634831130     -0.08938087016004
  C   0.61331237767676     -0.22448234323799      0.63888198117622
  Cl  -0.29634399628532      2.08898056204240     -0.49465232748522
  H   0.36651843690859     -1.25026420466741      0.92630818483171
  C   -1.72170859877379      0.32458755961600      0.86709722532923
  N   -2.61562187714789      0.23353820487420      1.62498293399888
  C   -0.97588413387271     -0.38626738377270     -1.35829099363494
  H   -1.90455878765932      0.01767192239583     -1.76181975715240
  H   -0.19145920184614     -0.27640081010235     -2.10628756839806
  H   -1.11098859392849     -1.44663291570636     -1.13494521945650
  C   1.00830832389363      0.54956288760652      1.80633726384514
  N   1.30913165381394      1.14547311231502      2.77263203856604
  N   1.77416577618122     -0.35024250095121     -0.32310939157715
  O   2.55222545475687      0.59102428297489     -0.40283507187688
  O   1.80425328072898     -1.39629472169813     -0.96491842800603
