14
Coordinates from ORCA-job run
  C   0.43992584161922      0.12764131599904     -0.50220675866000
  C   -0.63122932943085     -0.88744424331390     -0.18724603626375
  F   1.14606789792863     -0.29747767365403     -1.62407105941005
  H   -1.33198442251597     -0.88965792367751     -1.03721132562012
  H   -0.15950561299696     -1.86800042933782     -0.13568297618796
  N   1.49131112919807      0.11307671149953      0.60607344129678
  O   1.90635495132901      1.19126003967669      1.01797314635658
  O   1.88691953213181     -0.99333963927086      0.94385587190506
  N   -0.07206287991719      1.42731744232737     -0.62100258563310
  H   0.65861817934712      2.12510361201446     -0.57719845548232
  H   -0.60618860564494      1.51457677623383     -1.47543832064554
  N   -1.19860894456817     -0.54763260278534      1.10356779877985
  H   -1.76219981761272      0.28804914635166      1.03067127976588
  H   -1.76741791886707     -1.30347253206310      1.45791597979869
