14
Coordinates from ORCA-job run
  C   0.49415021221986      0.17733318311338     -0.47875489733901
  C   -0.61449163086197     -0.83586036327316     -0.26879463086754
  F   1.14643144810673     -0.14970708575628     -1.65474852643780
  H   -0.14535799496320     -1.80282791831992     -0.05452378046942
  H   -1.10972393425447     -0.91237680009145     -1.24038460762642
  N   1.59741063788872      0.02666823238698      0.58100600807030
  O   1.31017531060192     -0.58531471184455      1.60772067222884
  O   2.65590948364616      0.59301197979284      0.34697151889372
  N   0.06927435689137      1.49815140466828     -0.41958741316418
  H   -0.92304065388137      1.61493460493125     -0.54472141396033
  H   0.65577996618977      2.14362441816043     -0.92492850330978
  N   -1.58205884926015     -0.37187863734587      0.71149878442799
  H   -1.16506428063928     -0.41562922362273      1.63299920876864
  H   -2.39039407168409     -0.98012908279921      0.70524758078499
