14
Coordinates from ORCA-job run
  C   0.49791315964956      0.07119256160677     -0.21964007530936
  C   -0.63086368031270     -0.48282172368656      0.62283121475621
  F   0.79568513867798     -0.88041385274612     -1.20448649146129
  H   -0.32882257940674     -1.46452609488370      0.99947127591178
  H   -0.77881313643703      0.18067332380419      1.47424368222602
  N   1.79971426479404      0.16888029661040      0.55800809549258
  O   2.74878161859737      0.64045759880548     -0.05753711351048
  O   1.81178964780572     -0.23013013545057      1.71886999178140
  N   0.21474124365555      1.33473832811406     -0.72562494580562
  H   -0.72583638203146      1.33741891700708     -1.10020446120910
  H   0.90606031955523      1.63863754112455     -1.39758663712165
  N   -1.82957135218007     -0.48436065514536     -0.21300097293699
  H   -1.82295458725776     -1.29417218086840     -0.81969150672937
  H   -2.65682367510969     -0.53457392429181      0.36534794391587
