16

C	-0.160932	0.03617	-1.546892
C	0.0	0.0	0.0
Cl	0.129918	-1.731956	-2.123704
H	1.097362	0.0	0.0
C	-1.541888	0.389069	-2.056989
H	-1.790589	1.401663	-1.729419
H	-1.559994	0.354065	-3.149639
H	-2.284902	-0.315086	-1.676923
N	0.844265	0.911257	-1.993945
H	0.944058	0.893396	-2.999925
H	1.727608	0.688829	-1.502671
C	-0.616619	-1.126049	0.668611
N	-1.127135	-2.01204	1.248639
C	-0.466274	1.253383	0.573051
N	-0.847742	2.260973	1.043706
F	2.544585	0.0	0.0
