16

C	-0.037765	0.009267	-1.556536
C	0.0	0.0	0.0
Cl	-1.72327	-0.218724	-2.177534
H	1.098507	0.0	0.0
C	0.517118	1.333427	-2.042034
H	1.512707	1.421803	-1.595754
H	0.590594	1.306012	-3.130128
H	-0.109085	2.171219	-1.732147
N	0.797155	-1.055343	-2.066999
H	0.414673	-1.947104	-1.764176
H	1.689579	-0.921531	-1.568345
C	-0.495838	-1.244534	0.552825
N	-0.875034	-2.272916	0.97892
C	-0.581439	1.160006	0.639101
N	-1.035387	2.117367	1.149461
F	2.553861	0.0	0.0
