16

C	-0.312898	-0.073385	-1.508819
C	0.0	0.0	0.0
Cl	0.265749	1.542334	-2.209563
H	1.095344	0.0	0.0
C	0.566324	-1.141755	-2.130077
H	0.215383	-2.122878	-1.799252
H	0.523227	-1.093187	-3.221019
H	1.583422	-0.967291	-1.766716
N	-1.698848	-0.275064	-1.767163
H	-2.246781	0.472963	-1.355316
H	-1.870422	-0.285161	-2.765779
C	-0.439004	-1.224273	0.655406
N	-0.761717	-2.227988	1.175908
C	-0.588043	1.156667	0.648224
N	-1.075557	2.094568	1.164344
F	2.507613	0.0	0.0
