16

C	-0.040196	-0.01626	-1.556762
C	0.0	0.0	0.0
Cl	-1.725822	-0.259564	-2.174001
H	1.098501	0.0	0.0
C	0.510319	1.301376	-2.063641
H	1.510218	1.395766	-1.627657
H	-0.112872	2.143717	-1.758603
H	0.574182	1.259816	-3.152216
N	0.799243	-1.087325	-2.05081
H	1.689142	-0.946178	-1.550571
H	0.416041	-1.975096	-1.739834
C	-0.494015	-1.235853	0.573026
N	-0.87065	-2.256914	1.018181
C	-0.581405	1.169666	0.621846
N	-1.035025	2.13477	1.118121
F	2.553481	0.0	0.0
