13
Coordinates from ORCA-job run
  C   -0.54947632781620      0.16922365386212     -0.03887270111457
  C   0.80789201486409     -0.05497754919577     -0.06559197792948
  N   -1.31486235276497     -0.05367425984578      1.16817566574700
  O   -2.54265885851611     -0.06977240730661      1.04982274341412
  O   -0.71165856850858     -0.24701527515689      2.23165565623397
  N   -1.31179504396994      0.66699664377183     -1.08170848826651
  H   -2.23232376787200      0.25384802839313     -1.12760496679682
  H   -0.83490405398803      0.68035145148740     -1.97164674294040
  N   1.67666283228675     -0.25600371284940      0.99322087607093
  H   2.48255528288477     -0.81832086881374      0.76549106213551
  H   1.22208188507659     -0.49568477929623      1.86141399373908
  C   1.41901581412279      0.07007542227173     -1.35326931189614
  N   1.89047114420083      0.15295365267820     -2.43008580839670
