13
Coordinates from ORCA-job run
  C   -0.54077018095952      0.19725521634885     -0.03401121773719
  C   0.80598089993458     -0.08418438702518     -0.05495635501443
  N   -1.34045343792179     -0.09090304836133      1.13632832690332
  O   -0.76877915394342     -0.39948008034377      2.19001237299308
  O   -2.56495499170300     -0.04225089740056      0.99556535509652
  N   -1.25890412924550      0.81202865783755     -1.04511907142507
  H   -0.76182610977268      0.87992891676244     -1.92161999276698
  H   -2.19441112120430      0.44360540590667     -1.14314876252959
  N   1.64229884775130     -0.41064293513560      0.99852568320949
  H   1.15924917799039     -0.70425198590240      1.83425596442723
  H   2.43017244977241     -0.98433460840408      0.73858436533973
  C   1.44835284675134      0.11802123746862     -1.31730970564181
  N   1.94404490255019      0.26620850824879     -2.37610696285431
