13
Coordinates from ORCA-job run
  C   -0.56070383097539      0.09848964155238     -0.08284820865922
  C   0.81193043925193      0.03924425319982     -0.00483016191752
  N   -1.38108171879022     -0.21377954503951      1.06642241200943
  O   -2.59024343880904     -0.35200761940254      0.86259927199404
  O   -0.83691448690788     -0.35606327940594      2.16887927959020
  N   -1.29503208371618      0.50599389838525     -1.18283142679238
  H   -0.76820349076857      0.53721361368908     -2.04357368057816
  H   -2.17553990894070      0.01882502874995     -1.26982082894095
  N   1.61777860878470     -0.07669717230237      1.11458009464802
  H   1.13973910620649     -0.38964944677034      1.94606688394082
  H   2.50284961179901     -0.52746295490462      0.93574272727208
  C   1.50006097053755      0.27254252058846     -1.23759126803798
  N   2.03636022232828      0.44335106166038     -2.27279509452840
