13
Coordinates from ORCA-job run
  C   -0.53098203209210      0.07926808955127     -0.13682155517367
  C   0.82934669192049     -0.07255954295567     -0.00577524709312
  N   -1.40002355288311     -0.02607050816141      1.02040415084399
  O   -2.58333155216816      0.29240862591662      0.86666264127225
  O   -0.91324794856311     -0.38393720302722      2.10104106008714
  N   -1.12653824286892      0.47536166825618     -1.33025690792242
  H   -2.03706133050108      0.87556663252936     -1.15965711305209
  H   -1.15835822299051     -0.24506253316488     -2.03527539953909
  N   1.53510920760886     -0.64530272536388      1.02746291415581
  H   2.51218051690764     -0.39557424803103      1.06743955176743
  H   1.05705462910829     -0.65217520559045      1.91634254457950
  C   1.58631590341516      0.22566908932759     -1.18669974929650
  N   2.22853593310654      0.47040786071353     -2.14286689062922
