13
Coordinates from ORCA-job run
  C   -0.53484158876540      0.08963393341499     -0.12434270522407
  C   0.81287598196214     -0.16276796205164     -0.06968274572146
  N   -1.32220061132481      0.15855526668240      1.09789069296178
  O   -0.76549504516498     -0.05747012563801      2.18387724574907
  O   -2.51524380006694      0.43927851303989      0.97541087962858
  N   -1.17071242393973      0.32280122820041     -1.34858246241241
  H   -1.85338159736927     -0.39738395479843     -1.55401517779586
  H   -1.65386571338242      1.21304708010357     -1.34440239426117
  N   1.57982427130821     -0.49742651721098      1.00219218885072
  H   1.16848706123555     -0.36019294249936      1.91222706519179
  H   2.57689808518221     -0.40570556873562      0.90490919146924
  C   1.50932087788594     -0.16484449463553     -1.33040828490504
  N   2.16733450243949     -0.17752445587169     -2.30507349353115
