13
Coordinates from ORCA-job run
  C   -0.54917363395713      0.04170186212795      0.17189343587349
  C   0.79347678701512     -0.16311817027500     -0.04839598426769
  N   -1.51037177608394     -0.12563103946621     -0.89633645228575
  O   -1.14365817327992     -0.65641636887215     -1.95270268417456
  O   -2.64533607621489      0.31208779221258     -0.69266134800528
  N   -1.13573500332018      0.35659498359404      1.38559617862691
  H   -0.47841840653570      0.61197671367661      2.10826350550993
  H   -1.90294368575539      1.00721345591685      1.29515994614439
  N   1.41562913193588     -0.76453592691855     -1.12858023770029
  H   0.83249689060160     -0.85086884198935     -1.94723859452875
  H   2.35102659808061     -0.43081188140463     -1.30508538845604
  C   1.64673254111326      0.17370477326430      1.04990868092722
  N   2.32627480640069      0.48710264813357      1.96017894233645
