13
Coordinates from ORCA-job run
  C   -0.55377960550565      0.01331622097967     -0.12774423411937
  C   0.81272507458665      0.01946712901704      0.03180564067636
  N   -1.43122515790995     -0.21032370896836      1.00195315674687
  O   -0.93054845500340     -0.50704213683161      2.09367434968045
  O   -2.64012063625430     -0.06375267701578      0.80574040995499
  N   -1.23132465556861      0.09230982927443     -1.32915139786318
  H   -2.13462627345501      0.53328165896944     -1.25676936155731
  H   -0.67610355238375      0.39224966560424     -2.11386929394904
  N   1.55261949534744     -0.10229580261960      1.19907711082161
  H   2.48820852751256     -0.45027565544148      1.05186264753311
  H   1.05382161098558     -0.53806315882394      1.95893636561991
  C   1.55697945340831      0.29948441257804     -1.15558919974551
  N   2.13437417424012      0.52064422327789     -2.15892619379888
