13
Coordinates from ORCA-job run
  C   -0.60567855669295      0.03188689047641      0.06588500613519
  C   0.74766689364881     -0.10591098470577     -0.03236731939812
  N   -1.48804398704647     -1.11665827731559      0.30846227918291
  O   -0.99247029701877     -2.14419004503117      0.76067334245406
  O   -2.67585969594041     -0.95344022624111      0.02345854909109
  N   -1.25534715898895      1.22466666241852      0.00390123215626
  H   -0.69156199876371      1.94683733442546     -0.42519724930503
  H   -2.21924625305824      1.16359419836114     -0.28793327105734
  N   1.46480991700600      1.10884639092007     -0.27456956346254
  H   2.25789241848277      0.93717261088962     -0.88007365377755
  H   1.81098209801665      1.50447970288759      0.59382362874765
  C   1.46126695664156     -1.33282605123416      0.06075212056274
  N   2.18558966371372     -2.26345820585103      0.08318489867067
