13
Coordinates from ORCA-job run
  C   -0.55999544276632      0.03088153900066     -0.13487881442305
  C   0.80552668851164     -0.02215576981977      0.03240183388503
  N   -1.44598902387764     -0.25331911055097      0.96900463204528
  O   -2.64668249283803     -0.03039020652063      0.79592830932781
  O   -0.96195668984135     -0.67647984442573      2.02774320341351
  N   -1.22838109832053      0.23023590896146     -1.33149771606616
  H   -2.09565926794244      0.73085668651875     -1.20698054999635
  H   -0.64817319961939      0.58287683297225     -2.07899757374198
  N   1.52607636570858     -0.29253773640069      1.17581955328698
  H   1.01711770993141     -0.76644577809201      1.90466157719762
  H   2.48387989852664     -0.56097744239590      1.03284009830231
  C   1.57076198544188      0.35743468782827     -1.11334222396644
  N   2.18147456708556      0.67102023292431     -2.07170232926454
