13
Coordinates from ORCA-job run
  C   -0.56917472012280      0.06617946129014     -0.06741161401086
  C   0.77970015830841     -0.20373804629212     -0.09444178924738
  N   -1.31643929329318     -0.01115509664782      1.16883249247215
  O   -2.44332551768372      0.49023927416683      1.16601526198744
  O   -0.78559530825943     -0.53585418683013      2.15635559468496
  N   -1.35962168533606      0.37183707735431     -1.16190065486120
  H   -0.83921451503781      0.56859345220234     -2.00457635728563
  H   -2.06494116740961      1.06512552313567     -0.95736276654127
  N   1.56601108953963     -0.80363594491963      0.87368465945383
  H   1.14312910113298     -0.83891231044474      1.78868295030936
  H   2.53134648785247     -0.51110611739080      0.86163354987369
  C   1.42444667976274      0.04916596448394     -1.34687758899604
  N   1.93267869054640      0.29326094989200     -2.38163373783904
