13
Coordinates from ORCA-job run
  C   -0.59256424599146      0.07169758521742      0.11925408462684
  C   0.72817936194949     -0.16932243228887     -0.12193082756263
  N   -1.57319840984681     -1.01445983624988      0.23580207923052
  O   -1.15822197524652     -2.15570078920362      0.41141634672321
  O   -2.75676900554468     -0.68549969024195      0.13337452468682
  N   -1.10934568078387      1.31283898255689      0.32973272343276
  H   -0.50943787393752      2.04289297966425     -0.03301031771837
  H   -2.09507088550798      1.39334277990983      0.12931811334059
  N   1.55120707824345      0.99760027795561     -0.20367216769795
  H   2.31539517623974      0.85127359262513     -0.85100543059384
  H   1.94275575205525      1.23076737822979      0.70365845951655
  C   1.31458788754119     -1.44944542586545     -0.31995695914574
  N   1.94148282082971     -2.42598540230915     -0.53198062883878
