13
Coordinates from ORCA-job run
  C   -0.54043211901116      0.14039767403349     -0.04948225549436
  C   0.81108969081784     -0.13548663474322     -0.05731664212319
  N   -1.34972646641663     -0.11727130986286      1.11759471565458
  O   -0.81196736528579     -0.60252044935998      2.12359593322936
  O   -2.55014940280850      0.16524345455769      1.04244967423013
  N   -1.22793663829061      0.77616135229462     -1.07431911417881
  H   -2.21642962809069      0.57018797562802     -1.03289486677719
  H   -0.83593747717581      0.62964887388096     -1.99340159861703
  N   1.58582293358877     -0.76738770006825      0.89539587859510
  H   2.56739698513728     -0.55142257145284      0.83258898864907
  H   1.19758047918307     -0.76554089616875      1.82615506208402
  C   1.46079788662313      0.17683370204368     -1.29291691027431
  N   1.91089112172909      0.48115652921744     -2.33744886497736
