13
Coordinates from ORCA-job run
  C   -0.60159614194169      0.07481108206293      0.02381137376346
  C   0.73853207513848     -0.16660627457582     -0.05461840872934
  N   -1.58287924954601     -1.01308378412538      0.11800739134189
  O   -2.69772379480119     -0.69705738131035      0.53798488050819
  O   -1.23187498740306     -2.14240203941402     -0.20981326320809
  N   -1.15354493160079      1.31728346291925     -0.03043646951063
  H   -0.48357586384916      2.04198124908095      0.19430098596566
  H   -2.06188001812504      1.39136528624528      0.40247806872562
  N   1.56113270467576      1.00003571152164     -0.14150607065201
  H   1.73465111768124      1.25190461051523     -1.10923520128551
  H   2.45316805795605      0.84212093009053      0.30985384859985
  C   1.34420151868097     -1.45325237301807     -0.03563870773842
  N   1.98138951313442     -2.44510047999216     -0.00418842778068
