13
Coordinates from ORCA-job run
  C   -0.57203314870045      0.04911676136340      0.02894030787757
  C   0.76265635258718     -0.21187663815152     -0.10251079325186
  N   -1.54127543370506     -1.03329842433102      0.21705989209765
  O   -2.61097479945046     -0.69995741602874      0.73091721632824
  O   -1.23416235036875     -2.17235325190801     -0.11972324191057
  N   -1.16303847032495      1.29121091869008      0.02756168264286
  H   -1.85084064272741      1.46428304785913      0.74267014644102
  H   -0.58181977102021      2.07285973583696     -0.21802810126623
  N   1.74389234057481      0.77729030487520      0.02896537556435
  H   1.41423449504376      1.69625816732271      0.27445101352146
  H   2.44667381152640      0.78729465014667     -0.69470958652203
  C   1.30045495443983     -1.51282150726815     -0.34340907356899
  N   1.88523266212531     -2.50900634840671     -0.57318483795349
