13
Coordinates from ORCA-job run
  C   -0.54151519749161      0.12249111923762      0.04439183524627
  C   0.81573197835647     -0.04735185635675      0.15284058916327
  N   -1.24038447104805     -0.27892258344987     -1.16788393564552
  O   -2.46607020721451     -0.15798878926676     -1.16874545835287
  O   -0.58345219155029     -0.72404943949215     -2.11987906105894
  N   -1.28496528081286      0.64591073635771      1.10773424891658
  H   -1.68152329769632      1.54872467340808      0.87456576802590
  H   -2.04816020816155      0.02830659587296      1.35606222615806
  N   1.70773958841438     -0.44708829638175     -0.79271210314215
  H   1.32554264155899     -0.86269583980620     -1.62784376234348
  H   2.61294109988255     -0.75016975462769     -0.47485588677399
  C   1.40448666933886      0.32840631698298      1.41247746105023
  N   1.97862887642397      0.59442711752183      2.40384807875665
