13
Coordinates from ORCA-job run
  C   -0.54171088243816      0.06867679851072      0.07705354995162
  C   0.77945101666726     -0.20783018277056     -0.12271136791941
  N   -1.55249614509620     -0.97464022239105      0.18885628824777
  O   -2.70428477207440     -0.58927198208663      0.41290649609075
  O   -1.20572205311885     -2.14714892103262      0.07753769558875
  N   -0.95529085361338      1.38273381202180      0.26173545578169
  H   -1.91816682974003      1.42165855974994      0.56946517387089
  H   -0.81900180715576      1.94901851549154     -0.56853398765325
  N   1.67454967613470      0.85586332346519     -0.17886500581296
  H   2.63829505834016      0.59076254086139     -0.03847930591618
  H   1.38151403843524      1.63106498406438      0.40597497943235
  C   1.31742053290804     -1.49612428102694     -0.41758134983687
  N   1.90544302075139     -2.48576294485717     -0.66635862182517
