13
Coordinates from ORCA-job run
  C   -0.57220099921491      0.04513366457866     -0.01597493511579
  C   0.77084742748410     -0.20325219591786     -0.04566349837753
  N   -1.54312337117839     -1.04794506589233      0.07540539948165
  O   -1.20172485224820     -2.17702495286130     -0.26178495711667
  O   -2.65176697524192     -0.73324770612239      0.51290734571343
  N   -1.17490823590374      1.28172594272512     -0.04729500363558
  H   -0.58037116958865      2.07395980371595     -0.21578274016716
  H   -1.92227115365192      1.43021499223127      0.61185630217909
  N   1.73071513561827      0.79219624357371      0.17402233238173
  H   1.37399130213607      1.70618747098027      0.39998904082791
  H   2.48496140163947      0.81716968372101     -0.49568588824677
  C   1.33756692651624     -1.49768427181405     -0.25221195554786
  N   1.94828456363358     -2.48743360891806     -0.43878144237645
