13
Coordinates from ORCA-job run
  C   -0.57034971491594      0.08154388142934     -0.15666282996700
  C   0.77507767625563     -0.02546411416324     -0.03036262537678
  N   -1.36082008769800     -0.02675131680500      1.07352976323267
  O   -2.06179723626856     -1.03417232914966      1.15223179303822
  O   -1.27706886803743      0.87606676615607      1.89316300449136
  N   -1.33182880690937      0.38091534351245     -1.25113631269723
  H   -2.19647653821044     -0.13758192807301     -1.31200743723680
  H   -0.82490652164956      0.40451472194005     -2.12783342809732
  N   1.32121630255459     -0.22742127106147      1.26507186900377
  H   1.74966553496813      0.60594473281775      1.64053134956802
  H   1.98979324985893     -0.98737899206822      1.27305527624714
  C   1.56999619745624      0.03057556647045     -1.21835517824910
  N   2.21749881259577      0.05920893899448     -2.20222524395694
