13
Coordinates from ORCA-job run
  C   -0.54173692245883      0.07296792707780      0.07603517628176
  C   0.77790040778646     -0.21393214347885     -0.11766159166643
  N   -1.56681544220930     -0.96048461825471      0.14317028516436
  O   -1.23053108584393     -2.13439683307466      0.01540849763065
  O   -2.71877818105281     -0.56646081772015      0.34977750517226
  N   -0.94272486993951      1.38625291170007      0.28832222982616
  H   -0.78630893276562      1.97265875281661     -0.52411262027189
  H   -1.90944338308822      1.43004521381458      0.58278934415668
  N   1.68633802640888      0.84046423353667     -0.13629877387835
  H   2.64501276681144      0.55850114697935      0.00653599957505
  H   1.39848916125507      1.60160705045676      0.46927611392715
  C   1.30452766831213     -1.49985972844191     -0.44234470584092
  N   1.88407078678422     -2.48936309541157     -0.71089746007647
