13
Coordinates from ORCA-job run
  C   -0.58255576062369      0.06946540367509      0.06942456558700
  C   0.75131006732459     -0.18996207139920     -0.05532638726549
  N   -1.52428784940217     -0.91160805160916      0.60005266674072
  O   -1.14186472025927     -2.06935633657185      0.74443538919467
  O   -2.65049352927720     -0.48776319364228      0.87334013555428
  N   -1.14525725149072      1.24183177327066     -0.36273556202519
  H   -0.50130260296228      2.02093906059899     -0.28988348626932
  H   -2.06101410553387      1.41025664606382      0.02930255227307
  N   1.52782993861818      0.84894479362530     -0.62550892125578
  H   2.51920479240631      0.68055081125571     -0.53006103179537
  H   1.29327262148123      1.00315436557822     -1.60057221024780
  C   1.41217485906162     -1.36306913365284      0.39923191532233
  N   2.10098354065730     -2.25438406719246      0.74830037418689
