13
Coordinates from ORCA-job run
  C   -0.54731724883646      0.06412553494591      0.01662056051380
  C   0.79038680031714     -0.20137369429204     -0.02100570650302
  N   -1.55596955421969     -0.98670188112150     -0.00798724720587
  O   -1.18791378815207     -2.15741283092515     -0.04682200775143
  O   -2.73141058730435     -0.60775408751100     -0.00999234493562
  N   -0.99347538916172      1.38085172905115      0.00246264592844
  H   -1.99309562657807      1.42465747973062     -0.14694020612244
  H   -0.73395645136889      1.88339583154839      0.84431611238206
  N   1.67635663516530      0.87121880556552     -0.02856958658277
  H   1.28662083788325      1.68252013116898     -0.49648977850410
  H   2.60533852974435      0.63485623609840     -0.34491279269931
  C   1.37787880832111     -1.49758579276963      0.08316373393479
  N   2.00655703419010     -2.49079746148966      0.15715661754548
