13
Coordinates from ORCA-job run
  C   -0.52811289623955      0.06041276158691      0.13560304916257
  C   0.76806454885908     -0.19268951222933     -0.20783315348968
  N   -1.49292578815327     -1.00166510176770      0.39020297751115
  O   -1.13647139151528     -2.16888745244393      0.25532136178884
  O   -2.61522707957532     -0.63627788800153      0.75367411304165
  N   -0.94783706344352      1.37246893720458      0.33306770550149
  H   -0.97592988248710      1.90134054196321     -0.53187997794297
  H   -1.84917986830324      1.39816238024660      0.79188149877299
  N   1.62674969402600      0.88239290519302     -0.39643065593702
  H   1.36990576083959      1.68125157577737      0.17260373994431
  H   2.60657172341832      0.64577098379574     -0.34881844097877
  C   1.29946894279875     -1.47876655193053     -0.52883232258901
  N   1.87692329977555     -2.46351357939439     -0.81755989478555
