13
Coordinates from ORCA-job run
  C   -0.57605540187239      0.07148671843838      0.08049381284246
  C   0.74693261601149     -0.20450188814034     -0.10869051806702
  N   -1.59081524316382     -0.97264484258016      0.15908448483958
  O   -1.22218061739675     -2.14129051083573      0.23750457910728
  O   -2.76414716681799     -0.59038514406890      0.13452733402369
  N   -1.02986307117214      1.35031618828252      0.28787353106459
  H   -2.03058428371567      1.43417857286589      0.17576125479129
  H   -0.49169666423626      2.03292501908996     -0.23346471208024
  N   1.61488027899357      0.91130364811984     -0.11687385985274
  H   2.56102785199043      0.66227260346287     -0.36708242372235
  H   1.60128603073932      1.40700738579186      0.76837437221484
  C   1.29404290376767     -1.48790707155705     -0.37908431865589
  N   1.88717276687254     -2.47376067886914     -0.63742353650548
