13
Coordinates from ORCA-job run
  C   -0.54131754692043      0.07197820575228      0.07286065354367
  C   0.77954559197884     -0.21197427370143     -0.11709804599417
  N   -1.56360912991443     -0.96353360732849      0.14306885207346
  O   -1.22537083107627     -2.13666312047505      0.01241692732912
  O   -2.71573509351436     -0.57245733119828      0.35478941276505
  N   -0.94434616279093      1.38586012491756      0.28369698161847
  H   -1.90798291091589      1.42604926078169      0.58884235078928
  H   -0.80328281260529      1.96711733663209     -0.53536945504759
  N   1.68571139268298      0.84291910609183     -0.13614801980766
  H   1.39069736347700      1.60952570417343      0.45877105538040
  H   2.64491977473294      0.56551360736427      0.01107271468758
  C   1.30976316243071     -1.49804729790863     -0.43590736463011
  N   1.89300720243512     -2.48628771510127     -0.70099606270749
