13
Coordinates from ORCA-job run
  C   -0.55530052665631      0.06748347292478      0.07819968626651
  C   0.76342875136902     -0.22210306054868     -0.12106597600950
  N   -1.57701783818676     -0.95908921174285      0.19341944801160
  O   -2.74231572710559     -0.56033513723144      0.29040539228674
  O   -1.22724859666816     -2.13676665820798      0.19691515304803
  N   -0.97368191730675      1.36995161216935      0.26900967843562
  H   -1.98130961426199      1.43599860590387      0.32155203604747
  H   -0.57356341121950      2.00710134773416     -0.41125494227413
  N   1.65297003413046      0.86228757164885     -0.14403256805674
  H   2.62350393901366      0.58777324835796     -0.11295094627068
  H   1.43201704829025      1.55272832359448      0.56542920984093
  C   1.29049946902838     -1.50664938194348     -0.42569671671669
  N   1.86901838957328     -2.49638073265901     -0.69992945460915
