13
Coordinates from ORCA-job run
  C   -0.55136034029068      0.07884135791798      0.05425926329552
  C   0.82186254267932     -0.01326965091862      0.08773853885661
  N   -1.28545811753685     -0.26597499850951     -1.14031165893740
  O   -2.50718517194295     -0.08668196671915     -1.11995052209317
  O   -0.66414744921155     -0.70789292127733     -2.11520217229167
  N   -1.32053612202583      0.60988396287336      1.08163468822581
  H   -1.10751820812994      0.23205310129861      1.99242634814217
  H   -2.30470596300247      0.56551185666446      0.86066391035899
  N   1.67547486311845     -0.62813120090773     -0.80914505224382
  H   2.62406427204279     -0.28850164845668     -0.77226350906422
  H   1.29928827548177     -0.74072149938263     -1.73748672979090
  C   1.42274785742804      0.44412554414273      1.30047003948212
  N   1.89547356138990      0.80175806327452      2.31816685605997
