13
Coordinates from ORCA-job run
  C   -0.59585458095264      0.07965664861472      0.12765521582024
  C   0.72717171401699     -0.16776676605485     -0.09385245099547
  N   -1.58610303283835     -1.00297197671792      0.18974472669678
  O   -2.75731938808913     -0.67337581734802     -0.00320893461965
  O   -1.18814105311962     -2.14111257593168      0.41729091831633
  N   -1.11525682145955      1.31379657813449      0.35562416549772
  H   -2.09026806271295      1.41514333748252      0.11833342203729
  H   -0.48437359745622      2.05074176792429      0.06838736306949
  N   1.55937611226494      0.99840813782756     -0.15417094779836
  H   2.10202567903251      1.09692421478364      0.69741928054151
  H   2.21120888242011      0.92379434028518     -0.92558491101218
  C   1.30205918891958     -1.45350626304690     -0.29431711613400
  N   1.91647495997433     -2.43873162595303     -0.50232073141968
