13
Coordinates from ORCA-job run
  C   -0.52633849673561      0.07286585533761      0.09990535768505
  C   0.79451745627136     -0.23123614802439     -0.06261813743874
  N   -1.55377194198682     -0.96143963246372      0.16289067731929
  O   -2.69731113337036     -0.57480232876288      0.42776089402122
  O   -1.22845984466215     -2.13197934998416     -0.01267806459383
  N   -0.93050865355913      1.39027366698915      0.32181055369089
  H   -0.88038301103763      1.93462400512445     -0.53862958235347
  H   -1.86470103292311      1.43324990754490      0.70071318886549
  N   1.77057640448349      0.72475046657240      0.16383737706200
  H   1.39966276254389      1.63711822770730      0.37718682199836
  H   2.55409524943571      0.72996161485377     -0.46797062792239
  C   1.30354683307630     -1.51716399246402     -0.42770719919442
  N   1.86107540846407     -2.50422229243039     -0.74450125913945
