13
Coordinates from ORCA-job run
  C   -0.50969499382325      0.19468545645270      0.19528857868471
  C   0.79658992254470     -0.09855002927796     -0.13854492129349
  N   -1.54508453705154      0.20137269122713     -0.81392075607330
  O   -2.69528707641935      0.42638595735373     -0.42528137091374
  O   -1.24444948724130     -0.08094997858183     -1.98378592704815
  N   -0.96799764722056      0.54884426782650      1.45459235496571
  H   -0.32060554875685      0.32435052203157      2.19788401499755
  H   -1.90280678582682      0.20297841329395      1.62033172366380
  N   1.34799836044330     -0.17299385298281     -1.40190990893047
  H   2.27051209996120     -0.56717343050755     -1.46489201346258
  H   0.70495433556328     -0.44227994402339     -2.12791926613669
  C   1.69444971632405     -0.19956676232885      0.96720123517186
  N   2.37242164150314     -0.33610331048318      1.92095625637481
