13
Coordinates from ORCA-job run
  C   -0.51683411666743      0.09201533554326      0.07578621348968
  C   0.79893792874575     -0.23457573069011     -0.05734860766779
  N   -1.56086396598162     -0.92563485043173      0.09216031500576
  O   -2.68228758115563     -0.53843202566551      0.43503120312573
  O   -1.27382698882142     -2.07831782191472     -0.22362552154579
  N   -0.88843458731858      1.42427674286572      0.31185356249329
  H   -1.07926327022339      1.91602876826008     -0.56467745078364
  H   -1.72610823003973      1.45673667094470      0.87015052288119
  N   1.77579847008614      0.70807770191198      0.15108293000220
  H   1.41277621334876      1.63817844590695      0.29805592871334
  H   2.60576092142874      0.62723170430008     -0.41756165547977
  C   1.29101370321146     -1.53904144490153     -0.35526311594098
  N   1.84333150338696     -2.54454349612918     -0.61364432429322
