13
Coordinates from ORCA-job run
  C   -0.54404428023479      0.08275952861811      0.00848949781570
  C   0.78417832734958     -0.22677297568881     -0.02679112012558
  N   -1.58626555280016     -0.90633163895647     -0.23227010823187
  O   -1.25773561633739     -2.06889054660990     -0.45165566965791
  O   -2.74657773493571     -0.48363382226831     -0.21710602043246
  N   -0.94320078728172      1.40063211082369      0.20465301191304
  H   -0.71923743698017      1.73464865217153      1.13587152316698
  H   -1.93070461401162      1.51215038628736      0.01492316567762
  N   1.70662624375365      0.79230753152955      0.18286255646796
  H   1.36253288443370      1.68978965173374     -0.14098452072180
  H   2.63850667291471      0.57837341772267     -0.14048964464038
  C   1.32199148825558     -1.54492871649070     -0.12914029200023
  N   1.91193040587434     -2.56110357887244     -0.20836237923107
