13
Coordinates from ORCA-job run
  C   -0.57193612292937      0.05933167903512      0.03047409260177
  C   0.76617148058079     -0.19757297056153     -0.04462375201404
  N   -1.57115774330493     -0.99750548288637      0.09862440031941
  O   -2.73196371076320     -0.63333825574525      0.30972443348739
  O   -1.20630376796103     -2.15943046803415     -0.05922037259042
  N   -1.06035132784523      1.34510880653949     -0.03541592411585
  H   -2.04462559197081      1.39385646563920      0.18938831526599
  H   -0.49156588727745      1.99573101785452      0.49468268258765
  N   1.61199908502501      0.92235483378433     -0.15550978482260
  H   1.33240418233581      1.53408092672558     -0.91528133300896
  H   2.58742986939884      0.67262271135765     -0.22945556151665
  C   1.37106126134033     -1.47680945605069      0.09228540336258
  N   2.00883827337124     -2.45942980765790      0.22432740044373
