13
Coordinates from ORCA-job run
  C   -0.58033384341689      0.01520109636081     -0.14301114287816
  C   0.76911661144131     -0.04384787756338     -0.03966172509691
  N   -1.35575806914096     -0.05778970131061      1.10117766602416
  O   -1.84087979554236      1.00658014823097      1.48360129197329
  O   -1.47579932251503     -1.15722932915882      1.62641534849187
  N   -1.36953474884347      0.04393514791082     -1.26047160763074
  H   -0.86766696824312      0.22412237046965     -2.11923930877245
  H   -2.19967702514353      0.61184550313407     -1.16358703296037
  N   1.36363015585138     -0.21816021851369      1.23986235252397
  H   1.72243180195886     -1.15711812355510      1.36223907581806
  H   2.12279188060695      0.43716774563496      1.37281032218843
  C   1.53917182633322      0.07956876432901     -1.23783401371650
  N   2.17450749665364      0.21772447403131     -2.22130122596461
