13
Coordinates from ORCA-job run
  C   -0.56898775907238      0.07081144592028      0.19904328187245
  C   0.75675003076264      0.01846020426680     -0.06986729520020
  N   -1.49003354433187     -0.27593333066398     -0.88517384565453
  O   -1.71453684055031      0.58178546435450     -1.72936253507936
  O   -1.97052263737638     -1.40581311280784     -0.82650017138869
  N   -1.20892793405474      0.54279101225774      1.31314030831356
  H   -2.05615188575882      0.04805457483729      1.56046178400846
  H   -0.60404435054113      0.68119018804001      2.11101661532678
  N   1.19719950432728     -0.39984988561981     -1.35886637748994
  H   1.61899855084594      0.37053711612859     -1.86797120874084
  H   1.90097761513492     -1.11639333469783     -1.25754638351790
  C   1.67707157566492      0.31777424252393      0.98294235783025
  N   2.46120767494993      0.56558541546031      1.82868346971996
