13
Coordinates from ORCA-job run
  C   -0.53966549842931      0.03356245019777     -0.12954511775599
  C   0.82930581306988     -0.02946433444864     -0.06187387164615
  N   -1.33344181788900      0.16190609701179      1.08380100254265
  O   -0.75207650494800      0.26982912811846      2.17310405997686
  O   -2.55792853500212      0.14615238769649      0.95125487096330
  N   -1.20108343871863     -0.06670865249383     -1.35833034007423
  H   -1.89734224532613     -0.80188511252087     -1.33740078367752
  H   -1.67189999733961      0.79765772289357     -1.59879129617271
  N   1.64293597375524      0.14455289454221      1.01446867689910
  H   1.20150235369135      0.11970591722531      1.92048650041890
  H   2.59058053724950     -0.18324286942712      0.93244826159294
  C   1.51877135520304     -0.21468317837282     -1.31263570616664
  N   2.17234200468380     -0.37638245042232     -2.27698625690052
