13
Coordinates from ORCA-job run
  C   -0.54531443841884      0.06497681702004      0.03395451803540
  C   0.79053400470807     -0.20189740130199     -0.04263556188112
  N   -1.55544203906792     -0.98480816625801      0.03787675078940
  O   -2.73016156565800     -0.60433431715138      0.06107034512368
  O   -1.18992805268623     -2.15634138692127     -0.00177856494616
  N   -0.98953673251211      1.38309024280090      0.03156788233997
  H   -1.99098542092062      1.42741490211547     -0.10502378087221
  H   -0.72207296133478      1.87993427740102      0.87438103810391
  N   1.67785707985043      0.86803502036879     -0.07501970956393
  H   2.59603372101494      0.63301280443319     -0.42203668588667
  H   1.27320173006176      1.68460190153336     -0.52024407872846
  C   1.37894077444593     -1.49976280731762      0.03924972806545
  N   2.00687390051736     -2.49492188672250      0.08763811942073
