13
Coordinates from ORCA-job run
  C   -0.52174504683093      0.06086005069141      0.16381570013948
  C   0.74918330736637     -0.19342150054805     -0.26231214104359
  N   -1.58313571838909     -0.93546530545356      0.10416897098612
  O   -2.69817977331093     -0.56004988053773      0.47939776866582
  O   -1.31906628005370     -2.05489929115236     -0.32563495706283
  N   -0.86059672293185      1.33450906864553      0.60849471319326
  H   -0.39526169128208      1.57451767456594      1.47716033965903
  H   -1.86317401596537      1.43099094449487      0.70327621431887
  N   1.68669096862328      0.83133151997387     -0.19609066001653
  H   1.26088643545340      1.74474370720739     -0.31031798568429
  H   2.49599981650371      0.68773891743452     -0.78204798325475
  C   1.24810251698283     -1.47204072907917     -0.65423359607409
  N   1.80129620383436     -2.45081517624265     -1.00467638382650
