13
Coordinates from ORCA-job run
  C   -0.53909368025184      0.08054109355854      0.07440534402158
  C   0.77992056127964     -0.22326065242999     -0.09651262047004
  N   -1.56255161520851     -0.94178291177604      0.24691156353820
  O   -2.72414946757411     -0.53319895722385      0.34170307071822
  O   -1.22229175175741     -2.12149238363550      0.26405119040763
  N   -0.95791232193223      1.40569119320951      0.01214446291600
  H   -0.61450961511561      1.95318225264191      0.79384106480910
  H   -1.96608618631323      1.46473243382375     -0.04751213954821
  N   1.68020141200324      0.81900671794567     -0.28588747585535
  H   2.55858866490891      0.53695316012342     -0.69530249907330
  H   1.25176171257637      1.61186552356824     -0.75123232353114
  C   1.35114324147494     -1.52499676501834      0.03415510185555
  N   1.96497904590985     -2.52724070478731      0.10923526021174
