13
Coordinates from ORCA-job run
  C   -0.53844611003872      0.05806884863490     -0.12828483797188
  C   0.82815400464429     -0.04717105433424     -0.06225626501701
  N   -1.33233813517575      0.12876364298860      1.08925046056126
  O   -0.75167771335357      0.14990185948943      2.18407836837631
  O   -2.55630619067923      0.15629900381772      0.95414546734524
  N   -1.19744672706564      0.05769020215988     -1.36272533145572
  H   -1.89824591698814     -0.67268784373033     -1.40015380881531
  H   -1.66377324429773      0.94110992087790     -1.53297294241976
  N   1.64158027356915      0.02534645798465      1.02479446456851
  H   2.58321126253290     -0.31383614295819      0.92286416337650
  H   1.19758491498769     -0.04382987073934      1.92722973278969
  C   1.51769438172641     -0.16300537672851     -1.32141347448710
  N   2.17000920013833     -0.27564964746246     -2.29355599685074
