13
Coordinates from ORCA-job run
  C   -0.54814742107654      0.03145314406697     -0.11552838250830
  C   0.80488381684795     -0.19908690564774     -0.05433268574934
  N   -1.34885893045767      0.05334798808587      1.09339696668219
  O   -2.55997681245730      0.26826041381283      0.96425410498822
  O   -0.79873836778331     -0.17294234518239      2.17813730178099
  N   -1.24827034629170      0.17493224634916     -1.31371004612663
  H   -2.23959277018743      0.23817544618521     -1.13621614780912
  H   -0.93346011307327      0.94402243215180     -1.88481096331630
  N   1.59443546599992     -0.43423163865856      1.03636394187499
  H   1.15576224365648     -0.26029384602688      1.93072222289114
  H   2.55310268602085     -0.15752848350363      0.94344968353679
  C   1.48365189564299     -0.22956698738956     -1.31395182860978
  N   2.08620865315902     -0.25854146424308     -2.32777416763484
