13
Coordinates from ORCA-job run
  C   -0.53659303805895      0.06674953215898      0.10451963592072
  C   0.77572014009649     -0.20443409367868     -0.15162039432385
  N   -1.55035347069407     -0.97625024934899      0.19076937604755
  O   -2.70789759356353     -0.59041748956902      0.38152026708460
  O   -1.20676041439928     -2.14667163655876      0.05049007217049
  N   -0.96243468847474      1.38568354089464      0.21705825891066
  H   -1.97242506439554      1.44276556020398      0.21490085471385
  H   -0.57965535113280      1.84474408366244      1.03640097578831
  N   1.66436717088972      0.86096229829862     -0.24907953695262
  H   1.21727748944489      1.69769372432022     -0.60798179951035
  H   2.52875969347010      0.63468344612404     -0.71863352344212
  C   1.35514203359982     -1.50798077386227     -0.19899978844177
  N   1.97385309321788     -2.50752794264518     -0.27034439796547
