13
Coordinates from ORCA-job run
  C   -0.52802662169235      0.10149818650083      0.02918280090664
  C   0.79298481413262     -0.23568097783241      0.00284247471062
  N   -1.58718076275956     -0.90110109814563     -0.05369242447237
  O   -2.72246142222966     -0.46345587118158     -0.26123431281054
  O   -1.29539862696184     -2.08716616200564      0.06971030419221
  N   -0.89153872299738      1.45200504513983      0.06237192150674
  H   -1.79407995028141      1.58379555028001     -0.37785722843887
  H   -0.93402239876347      1.80964835805683      1.01101870116573
  N   1.75306139235656      0.75485547487749      0.08278228969772
  H   1.39499274938005      1.65893829781858     -0.20374302640390
  H   2.64904605661090      0.50993627491135     -0.31223490479037
  C   1.30051059240301     -1.57441164314221     -0.00885082971063
  N   1.86311290080255     -2.60786143527744     -0.04129576555298
