13
Coordinates from ORCA-job run
  C   -0.49394354788517      0.08515490822157      0.24158511786634
  C   0.81275772958232     -0.13913234081235     -0.11218142998209
  N   -1.47530947813674      0.46553808071738     -0.76369688146092
  O   -1.10430754694571      0.62839020231155     -1.93503865531075
  O   -2.63880257439979      0.59706094104254     -0.38185586166595
  N   -0.91805116474604     -0.08401168109179      1.56468556897131
  H   -1.22785595801644      0.79316461462139      1.96678099853142
  H   -1.69132618711589     -0.73611216700105      1.61625876534568
  N   1.42048131434775      0.05290142492248     -1.31299279154432
  H   2.31108175164934     -0.39173251206131     -1.45746727997883
  H   0.81697418430931      0.19955857555893     -2.10762124594768
  C   1.69496150186383     -0.55775167473889      0.94680439741050
  N   2.49333997549323     -0.91402837169046      1.73373929776529
