13
Coordinates from ORCA-job run
  C   -0.58737207114812      0.06790370667032      0.02719709603328
  C   0.75116479618544     -0.19254341079336     -0.02658012871878
  N   -1.59113614097373     -0.99257750228982      0.07018636444215
  O   -2.74322305441004     -0.63599867019302      0.33050663703167
  O   -1.23025980548370     -2.14647375023195     -0.14296547990799
  N   -1.09213080763575      1.33930140141745     -0.03670222478330
  H   -0.44905444513549      2.02244420099196      0.34584993973090
  H   -2.04292985658305      1.40753125541574      0.29760924497284
  N   1.59227549474622      0.94566128344443     -0.11762980126436
  H   1.49563528264964      1.41510317567590     -1.01204506495824
  H   2.56234908416710      0.71558513843658      0.04516073789249
  C   1.34975833528861     -1.47816455261260      0.06221757908124
  N   1.98392318833286     -2.46777227593164      0.15919510044810
