16

C	-0.064342	-0.005486	-1.523485
C	0.0	0.0	0.0
Cl	-0.446706	-1.794351	-2.182799
H	1.095576	0.0	0.0
H	-0.347364	0.987736	0.316736
N	-1.284709	0.695888	-2.139554
O	-2.294818	0.788197	-1.447931
O	-1.174264	1.120756	-3.28614
N	1.090995	0.524464	-2.015028
H	1.93206	0.324345	-1.396566
H	1.200552	0.50518	-3.015933
C	-0.6729	-1.108429	0.777967
H	-0.588876	-0.892399	1.846861
H	-1.731992	-1.201678	0.527666
H	-0.185377	-2.064773	0.593028
F	2.769243	0.0	0.0
