16

C	-0.099426	0.050306	-1.527315
C	0.0	0.0	0.0
Cl	-0.236263	-1.638333	-2.173197
H	1.094431	0.0	0.0
H	-0.471226	-0.891182	0.412522
N	-1.403473	0.752017	-1.935038
O	-1.317505	1.906644	-2.353431
O	-2.459216	0.176152	-1.700848
N	1.013563	0.692365	-2.133248
H	0.830868	1.686145	-2.186897
H	1.826744	0.505706	-1.503301
C	-0.481658	1.281884	0.661985
H	0.035058	2.147095	0.239518
H	-0.232444	1.249512	1.725331
H	-1.562337	1.439325	0.568975
F	2.712958	0.0	0.0
