16

C	-0.398805	-0.022125	-1.422412
C	0.0	0.0	0.0
Cl	-2.330576	0.407959	-1.572433
H	1.094174	0.0	0.0
H	-0.360463	0.923462	0.451451
N	0.147937	1.169728	-2.202567
O	0.331806	1.004858	-3.407013
O	0.321317	2.211585	-1.591861
N	-0.11134	-1.16886	-2.124659
H	-0.364905	-1.122812	-3.099627
H	-0.437582	-2.00251	-1.660312
C	-0.464814	-1.231591	0.761554
H	-1.535865	-1.440089	0.655477
H	-0.247207	-1.094322	1.823333
H	0.114252	-2.104393	0.44744
F	2.60808	0.0	0.0
