16

C	-0.066246	-0.033193	-1.522791
C	0.0	0.0	0.0
Cl	-0.437351	-1.834295	-2.14789
H	1.095553	0.0	0.0
H	-0.346415	0.994061	0.297642
N	-1.288015	0.654151	-2.149144
O	-2.287912	0.780558	-1.447718
O	-1.188147	1.036176	-3.311798
N	1.086436	0.495325	-2.025387
H	1.195447	0.455112	-3.026274
H	1.928984	0.305179	-1.406455
C	-0.676007	-1.091979	0.79799
H	-0.595451	-0.855665	1.863641
H	-1.73503	-1.187259	0.545598
H	-0.189693	-2.053356	0.632485
F	2.770074	0.0	0.0
