14

C	-0.55078	0.010534	-1.425485
C	0.0	0.0	0.0
Cl	0.354734	-1.228314	-2.412064
H	1.092295	0.0	0.0
H	-0.326658	0.96178	-1.908631
N	-1.953638	-0.226119	-1.399812
H	-2.09869	-1.142729	-0.986424
H	-2.333833	-0.229156	-2.339953
N	-0.461729	-1.202869	0.700665
H	0.325383	-1.596223	1.204442
H	-1.192264	-0.97796	1.366132
C	-0.45403	1.22612	0.671245
N	-0.81829	2.189079	1.236998
Cl	3.356197	0.0	0.0
