14

C	-0.307851	0.050062	-1.485563
C	0.0	0.0	0.0
Cl	-2.094135	0.163512	-1.78501
H	1.097397	0.0	0.0
H	-0.036909	-0.930452	-1.88836
N	0.353004	1.184215	-2.062828
H	0.353733	1.115312	-3.073264
H	1.320313	1.176761	-1.738875
N	-0.469226	-1.239169	0.598788
H	-1.428894	-1.139687	0.907287
H	0.111094	-1.445276	1.4021
C	-0.474205	1.209165	0.68972
N	-0.873637	2.114967	1.32248
Cl	3.30704	0.0	0.0
