14

C	-0.262202	0.004812	-1.504458
C	0.0	0.0	0.0
Cl	-2.04526	0.035796	-1.867042
H	1.099756	0.0	0.0
H	0.056353	-0.973207	-1.885075
N	0.376586	1.138374	-2.099597
H	1.320168	1.200739	-1.718982
H	0.44114	1.023425	-3.103174
N	-0.46809	-1.170522	0.718617
H	-1.373652	-1.461569	0.369721
H	0.20268	-1.916931	0.589275
C	-0.504884	1.225597	0.62466
N	-0.90912	2.200106	1.139337
Cl	3.300302	0.0	0.0
