14

C	-0.40235	-0.097523	-1.47056
C	0.0	0.0	0.0
Cl	-0.134565	1.521004	-2.297553
H	1.102596	0.0	0.0
H	-1.474291	-0.278929	-1.565922
N	0.346124	-1.162135	-2.036327
H	1.341543	-0.987142	-1.915668
H	0.134113	-1.289888	-3.014954
N	-0.542769	-1.19578	0.674175
H	-0.158814	-1.983517	0.160722
H	-0.121167	-1.228365	1.597877
C	-0.535397	1.189789	0.655814
N	-0.982282	2.109458	1.232544
Cl	3.386272	0.0	0.0
