16

C	-0.020094	0.021819	-0.026732
C	-0.214425	0.325722	-1.535005
F	1.366441	-0.164638	0.124442
H	0.343804	1.22754	-1.790707
C	-0.356821	1.268049	0.695263
N	-0.547611	2.29851	1.223772
N	-0.703257	-1.075165	0.528326
H	-0.676763	-1.858	-0.114079
H	-1.68525	-0.854675	0.726005
N	-1.560903	0.373808	-1.954348
H	-1.848918	1.307954	-2.198197
H	-2.235925	-0.023759	-1.296062
N	0.536949	-0.758912	-2.303118
O	0.147001	-1.916774	-2.172907
O	1.47072	-0.4019	-3.018535
Cl	-3.853767	-0.416808	0.270989
