17

C	0.0	0.0	0.0
C	-0.286724	-0.06041	-1.55275
Br	1.931445	0.0	0.0
H	0.511666	0.553291	-1.979101
N	-0.474296	1.252687	0.632454
O	-0.436976	2.26727	-0.088404
O	-0.553667	1.278103	1.868914
C	-0.472767	-1.149242	0.747561
N	-0.597824	-2.16736	1.334473
C	-1.586307	0.47951	-2.152982
H	-1.872555	1.435059	-1.718058
H	-1.391219	0.630454	-3.228927
H	-2.409988	-0.22387	-2.049617
N	-0.017935	-1.445989	-1.944457
H	0.051149	-1.485507	-2.955111
H	-0.818931	-2.011021	-1.673452
H	-1.94559	0.0	0.0
