17

C	0.0	0.0	0.0
C	-0.252408	-0.006145	-1.55834
Br	1.942226	0.0	0.0
H	0.48213	0.722492	-1.926414
N	-0.456266	1.245044	0.65014
O	-0.524322	1.257518	1.888136
O	-0.425702	2.267858	-0.06102
C	-0.454692	-1.163866	0.729722
N	-0.571433	-2.1696	1.338069
C	-1.593938	0.425156	-2.138395
H	-1.928423	1.36155	-1.697502
H	-2.349607	-0.346608	-2.003522
H	-1.438288	0.587614	-3.219004
N	0.009543	-1.370302	-2.026087
H	-0.049446	-1.369006	-3.039146
H	0.95514	-1.634295	-1.778513
H	-1.872535	0.0	0.0
