17

C	0.0	0.0	0.0
C	-0.33636	0.223685	-1.556552
Br	1.958678	0.0	0.0
H	-1.351454	0.618362	-1.545506
N	-0.466856	1.142476	0.827039
O	-0.47761	2.253135	0.262371
O	-0.504414	0.987563	2.054493
C	-0.442153	-1.249493	0.579058
N	-0.538893	-2.345431	1.012989
C	-0.328392	-1.123133	-2.264594
H	-0.549988	-0.956482	-3.319885
H	-1.076959	-1.795118	-1.838191
H	0.654126	-1.603256	-2.187433
N	0.468449	1.178473	-2.294643
H	1.428344	0.863213	-2.355147
H	0.464622	2.04728	-1.773649
H	-1.994232	0.0	0.0
