17

C	0.0	0.0	0.0
C	-0.240825	-0.154507	-1.570568
Br	1.958486	0.0	0.0
H	0.497918	0.5243	-2.002011
N	-0.410425	1.305263	0.56069
O	-0.494848	1.408553	1.789563
O	-0.380445	2.264255	-0.227231
C	-0.478006	-1.10239	0.798351
N	-0.584572	-2.117574	1.396657
C	-1.582211	0.228988	-2.183193
H	-2.346161	-0.525739	-1.996423
H	-1.930982	1.189317	-1.808287
H	-1.418085	0.29651	-3.267439
N	0.080099	-1.503869	-2.019322
H	-0.536367	-2.156925	-1.54268
H	1.027411	-1.732176	-1.738303
H	-1.862469	0.0	0.0
