13

C	-0.545644	-0.082493	-1.567797
C	0.041401	-0.102277	-0.128155
Br	0.322508	1.318067	-2.63176
H	1.131363	-0.21703	-0.185571
H	-0.392285	-1.004722	0.334068
C	-0.330458	-1.355623	-2.255471
N	-0.1484	-2.403601	-2.756332
C	-1.978085	0.207727	-1.529341
N	-3.137785	0.390093	-1.471372
N	-0.21983	1.136905	0.543143
H	-0.895116	0.993245	1.282732
H	0.753029	1.337425	0.949819
F	2.219988	1.01755	1.156532
