17

C	0.0	0.0	0.0
C	-0.585549	-0.022583	-1.402401
Br	1.935132	0.0	0.0
H	-1.698347	-0.101659	-1.149911
C	-0.510868	1.182663	0.780412
H	-1.609242	1.077092	0.767356
H	-0.212494	2.094933	0.268661
H	-0.125035	1.161231	1.798022
N	-0.387607	-1.287417	0.738805
O	-0.586825	-2.28806	0.060391
O	-0.415454	-1.242022	1.962446
C	-0.138913	-1.12984	-2.251637
N	0.190863	-1.897749	-3.080649
N	-0.321416	1.260091	-2.053156
H	-0.997352	1.384639	-2.797299
H	0.604259	1.239983	-2.469461
H	-3.074023	0.0	0.0
