17

C	0.0	0.0	0.0
C	-0.452243	-0.023772	-1.508105
Br	1.935208	0.0	0.0
H	-1.533138	-0.144985	-1.582903
C	-0.337786	1.301619	0.789606
H	-1.399944	1.434981	0.865295
H	0.105222	2.205942	0.338405
H	0.039018	1.161774	1.807889
N	-0.451203	-1.205142	0.727841
O	-1.75577	-1.600735	0.355966
O	0.323318	-2.112205	1.126096
C	0.104791	-1.224493	-2.164884
N	0.458378	-2.183317	-2.745828
N	-0.124541	1.238991	-2.145201
H	0.764592	1.183261	-2.616894
H	-0.843087	1.501376	-2.806991
H	-1.931873	0.0	0.0
