17

C	0.0	0.0	0.0
C	-0.485749	0.012391	-1.500223
Br	1.93343	0.0	0.0
H	-1.587438	-0.020369	-1.559339
C	-0.401073	1.276797	0.810747
H	-0.038176	1.153364	1.835991
H	-0.062784	2.20292	0.346909
H	-1.501509	1.318749	0.888001
N	-0.399898	-1.225133	0.585712
O	-1.764433	-1.63601	0.370793
O	0.279783	-1.91973	1.472305
C	-0.08154	-1.245626	-2.1601
N	0.235718	-2.203804	-2.771492
N	-0.09303	1.240546	-2.153705
H	0.898763	1.19792	-2.36088
H	-0.616028	1.337353	-3.011134
H	-1.649059	0.0	0.0
