17

C	0.0	0.0	0.0
C	-0.458682	-0.067392	-1.475222
Br	1.942804	0.0	0.0
H	0.245036	-0.737132	-1.986854
C	-0.62715	1.090441	0.815915
H	-1.717593	0.940737	0.781812
H	-0.371529	2.058543	0.38205
H	-0.283678	1.048332	1.84892
N	-0.329688	-1.38384	0.594924
O	-0.890885	-1.40647	1.684501
O	0.035252	-2.358293	-0.048498
C	-0.255021	1.277957	-2.073143
N	-0.135501	2.314272	-2.617713
N	-1.784502	-0.612886	-1.554209
H	-2.154419	-0.504332	-2.492369
H	-2.544054	-0.244474	-0.861553
H	-3.640702	0.0	0.0
