17

C	0.0	0.0	0.0
C	-0.490191	-0.039478	-1.530779
Br	1.930534	0.0	0.0
H	-1.582575	-0.112955	-1.539715
C	-0.392015	1.266619	0.820869
H	0.014671	2.198969	0.401679
H	-1.481775	1.355067	0.871824
H	-0.064771	1.115465	1.856327
N	-0.425985	-1.243841	0.752429
O	-1.776911	-1.571986	0.490701
O	0.359611	-2.193902	1.062513
C	-0.011011	-1.24993	-2.17674
N	0.266232	-2.263841	-2.701998
N	-0.160105	1.140288	-2.308804
H	-0.636552	1.947455	-1.914179
H	0.838609	1.304839	-2.24867
H	-1.750165	0.0	0.0
