17

C	0.0	0.0	0.0
C	-0.49025	-0.040009	-1.53139
Br	1.930397	0.0	0.0
H	-1.582382	-0.113797	-1.539783
C	-0.391464	1.267082	0.821036
H	-1.481295	1.356078	0.871454
H	-0.065103	1.115158	1.856627
H	0.015811	2.199211	0.401833
N	-0.425524	-1.244773	0.751874
O	0.359971	-2.194797	1.058987
O	-1.777454	-1.573542	0.49446
C	-0.009995	-1.249604	-2.177025
N	0.266428	-2.264164	-2.701972
N	-0.160901	1.140677	-2.308296
H	-0.641873	1.946334	-1.915808
H	0.836915	1.308854	-2.24432
H	-1.753504	0.0	0.0
