17

C	0.0	0.0	0.0
C	-0.439906	0.073488	-1.503285
Br	1.944199	0.0	0.0
H	0.238831	-0.59477	-2.042012
C	-0.624157	1.028729	0.893863
H	-1.714787	0.868416	0.84294
H	-0.376826	2.025721	0.525914
H	-0.279846	0.918353	1.921247
N	-0.34101	-1.408174	0.496416
O	-0.238566	-2.324165	-0.314599
O	-0.636507	-1.535662	1.677567
C	-0.138941	1.440435	-1.975919
N	0.077481	2.515978	-2.396098
N	-1.791961	-0.283212	-1.817632
H	-2.522249	-0.013244	-1.078652
H	-1.840922	-1.294757	-1.863521
H	-3.551367	0.0	0.0
