18

C	0.0	0.0	0.0
C	-0.485907	0.126755	-1.453728
Br	1.986619	0.0	0.0
H	-1.569696	-0.020723	-1.354512
C	-0.450452	1.169243	0.85468
H	-0.17789	0.972571	1.892728
H	-1.540621	1.240012	0.778311
H	0.020646	2.100445	0.537187
N	-0.451239	-1.228559	0.59333
H	-0.344115	-1.952731	-0.11199
H	-1.455425	-1.11139	0.748811
N	0.033854	-0.967001	-2.251356
H	0.972358	-0.728036	-2.553977
H	-0.55191	-1.102103	-3.066213
N	-0.156224	1.432053	-2.042585
H	-0.69176	2.143281	-1.552598
H	-0.521694	1.42342	-2.99065
Cl	-3.777849	0.0	0.0
