18

C	0.0	0.0	0.0
C	-0.304308	0.186918	-1.527169
Br	1.978053	0.0	0.0
H	0.22757	-0.649632	-2.01866
C	-0.517823	1.133012	0.855458
H	-1.610386	1.143313	0.771917
H	-0.249734	0.957642	1.898811
H	-0.12186	2.086905	0.514601
N	-0.465571	-1.250938	0.523874
H	-1.46442	-1.156059	0.706355
H	-0.333257	-1.989907	-0.159639
N	0.146281	1.497394	-1.983234
H	1.155827	1.530679	-2.026457
H	-0.229877	1.612581	-2.916475
N	-1.683862	0.086245	-1.921336
H	-2.275435	0.73225	-1.408472
H	-2.070809	-0.822194	-1.702685
Cl	-4.195773	0.0	0.0
