12

C	-0.370903	0.035787	-1.450797
C	0.0	0.0	0.0
Br	-2.295804	0.095099	-1.836398
H	1.095267	0.0	0.0
H	0.07276	0.878808	-1.975569
H	-0.351474	-0.919642	0.470148
N	0.154194	-1.194028	-2.145621
O	0.653812	-1.020347	-3.252937
O	0.020645	-2.269043	-1.573959
C	-0.491357	1.167075	0.701986
N	-0.857819	2.124393	1.277419
H	2.656699	0.0	0.0
