12

C	-0.429952	0.025376	-1.4424
C	0.0	0.0	0.0
Br	0.099072	1.676992	-2.301489
H	1.092534	0.0	0.0
H	-0.002874	-0.792202	-2.019983
H	-0.368208	0.883428	0.524504
N	-1.925194	-0.086122	-1.598338
O	-2.625266	0.705434	-0.974701
O	-2.336594	-0.985918	-2.331064
C	-0.491172	-1.205093	0.645683
N	-0.886543	-2.179978	1.170422
H	2.688132	0.0	0.0
