12

C	-0.384964	-0.108311	-1.454447
C	0.0	0.0	0.0
Br	-0.064145	1.509406	-2.446745
H	1.096137	0.0	0.0
H	0.209092	-0.897492	-1.915716
H	-0.281293	-0.937537	0.493045
N	-1.824664	-0.541901	-1.601798
O	-1.992052	-1.761018	-1.524978
O	-2.714321	0.293822	-1.710144
C	-0.590088	1.122917	0.697692
N	-1.03203	2.03011	1.301416
H	2.641585	0.0	0.0
