12

C	-0.381704	-0.024912	-1.445618
C	0.0	0.0	0.0
Br	-2.30451	0.141981	-1.809686
H	1.095427	0.0	0.0
H	0.100538	0.794075	-1.97528
H	-0.276684	0.982672	0.396094
N	0.076134	-1.268453	-2.160456
O	0.008235	-2.332961	-1.560224
O	0.463428	-1.110893	-3.316018
C	-0.582618	-1.022105	0.84617
N	-1.037135	-1.80063	1.600414
H	2.662615	0.0	0.0
