12

C	-0.542896	0.037483	-1.416435
C	0.0	0.0	0.0
Br	0.051001	-1.447937	-2.488787
H	1.095296	0.0	0.0
H	-1.632614	0.03729	-1.461325
H	-0.316509	0.918632	0.503837
N	-0.157414	1.368109	-2.045161
O	0.653326	1.427129	-2.95221
O	-0.755033	2.321484	-1.547056
C	-0.537407	-1.139472	0.719774
N	-0.964596	-2.06009	1.313759
H	2.70006	0.0	0.0
