12

C	-0.368564	0.050059	-1.452202
C	0.0	0.0	0.0
Br	-2.294942	0.096593	-1.833771
H	1.096092	0.0	0.0
H	0.071491	0.902208	-1.969454
H	-0.351081	-0.924333	0.461409
N	0.170401	-1.172042	-2.152024
O	0.040938	-2.251196	-1.588317
O	0.676331	-0.988336	-3.253044
C	-0.49225	1.160575	0.712765
N	-0.860884	2.112216	1.29594
H	2.660259	0.0	0.0
