12

C	-0.426757	0.089374	-1.439559
C	0.0	0.0	0.0
Br	0.089207	1.786138	-2.219726
H	1.092548	0.0	0.0
H	0.016082	-0.696126	-2.050109
H	-0.36921	0.856754	0.566518
N	-1.920529	-0.0464	-1.607303
O	-2.640149	0.693012	-0.943436
O	-2.308454	-0.915048	-2.389378
C	-0.487878	-1.23543	0.589052
N	-0.877908	-2.233709	1.072334
H	2.686048	0.0	0.0
