12

C	-0.374469	0.099938	-1.446023
C	0.0	0.0	0.0
Br	-2.304732	0.13509	-1.823932
H	1.097849	0.0	0.0
H	0.046952	0.978539	-1.930701
H	-0.346102	-0.9424	0.42743
N	0.174851	-1.084125	-2.201629
O	0.069264	-2.186619	-1.679039
O	0.663588	-0.848613	-3.30309
C	-0.498343	1.129516	0.756288
N	-0.875087	2.053525	1.378165
H	2.653293	0.0	0.0
