12

C	-0.624381	-0.0417	-1.368375
C	0.0	0.0	0.0
Br	0.185543	-1.435385	-2.472914
H	1.091362	0.0	0.0
H	-1.692055	-0.252731	-1.383062
H	-0.276381	-0.931462	0.508084
N	-0.489352	1.263062	-2.106393
O	-1.373158	1.504857	-2.930558
O	0.479886	1.967223	-1.852933
C	-0.530012	1.115504	0.76573
N	-0.94592	2.015126	1.399138
H	2.675402	0.0	0.0
