12

C	-0.430179	0.139897	-1.437415
C	0.0	0.0	0.0
Br	-0.010462	1.861176	-2.188228
H	1.102092	0.0	0.0
H	0.07955	-0.614132	-2.037329
H	-0.281602	-1.004901	0.334413
N	-1.907863	-0.157624	-1.578122
O	-2.176824	-1.360949	-1.574129
O	-2.725427	0.754116	-1.61246
C	-0.586028	0.987206	0.883831
N	-1.035999	1.773473	1.634539
H	2.644168	0.0	0.0
