13

C	0.0	0.0	0.0
C	-0.512981	0.027762	-1.417001
Br	1.925334	0.0	0.0
H	-0.111861	-0.783293	-2.017033
H	-0.373379	0.819717	0.604344
H	-1.613039	-0.005088	-1.352908
N	-0.405733	-1.281879	0.678901
O	-0.51168	-1.235052	1.89651
O	-0.516284	-2.278331	-0.026112
N	-0.138118	1.297218	-2.083658
O	-0.092683	2.318757	-1.401061
O	0.055146	1.251204	-3.297849
Cl	-3.332743	0.0	0.0
