13

C	0.0	0.0	0.0
C	-0.525972	0.068364	-1.411115
Br	1.925102	0.0	0.0
H	-0.145559	-0.73665	-2.032077
H	-0.368164	0.805026	0.627306
H	-1.627655	0.054953	-1.335121
N	-0.409934	-1.295636	0.649253
O	-0.526453	-1.273551	1.866872
O	-0.51771	-2.276899	-0.077349
N	-0.125714	1.346426	-2.045529
O	0.128096	1.317757	-3.249474
O	-0.113967	2.35752	-1.345869
Cl	-3.380378	0.0	0.0
