13

C	0.0	0.0	0.0
C	-0.640478	-0.317817	-1.334607
Br	1.918881	0.0	0.0
H	-0.485952	0.539548	-1.99117
H	-0.359175	0.968161	0.34253
H	-1.712533	-0.472748	-1.143034
N	-0.395999	-0.977165	1.083433
O	-0.507895	-2.150552	0.75518
O	-0.498516	-0.513409	2.211271
N	-0.085965	-1.488577	-2.07251
O	-0.7449	-2.524651	-2.095406
O	0.983774	-1.319718	-2.665005
Cl	-3.549849	0.0	0.0
