13

C	0.0	0.0	0.0
C	-0.545857	0.033829	-1.402817
Br	1.925512	0.0	0.0
H	-1.64712	0.020563	-1.305385
H	-0.361468	0.820961	0.610305
H	-0.179022	-0.786337	-2.012863
N	-0.411425	-1.276717	0.687303
O	-0.525235	-2.277313	-0.011491
O	-0.523704	-1.22053	1.904074
N	-0.165624	1.297075	-2.077139
O	0.022394	1.245182	-3.292438
O	-0.105705	2.319538	-1.397217
Cl	-3.405332	0.0	0.0
