12

C	-0.327959	-0.093992	-1.449949
C	0.0	0.0	0.0
F	-1.68033	-0.126754	-1.745125
H	1.091711	0.0	0.0
H	0.155629	-0.938808	-1.936196
H	-0.376737	0.937188	0.412675
N	0.189252	1.130323	-2.164913
O	0.865924	0.946207	-3.174365
O	-0.15894	2.221072	-1.723413
C	-0.534763	-1.134351	0.716766
N	-0.954786	-2.066421	1.305373
F	2.519301	0.0	0.0
