12

C	-0.451115	-0.048411	-1.435083
C	0.0	0.0	0.0
F	-0.067368	1.05526	-2.125136
H	1.094248	0.0	0.0
H	-1.527172	-0.184954	-1.588232
H	-0.324536	-0.91613	0.499217
N	0.170975	-1.264555	-2.095462
O	-0.172012	-2.339395	-1.608846
O	0.90319	-1.106406	-3.059502
C	-0.58009	1.148462	0.662224
N	-1.051965	2.080317	1.202381
F	2.523669	0.0	0.0
