16

C	0.0	0.0	0.0
C	-0.247082	0.381204	-1.468535
Cl	1.785803	0.0	0.0
H	0.431716	-0.182447	-2.104052
H	-0.343171	0.805078	0.645851
C	-0.568506	-1.339471	0.398071
H	-0.233585	-1.582463	1.409012
H	-1.660517	-1.256616	0.385971
H	-0.245546	-2.126103	-0.285255
N	0.098035	1.822079	-1.718033
O	0.560655	2.067538	-2.830357
O	-0.118482	2.637137	-0.829792
N	-1.589378	0.140701	-2.126977
O	-2.232023	1.107572	-2.498506
O	-1.81814	-1.041621	-2.336705
Cl	-3.795362	0.0	0.0
