16

C	0.0	0.0	0.0
C	-0.622776	0.03569	-1.376537
Cl	1.780082	0.0	0.0
H	-1.710618	0.186338	-1.23022
H	-0.306934	0.943976	0.452205
C	-0.508932	-1.160638	0.837875
H	-0.101879	-2.102833	0.473514
H	-0.189282	-1.016245	1.871563
H	-1.599942	-1.167413	0.800647
N	-0.464128	-1.18616	-2.218148
O	-1.233091	-1.263158	-3.17159
O	0.402846	-2.006465	-1.925462
N	-0.075111	1.189084	-2.164601
O	-0.265736	2.290942	-1.663345
O	0.530917	0.963588	-3.206549
Cl	-3.63416	0.0	0.0
