16

C	0.0	0.0	0.0
C	-0.623232	0.024258	-1.376794
Cl	1.78027	0.0	0.0
H	-1.710718	0.180119	-1.234287
H	-0.30673	0.947498	0.445107
C	-0.510347	-1.153385	0.84733
H	-1.601712	-1.149224	0.820192
H	-0.115206	-2.100318	0.48134
H	-0.177712	-1.009723	1.877222
N	-0.467525	-1.206073	-2.20661
O	-1.245287	-1.296013	-3.152164
O	0.406503	-2.019096	-1.913233
N	-0.071266	1.167875	-2.176995
O	0.533119	0.929526	-3.217545
O	-0.258163	2.275804	-1.686668
Cl	-3.637137	0.0	0.0
