14
Coordinates from ORCA-job run
  C   -0.69528853526182      0.41558217772179     -0.32007765730260
  C   0.75766721676204      0.49825773956274      0.10607483430662
  F   -0.79916576063720      0.20854020186014     -1.65556067244951
  H   0.78219872174433      0.74787053419257      1.16897574621593
  H   1.18928406504101      1.33883968107931     -0.44533124427145
  N   -1.32425268479711     -0.79386089930077      0.38486406815691
  O   -1.61043783186694     -1.75888061327498     -0.30365991796751
  O   -1.42256452355676     -0.67718925082923      1.59939128690677
  C   -1.47712280255112      1.59716653396285      0.05808673902609
  N   -2.06773111154890      2.57163112306531      0.34244310461205
  C   1.51530086219058     -0.79375158769649     -0.18186435864062
  H   1.17732434765728     -1.60788371358186      0.46208117394183
  H   2.57946754456255     -0.64383387196244      0.00568807933037
  H   1.39232049226207     -1.10048805479897     -1.22111118186488
