14
Coordinates from ORCA-job run
  C   -0.71547735556088      0.25888378844912     -0.10541833091830
  C   0.55260245665709     -0.56024743402636     -0.23955792794851
  F   -0.81131139760093      1.16623656667711     -1.10791382200172
  H   0.49415697224061     -1.05752142216484     -1.21355120640680
  H   0.53796020491471     -1.32931563676657      0.53600951910103
  N   -1.91186512697309     -0.69535593162768     -0.22828793674973
  O   -2.07102210635326     -1.44178261070691      0.72856981673396
  O   -2.54786848114078     -0.65843391151119     -1.26826020713762
  C   -0.82992589314130      0.94294520276434      1.18736596818160
  N   -0.86970932401864      1.50992519541859      2.21514503390060
  C   1.80217926486329      0.30740885418582     -0.14321491796238
  H   1.79705036196155      1.08771121491026     -0.90495920250117
  H   2.69068717980527     -0.30768334750953     -0.29415979522612
  H   1.88354324434636      0.77922947190784      0.83823300893517
