14
Coordinates from ORCA-job run
  C   -0.70241265475188      0.25929763460360     -0.17004446142059
  C   0.56838600281349     -0.56652841593154     -0.18169201140780
  F   -0.70634275475356      1.15158745378235     -1.19071868662670
  H   0.48301677630934     -1.32309128955932      0.60158083245901
  H   0.59137978538405     -1.07899868495534     -1.14926915832425
  N   -1.88831198871560     -0.69202800579163     -0.38181536687261
  O   -2.13337288809652     -1.42327184820589      0.56859163542996
  O   -2.43211079554460     -0.66857576237253     -1.47333694437219
  C   -0.92527581517104      0.96417202912863      1.09708833562872
  N   -1.05181696200265      1.54953510014559      2.10737520156015
  C   1.80934565496386      0.29806681455109      0.00804359674632
  H   1.80754646348064      0.78723993477662      0.98431110543898
  H   1.87457267383984      1.06443647181775     -0.76495460339342
  H   2.70439650224465     -0.32284143198940     -0.05415947484559
