14
Coordinates from ORCA-job run
  C   -0.80332940462452      0.21161800856518     -0.51342733611030
  C   0.65267077520309     -0.14177455747073     -0.73975804270013
  F   -1.49048355359287      0.12771738629951     -1.68288560611141
  H   1.03201884832553      0.58572922635251     -1.46327921689723
  H   0.65045207869421     -1.12192609719233     -1.22608685306692
  N   -1.40499646077328     -0.83105290607755      0.43396827501842
  O   -1.72877844420763     -1.88819440829455     -0.08556654055284
  O   -1.43740917085668     -0.53931858087005      1.62355933029092
  C   -0.99964053627456      1.53950437845468      0.07593471149664
  N   -1.10641880911090      2.63372052506999      0.48899328363788
  C   1.49160682319631     -0.14297103085896      0.53272240043041
  H   1.17052877463986     -0.91804372708289      1.22965876516762
  H   2.53538531194265     -0.33386632827571      0.27940062865294
  H   1.44039376743879      0.81885811138090      1.04676620074398
