14
Coordinates from ORCA-job run
  C   -0.71861690941534      0.24777845553369     -0.08986012586295
  C   0.55908507177863     -0.55070420295071     -0.25339434660327
  F   -0.84233077239427      1.16633385290414     -1.07929569249464
  H   0.49305096279395     -1.03798824816917     -1.23191935774143
  H   0.56849338671383     -1.32847759049005      0.51350693685845
  N   -1.90259294436933     -0.72225712676292     -0.20713746631417
  O   -2.03539113223790     -1.48351102393798      0.74204861393167
  O   -2.55580779657977     -0.68101532260073     -1.23628995016307
  C   -0.82575861325241      0.91536057889776      1.21207681389691
  N   -0.88154119212907      1.48470229027352      2.23776155160402
  C   1.79663464535394      0.33512872593633     -0.16679096020374
  H   1.88656814006702      0.79705160924766      0.81860499211249
  H   2.69197291067411     -0.26420616875567     -0.33905846177945
  H   1.76723424299661      1.12380417087413     -0.91925254724081
