14
Coordinates from ORCA-job run
  C   -0.69299499852372      0.41023607786766     -0.32924470076261
  C   0.75674721130434      0.50169060347483      0.10568920334610
  F   -0.78671093963260      0.18734280445836     -1.66292018411384
  H   0.77470437652727      0.76650576947455      1.16495578130487
  H   1.19017620840221      1.33479642439419     -0.45558496833012
  N   -1.32402303789586     -0.79217942462048      0.38554993552060
  O   -1.42771928963566     -0.66222512145981      1.59825042597976
  O   -1.60539175882187     -1.76520382221917     -0.29350960502512
  C   -1.48160403162355      1.59382072360668      0.02845175257291
  N   -2.08725410785553      2.56716395880430      0.28355233015417
  C   1.51925011961948     -0.79250667367960     -0.15896221444318
  H   1.17537846470487     -1.59951878399466      0.49084730305832
  H   1.40846957877777     -1.11149418160488     -1.19593711739792
  H   2.58097220465285     -0.63842835450199      0.03886205813608
