14
Coordinates from ORCA-job run
  C   -0.72558603731427      0.21245368620914     -0.43177603015345
  C   0.68456239410510      0.60326353367855     -0.03377050706811
  F   -0.74063039130900     -0.37457956091329     -1.65343068115128
  H   0.62891470308047      1.14514922184792      0.91271828349036
  H   1.03366566690831      1.30200896150202     -0.79982103014701
  N   -1.23157766445751     -0.82087248563382      0.58349398093236
  O   -1.40119903353479     -0.38013471317127      1.71273935737791
  O   -1.36444491158105     -1.96973457874431      0.19651882506748
  C   -1.66458105831966      1.33871945606920     -0.41486854030152
  N   -2.38609903852947      2.26522535575951     -0.43158521368797
  C   1.60939560139917     -0.60519253857445      0.06830134345762
  H   1.34285449230241     -1.24304861373432      0.91319736142435
  H   1.57777924755045     -1.20502777885108     -0.84194704399115
  H   2.63594602969985     -0.26822994544378      0.21922989475043
