14
Coordinates from ORCA-job run
  C   -0.83478655238269      0.32971999586897     -0.38793784383331
  C   0.55522426835324     -0.08855057224656     -0.82313840274153
  F   -1.64753877946844      0.44339399965275     -1.47118604340457
  H   0.42149203444834     -0.99630067469806     -1.41924505535549
  H   0.91187477428551      0.69830156911029     -1.49417319436979
  N   -1.41450692494441     -0.78379351140259      0.49026402719573
  O   -1.29442434456844     -0.64763611261996      1.70196639628595
  O   -1.87772925867285     -1.74020186065909     -0.11227119111425
  C   -0.85751049491562      1.58053889346942      0.37613589011527
  N   -0.82240020435284      2.61015822467936      0.94002576019901
  C   1.52333401066994     -0.30853372228115      0.33331768585280
  H   2.51468941248684     -0.53606798585137     -0.06102199512000
  H   1.21675498160999     -1.14237645320386      0.96596719218403
  H   1.60652707745146      0.58134821018183      0.96029677410614
