15
Coordinates from ORCA-job run
  C   -0.22346160406722      0.16646497150160      0.25809669217892
  C   0.74764270762228     -0.25207885031991     -0.57823691115571
  C   -1.54452914206915     -0.52612630943153      0.42311031196913
  H   -1.46069536173536     -1.30670705609104      1.18513016410833
  H   -2.29261698858240      0.19465716631879      0.75863770039900
  H   -1.89371363677948     -1.00829748906791     -0.48852485708187
  C   -0.01783990247995      1.38817055749110      1.10212220328632
  H   0.98395981255860      1.80791856067581      1.01715019598079
  H   -0.74592998281065      2.15513393521946      0.82024072914912
  H   -0.20823208753456      1.13935414400957      2.15073737190909
  C   1.98966199248390      0.42637632790534     -0.76710431827855
  N   3.00900503496886      1.00179528741507     -0.88172465077990
  N   0.58947747302732     -1.43377522140443     -1.44521955916847
  O   1.06954048919761     -1.34683371370013     -2.57201313088224
  O   -0.00126880379980     -2.40505231052180     -0.98140194163396
