15
Coordinates from ORCA-job run
  C   -0.32734134739147      0.09293911064465      0.15681254326471
  C   0.74142173356739     -0.20488925905042     -0.60781291381357
  C   -1.55999412686220      0.67945477183570     -0.46831106710241
  H   -1.54238502579679      0.64454570250516     -1.55646197024510
  H   -1.66460702689198      1.72343747551935     -0.15674796763441
  H   -2.44130968238603      0.14060557501039     -0.10922076391498
  C   -0.38670729425465     -0.09972015967210      1.64243243288050
  H   0.57883507826957     -0.26839114093666      2.10852556239589
  H   -0.87142013374185      0.76957199212269      2.09407636502698
  H   -1.01873240847569     -0.96645123229300      1.85621426362617
  C   0.79670969942051      0.01439600765363     -2.01729703245724
  N   0.78341160493861      0.18207479738359     -3.18124832118634
  N   1.98850424499138     -0.76382245614864     -0.05361444606404
  O   3.03199372307885     -0.27267222491126     -0.47609682449167
  O   1.89162096153435     -1.67007895966308      0.76875013971548
