15
Coordinates from ORCA-job run
  C   -0.22903476823335      0.16864694285576      0.25379169241044
  C   0.75066161344475     -0.24743939552091     -0.57357705635328
  C   -1.55463663872378     -0.52032170623108      0.39731560974481
  H   -1.90297307385053     -0.97472960010638     -0.52889535875630
  H   -2.30030021930503      0.19468664675227      0.74923255610467
  H   -1.47538178420469     -1.32263693622286      1.13649157434688
  C   -0.02434763613690      1.37832664221786      1.11566440483388
  H   -0.75651212670527      2.14792554030483      0.85129718673944
  H   -0.20819947267734      1.10944033786233      2.16088738733043
  H   0.97531515483297      1.80335644648334      1.03232558033866
  C   2.00172386115908      0.42111150187787     -0.73515208139235
  N   3.02978077141742      0.98450454452498     -0.83029233401215
  N   0.59956706274559     -1.42158081152122     -1.45213574947124
  O   1.10103372713100     -1.32982645577391     -2.56940090484075
  O   -0.00569647089391     -2.39246369750288     -1.00655250702316
