15
Coordinates from ORCA-job run
  C   -0.30340496027270      0.15545042397002      0.16784899016035
  C   0.66518427685727     -0.31531640830975     -0.64323192341798
  C   -0.34142859673629     -0.07084012955340      1.65057476533155
  H   -0.89703642983216      0.73841880981346      2.12816888266230
  H   -0.85913709371584     -1.01051169730537      1.86571967454212
  H   0.64742230793861     -0.14328551177872      2.10003534427320
  C   -1.44206823369397      0.94894392266531     -0.39966932938388
  H   -2.38816215235367      0.49904720959670     -0.08282468093344
  H   -1.41995333317726      1.96415753296700      0.00914140064180
  H   -1.42699771867796      1.01005447872135     -1.48735787349124
  C   0.71924916569020     -0.07270271934792     -2.04936691543166
  N   0.72128071736803      0.12986895684110     -3.20785241610855
  N   1.81638653119153     -1.08571584621337     -0.13940853845970
  O   2.89682719734768     -0.85836196706747     -0.67700879358029
  O   1.61183832206655     -1.88920705499894      0.76623141319541
