15
Coordinates from ORCA-job run
  C   -0.26757441775460      0.16869812460035      0.20800018743744
  C   0.82511538303145     -0.24183807130663     -0.46565436998079
  C   -0.22141060347197      1.42637984797691      1.02414274604516
  H   -0.37696572351657      1.18754572455033      2.08110306847382
  H   0.72151823712550      1.96594712059473      0.92347125913800
  H   -1.04020076317315      2.08823348421016      0.71969700032134
  C   -1.58498545083096     -0.54698513819288      0.19578165485361
  H   -1.50228871152955     -1.61511036723766      0.00475209755142
  H   -2.21427280120983     -0.12568965520630     -0.59541622303895
  H   -2.09195189491712     -0.38596753914982      1.14879614225131
  C   2.09016743989928      0.41840753675698     -0.41746804151514
  N   3.11590593051373      0.99253056860775     -0.36939718502620
  N   0.84036190087704     -1.46851239133943     -1.28204098085693
  O   -0.15546124610940     -1.71500878451294     -1.95682067536323
  O   1.86204272106614     -2.14763046035157     -1.21994668029086
