15
Coordinates from ORCA-job run
  C   -0.24475631720763      0.14449178663924      0.25483385265279
  C   0.79622718656134     -0.22943363502756     -0.51531914433443
  C   -1.58398911252130     -0.53257871244962      0.24544747352229
  H   -2.34779695893516      0.16609698739150      0.59151701565100
  H   -1.86551901983618     -0.91928893831720     -0.73252639264319
  H   -1.56848092510623     -1.38637157927238      0.92932459713968
  C   -0.10395763972290      1.30189518324737      1.19727198117698
  H   0.91116109140769      1.69427818573913      1.24507009854608
  H   -0.41518369176818      1.00498456517525      2.20248416443553
  H   -0.77554362884560      2.10638375811757      0.88030744524249
  C   2.05543056256154      0.44334360374192     -0.53993219537472
  N   3.08322290217113      1.01496264672559     -0.53450916588125
  N   0.70778110481227     -1.33104352243046     -1.49098940122882
  O   1.31928662371878     -1.16950538974992     -2.54328243580597
  O   0.03211782271041     -2.31021493953043     -1.18869789309845
