15
Coordinates from ORCA-job run
  C   -0.27839257391425      0.15142729539727      0.20521308094945
  C   0.58626015092851     -0.30228175632222     -0.72322260115462
  C   -0.03531931174241      0.08661147470105      1.68345396740269
  H   0.41766932870085      1.02480445776035      2.01939439383827
  H   0.63589364006556     -0.71736144197141      1.97886254574888
  H   -0.98981583712243     -0.02869644264001      2.20192067503541
  C   -1.57958473372807      0.76861654199740     -0.21363356833428
  H   -1.70967366166686      1.72770791035408      0.29683846345345
  H   -1.65522364693518      0.92721034880464     -1.28881053697253
  H   -2.40827295174599      0.12589196400466      0.10108944123178
  C   0.34122920501254     -0.26411306719925     -2.12990546304066
  N   0.11498089111580     -0.19855853527750     -3.28214553206070
  N   1.86672743786100     -0.93774010865623     -0.36803010112562
  O   2.17331151834032     -1.93179422132310     -1.02107873654624
  O   2.52121054483059     -0.43272441962971      0.54005397157471
