15
Coordinates from ORCA-job run
  C   -0.25424082777859      0.15938747566872      0.23398508546294
  C   0.81219686463697     -0.24445021388667     -0.48514255236066
  C   -1.60517828661357     -0.49032443960381      0.16933476199624
  H   -1.65013164487428     -1.31903696962929      0.88231719945444
  H   -1.83674979434567     -0.90268710174182     -0.81139168963495
  H   -2.37172159872481      0.23607397545252      0.44578037933130
  C   -0.13163245724218      1.31770398835183      1.17797852183238
  H   -0.78064835489642      2.13331467141143      0.84347633435846
  H   0.88623926693734      1.69582474919647      1.26769833328242
  H   -0.48492305532217      1.01460882600626      2.16846249266390
  C   2.08786843050334      0.39616731733345     -0.45391525109304
  N   3.13042129797069      0.93674229697361     -0.38990467862086
  N   0.74545906037592     -1.36516914739738     -1.43997001561871
  O   1.38465570794544     -1.22969855945790     -2.47972535329857
  O   0.06638539142796     -2.33945686867742     -1.12798356775527
