15
Coordinates from ORCA-job run
  C   -0.25830269165462      0.16850902319271      0.22110292143534
  C   0.82343295495877     -0.27055216365807     -0.45304583522586
  C   -1.61813913838174     -0.45845238542704      0.12987124459328
  H   -1.70636806479233     -1.25508621321919      0.87473697582910
  H   -2.37927193316272      0.29319475555354      0.34763842750813
  H   -1.82192344759385     -0.90709138541084     -0.84073092994830
  C   -0.14581312860725      1.34739596254967      1.14095393946835
  H   0.87530759814045      1.70908610435926      1.25792178347910
  H   -0.76695672657456      2.16634158425038      0.76418359929315
  H   -0.54071718570570      1.07555736422739      2.12494668283252
  C   2.10795748757845      0.35063047647840     -0.39653185125373
  N   3.15665762543323      0.87661674936187     -0.31450984305667
  N   0.76826712718354     -1.41312757111828     -1.38279198862504
  O   1.44485321401637     -1.31418050828619     -2.40292286503865
  O   0.06201630916195     -2.36784179285360     -1.07082226129072
