15
Coordinates from ORCA-job run
  C   -0.32359890580489      0.12521030896701      0.15544496866887
  C   0.71136232203260     -0.26333256974013     -0.61630743046788
  C   -0.37856761560073     -0.05800127098625      1.64351178838016
  H   0.59948391716730     -0.01834515768405      2.11962299202568
  H   -0.80757244722179     -1.03712507558284      1.87748476033467
  H   -1.02464810438269      0.70655451531085      2.07933092880762
  C   -1.52295948258241      0.77706118440712     -0.46518005851087
  H   -1.61011981621430      1.80540204838829     -0.10027802398912
  H   -1.48961260230863      0.79436467344739     -1.55413624257520
  H   -2.42686971388247      0.24816693924691     -0.14725412828277
  C   0.78131651861631     -0.05220507469396     -2.02671616861674
  N   0.80060918870671      0.12401731051447     -3.18933852377215
  N   1.92277700439206     -0.89315560817757     -0.06037774167589
  O   1.77886388789617     -1.68493271435301      0.86701393697999
  O   2.98753584918679     -0.57267950906422     -0.58182105730639
