15
Coordinates from ORCA-job run
  C   -0.29374912238256      0.16706388539518      0.17441725437693
  C   0.65457315061926     -0.31367290852706     -0.65449211163917
  C   -0.28233594091028     -0.02099763604763      1.66290662835366
  H   0.17824045891332     -0.95680358200555      1.97487751571707
  H   0.28783605208563      0.78675614393505      2.13155838764608
  H   -1.30501534243170      0.02267151834832      2.04239736642680
  C   -1.44582154557406      0.95434212209001     -0.37442315400976
  H   -1.36380014134529      1.15241866420305     -1.44265266194944
  H   -1.51736462784839      1.90773410212935      0.15826715580866
  H   -2.37986604211029      0.41477083449297     -0.18822605128222
  C   0.62588321327166     -0.16788624467288     -2.07465901475476
  N   0.58136171464423     -0.01352215833440     -3.23969616307910
  N   1.79841455400631     -1.10925317697670     -0.17299530470337
  O   2.14582171843955     -2.04554081776597     -0.88767875588635
  O   2.31382190062263     -0.77908074626374      0.89139890897496
