13

C	0.0	0.0	0.0
C	-0.193316	-0.101858	-1.534662
Cl	1.765294	0.0	0.0
H	0.244634	0.801538	-1.952266
H	-0.425257	-0.795106	0.600783
H	0.386129	-0.971538	-1.839392
N	-0.420003	1.314147	0.598428
O	-0.483063	2.281579	-0.148159
O	-0.536576	1.318716	1.816763
N	-1.468246	-0.284912	-2.308665
O	-1.935271	0.721878	-2.828872
O	-1.807657	-1.441138	-2.538941
Br	-3.235416	0.0	0.0
