13

C	0.0	0.0	0.0
C	-0.549211	-0.141668	-1.394694
Cl	1.760913	0.0	0.0
H	-1.650194	-0.106839	-1.316546
H	-0.368088	-0.771568	0.668232
H	-0.163829	0.616553	-2.068344
N	-0.420977	1.323193	0.588095
O	-0.535922	2.267012	-0.185518
O	-0.533506	1.358416	1.806236
N	-0.180818	-1.46433	-1.954794
O	-0.146441	-2.425182	-1.188551
O	0.022959	-1.517728	-3.16697
Br	-3.603691	0.0	0.0
