16

C	0.0	0.0	0.0
C	-0.503547	-0.003722	-1.449878
Br	1.900611	0.0	0.0
H	-0.079852	-0.872746	-1.958537
N	-0.542174	1.223808	0.829598
O	-1.764642	1.176227	1.011865
O	0.228493	2.034142	1.296735
N	-0.557773	-1.223134	0.68124
O	-0.7517	-2.248905	-0.038797
O	-0.350568	-1.235398	1.911482
N	0.014854	1.235508	-2.152027
O	-0.344031	2.307504	-1.672114
O	0.652448	1.063764	-3.185008
C	-1.965946	-0.021625	-1.552351
N	-3.135737	-0.068483	-1.76297
H	-1.566224	0.0	0.0
