13

C	0.0	0.0	0.0
C	-0.459692	0.076213	-1.454603
Cl	1.829661	0.0	0.0
H	-0.146841	1.006344	-1.924734
H	-0.299784	0.94318	0.458114
H	-1.553412	-0.019104	-1.4418
N	-0.480564	-1.070726	0.808701
H	-1.481428	-0.902835	0.931123
H	-0.37793	-1.938774	0.297156
N	0.089932	-1.007937	-2.304381
O	0.612883	-0.689724	-3.372508
O	-0.024548	-2.167357	-1.904501
Br	-3.681135	0.0	0.0
