13

C	0.0	0.0	0.0
C	-0.539987	0.109818	-1.407019
Cl	1.845565	0.0	0.0
H	-1.637069	0.020248	-1.316174
H	-0.257939	0.930542	0.504658
H	-0.256409	1.049151	-1.875154
N	-0.523997	-1.080261	0.711922
H	-0.374425	-1.969902	0.265421
H	-0.288563	-1.08029	1.690375
N	-0.054543	-0.956498	-2.320277
O	0.231291	-0.627133	-3.470111
O	0.002904	-2.109416	-1.892147
Br	-3.897182	0.0	0.0
