13

C	0.0	0.0	0.0
C	-0.497952	0.107414	-1.42533
Cl	1.782673	0.0	0.0
H	-1.594874	0.161618	-1.388383
H	-0.285637	0.903539	0.543745
H	-0.151369	-0.732508	-2.02316
N	-0.502823	-1.234798	0.543595
H	-0.26359	-1.276662	1.528622
H	-1.524518	-1.171492	0.48664
N	-0.014521	1.343605	-2.087966
O	0.391168	1.245451	-3.246878
O	-0.074977	2.393829	-1.451479
Br	-3.713054	0.0	0.0
