16

C	-0.330074	-0.052507	-1.494734
C	0.0	0.0	0.0
F	-0.112632	1.217383	-2.035375
H	1.095029	0.0	0.0
C	0.611448	-1.032396	-2.170216
H	0.545835	-0.925977	-3.255642
H	1.612873	-0.791509	-1.791262
H	0.351083	-2.051016	-1.880585
C	-1.755796	-0.372371	-1.72895
N	-2.889019	-0.63694	-1.894349
N	-0.391863	-1.265803	0.62082
H	-1.242584	-1.178796	1.16017
H	0.364409	-1.543699	1.232577
C	-0.569557	1.175706	0.643145
N	-1.045154	2.086681	1.215865
F	2.591866	0.0	0.0
