16

C	-0.307918	0.056816	-1.489474
C	0.0	0.0	0.0
F	-1.669463	0.322487	-1.739096
H	1.101818	0.0	0.0
C	0.557238	1.116236	-2.144031
H	0.236969	2.098789	-1.788063
H	1.581709	0.927999	-1.808401
H	0.470269	1.080726	-3.231249
C	-0.038679	-1.265676	-2.083925
N	0.155786	-2.281072	-2.63938
N	-0.476262	-1.219255	0.638391
H	-1.333726	-1.075596	1.155305
H	0.247736	-1.546532	1.265373
C	-0.465625	1.223307	0.645134
N	-0.826649	2.208223	1.178232
F	2.579788	0.0	0.0
