16

C	-0.316427	-0.072983	-1.499383
C	0.0	0.0	0.0
F	-0.128308	1.195868	-2.050151
H	1.097937	0.0	0.0
C	0.656079	-1.032614	-2.15752
H	0.421572	-2.054009	-1.85796
H	0.592279	-0.938664	-3.244115
H	1.647787	-0.76612	-1.771811
C	-1.728785	-0.435181	-1.746103
N	-2.850336	-0.738512	-1.919981
N	-0.398221	-1.256858	0.630909
H	-1.290316	-1.177503	1.103179
H	0.316275	-1.502737	1.304705
C	-0.575589	1.187275	0.617608
N	-1.07552	2.119262	1.133174
F	2.596427	0.0	0.0
