16

C	-0.494951	0.051266	-1.448241
C	0.0	0.0	0.0
F	0.097867	-1.00323	-2.133326
H	1.100917	0.0	0.0
C	-1.997627	-0.11132	-1.589984
H	-2.520062	0.73476	-1.137738
H	-2.268305	-0.181472	-2.645457
H	-2.272391	-1.035533	-1.078962
C	-0.055041	1.300089	-2.104253
N	0.220515	2.288177	-2.675693
N	-0.396161	-1.282641	0.605682
H	0.470661	-1.709069	0.910403
H	-0.981005	-1.144149	1.418297
C	-0.514795	1.143464	0.733982
N	-0.959275	2.038692	1.357004
F	2.53381	0.0	0.0
