14
Coordinates from ORCA-job run
  C   0.27235401599418      0.45580293782205     -0.09967746314674
  C   -0.50659548486423     -0.85429562052957     -0.04688822496316
  Br  -0.21676502927292      1.40657666429571     -1.74556690719403
  H   -0.20921020461114     -1.50110207291513     -0.87040627023949
  H   -0.33223778349637     -1.34654000240174      0.91416806622483
  C   1.76944933179812      0.14666879361892     -0.14099735921689
  H   2.34224298791163      1.07202072038002     -0.19973827260968
  H   2.05781323411358     -0.38703334906534      0.76909281020487
  H   2.00073510517169     -0.46821174729329     -1.01234460358868
  C   -0.00950022972430      1.33275168503828      1.03379307772325
  N   -0.12164218235867      2.03413952591306      1.97031936527753
  N   -1.98369870861526     -0.67026967861889     -0.16627097684099
  O   -2.55918029490439     -1.35521588992579     -1.00663014212711
  O   -2.50376475714191      0.13370803368170      0.60014690049628
