14
Coordinates from ORCA-job run
  C   0.19942545215672      0.61831753227338     -0.13680630534167
  C   -1.04520259578150     -0.17595868071957      0.28225079089083
  Br  0.04349557592941      1.09298263275811     -2.03604773715083
  H   -1.94978628920127      0.40349986586004      0.10877460823675
  H   -0.95291993261715     -0.45542158174000      1.33419819952522
  C   1.52796959678894     -0.09615762658188      0.09332159269491
  H   1.60911075921937     -0.38347448915514      1.14502465420299
  H   2.34951083825900      0.57503580707991     -0.15786526114755
  H   1.59316230623603     -0.99158863535098     -0.52108750999545
  C   0.16173198827479      1.86445270744267      0.62687874727580
  N   0.13562287062292      2.83883794470001      1.28419438175599
  N   -1.18959432251708     -1.44557415626674     -0.48661893096896
  O   -0.38678191972104     -2.34053897990625     -0.22677415936247
  O   -2.09674432764913     -1.50341234039356     -1.31144307061556
