14
Coordinates from ORCA-job run
  C   -0.32309060169824      0.06741665719836     -0.36063886798482
  C   1.08324428739360     -0.37896336039464      0.10537920733519
  H   -0.27976831132888      0.20313999151394     -1.44700535192882
  H   1.38411146043813     -1.30567010617246     -0.39389980054145
  H   1.06509745859974     -0.57645926044149      1.18290181782511
  N   -0.76857974457404      1.33095308209321      0.20511017225450
  H   -0.79423823339682      1.27186032149897      1.21752868370911
  H   -0.13541387237660      2.08172492603341     -0.04594346327568
  C   -1.33941461467684     -1.01762234616178     -0.03808341640788
  H   -2.32247301075299     -0.72008761745022     -0.40409826527333
  H   -1.06524879000982     -1.97249488457412     -0.49284503711284
  H   -1.41090507106502     -1.16556450959903      1.04461016023013
  C   2.07717418267185      0.65635783230424     -0.16722246722264
  N   2.82750486077592      1.52640927415161     -0.40679337160659
