14
Coordinates from ORCA-job run
  C   -0.24003919075536      0.27022880698475     -0.38273646912234
  C   1.18878914936320      0.37962206473062      0.16903989046368
  H   -0.16706469616002      0.19695262267579     -1.47332961706023
  H   1.65875167511322      1.27610959928422     -0.24180402024380
  H   1.15433856375302      0.49948657655452      1.25804764002856
  N   -0.90465192900647      1.53938826980164     -0.08711705392898
  H   -1.14159768086894      1.57308010941610      0.89950236432302
  H   -1.77721252059749      1.59401609446725     -0.59963081351708
  C   -0.95832412918485     -0.96591247887632      0.15248500904251
  H   -0.44402518641281     -1.89026407955650     -0.12214361455652
  H   -1.97602819492659     -1.01248709498663     -0.24338340597638
  H   -1.02238645235058     -0.92226348250997      1.24502058520776
  C   2.00145100723398     -0.79225234711472     -0.14901706197110
  N   2.62899958479969     -1.74470466087075     -0.42493343268913
