15

C	0.0	0.0	0.0
C	-0.506083	0.435885	-1.388849
Br	1.933047	0.0	0.0
H	0.055004	-0.158847	-2.121813
H	-0.355433	0.653234	0.793621
N	-0.419578	-1.397008	0.340634
O	-0.381849	-2.228805	-0.563291
O	-0.740568	-1.608269	1.506151
N	-0.23794	1.872278	-1.469642
H	0.705479	2.042493	-1.793724
H	-0.887531	2.228217	-2.160662
N	-1.897412	0.224353	-1.638042
H	-2.10695	-0.754983	-1.773035
H	-2.546519	0.545508	-0.916477
Cl	-4.611154	0.0	0.0
