19

C	-0.450879	-0.210428	-1.478966
C	-0.006891	-0.11777	0.023946
Cl	-0.117251	1.37731	-2.269897
H	1.02389	-0.470802	0.102247
C	0.400658	-1.247396	-2.193745
H	1.452559	-0.966294	-2.114654
H	0.259124	-2.220906	-1.719147
H	0.119392	-1.312611	-3.248254
C	-1.940907	-0.474995	-1.658209
H	-2.195095	-1.474453	-1.296996
H	-2.192796	-0.417504	-2.719034
H	-2.546624	0.254067	-1.116422
N	-0.85417	-1.162026	0.740873
O	-1.875771	-0.791847	1.311991
O	-0.493312	-2.338227	0.647727
N	-0.094069	1.11184	0.713592
H	-0.787496	1.734398	0.325748
H	0.834792	1.528285	0.659798
Cl	3.131548	0.90345	0.062161
