19

C	-0.39134	-0.263439	-1.442885
C	-0.005404	-0.033914	0.022966
Cl	-2.211719	-0.253804	-1.579756
H	1.096503	-0.105953	0.065371
C	0.153742	0.901649	-2.252173
H	-0.279719	1.8401	-1.91381
H	1.236433	0.940357	-2.097261
H	-0.067817	0.748387	-3.311456
C	0.122091	-1.579741	-1.998771
H	-0.088745	-1.621587	-3.070099
H	-0.335347	-2.441576	-1.516823
H	1.203275	-1.616072	-1.838202
N	-0.524226	-1.184481	0.88835
O	0.054481	-2.265574	0.805505
O	-1.487126	-0.96452	1.625775
N	-0.430355	1.22841	0.51647
H	-1.396703	1.185085	0.813129
H	0.154373	1.499278	1.29564
Cl	3.313499	0.291703	-0.294274
