17

C	-0.522915	-0.058249	-1.446787
C	0.0	0.0	0.0
Cl	0.186843	-1.427361	-2.309719
H	1.098693	0.0	0.0
C	-1.979583	-0.181307	-1.480936
N	-3.150384	-0.279954	-1.509136
N	-0.147569	1.238593	-2.179236
O	0.949815	1.301461	-2.706981
O	-0.984717	2.137235	-2.103894
N	-0.508945	-1.22029	0.64022
H	0.215668	-1.927464	0.571906
H	-0.638797	-1.033838	1.627241
C	-0.505505	1.229567	0.734812
H	-1.597885	1.242677	0.798803
H	-0.087993	1.204706	1.744776
H	-0.163312	2.153893	0.271387
Cl	3.375622	0.0	0.0
