17

C	-0.524652	0.040064	-1.443253
C	0.0	0.0	0.0
Cl	-2.306418	0.156661	-1.479474
H	1.094153	0.0	0.0
C	0.013965	1.151362	-2.218915
N	0.425905	2.067954	-2.82838
N	-0.106627	-1.265689	-2.147748
O	1.075529	-1.292374	-2.459479
O	-0.935604	-2.146186	-2.295892
N	-0.424219	-1.253495	0.595903
H	0.346834	-1.639013	1.124504
H	-1.222068	-1.130543	1.205119
C	-0.418282	1.247735	0.769874
H	0.104721	1.234032	1.728694
H	-0.124214	2.162116	0.247906
H	-1.497117	1.273528	0.951209
Cl	3.333581	0.0	0.0
