17

C	-0.53549	0.002127	-1.437236
C	0.0	0.0	0.0
Cl	-2.318024	0.070538	-1.45984
H	1.094202	0.0	0.0
C	-0.03374	1.115274	-2.23531
N	0.316308	2.035992	-2.875636
N	-0.086813	-1.301121	-2.129651
O	-0.883628	-2.217717	-2.232352
O	1.083066	-1.28614	-2.484281
N	-0.416436	-1.24047	0.633055
H	-1.201462	-1.097358	1.254561
H	0.364109	-1.606722	1.164345
C	-0.421117	1.264137	0.741157
H	-1.49788	1.284493	0.93482
H	-0.142736	2.167155	0.192001
H	0.113464	1.281742	1.693402
Cl	3.333944	0.0	0.0
