11

C	-0.328697	0.033188	-1.482149
C	0.0	0.0	0.0
F	0.046426	1.265767	-1.996871
H	1.093033	0.0	0.0
H	0.264891	-0.731726	-1.990161
H	-0.401614	0.895301	0.481596
C	-1.758176	-0.152691	-1.808855
N	-2.895304	-0.293378	-2.065943
C	-0.528581	-1.196388	0.620753
N	-0.956569	-2.173136	1.116917
F	2.541772	0.0	0.0
