11

C	-0.340556	0.019796	-1.478541
C	0.0	0.0	0.0
F	0.056596	1.236297	-2.015947
H	1.093432	0.0	0.0
H	0.229598	-0.765661	-1.981912
H	-0.396523	0.900808	0.475728
C	-1.777918	-0.135994	-1.785585
N	-2.92349	-0.243064	-2.022632
C	-0.52693	-1.189565	0.635075
N	-0.937119	-2.167638	1.143064
F	2.538795	0.0	0.0
