11

C	-0.333001	0.004308	-1.481454
C	0.0	0.0	0.0
F	0.050175	1.220833	-2.022749
H	1.093131	0.0	0.0
H	0.250453	-0.777371	-1.974138
H	-0.39982	0.905277	0.463916
C	-1.766406	-0.172481	-1.798447
N	-2.906577	-0.302038	-2.046713
C	-0.5286	-1.182058	0.646009
N	-0.956626	-2.145746	1.165868
F	2.54089	0.0	0.0
