16
Coordinates from ORCA-job run
  C   -0.81500798758217      0.30310175668892     -0.45313515664246
  C   0.52087594561543      0.36888272342152      0.28460205795411
  Br  -0.98420122349922      1.88923180456018     -1.57011027998504
  H   0.58260809656114      1.32631199037128      0.80250191588870
  N   -1.97792906319538      0.38771054526963      0.55306532886138
  O   -3.00673937188715     -0.19164357657945      0.24975208037658
  O   -1.76446095315266      1.07345575114257      1.54124096546154
  C   -0.97098749563200     -0.87585737278634     -1.28507250884490
  N   -1.02840073375219     -1.80428756776047     -2.00471823572286
  C   1.72781263581686      0.11835632895189     -0.60324338264974
  H   1.68314657493722     -0.87996007477314     -1.04335256378439
  H   2.63114971465340      0.20108311422715      0.00136679831409
  H   1.77446432084474      0.85779829522035     -1.40232112176925
  N   0.52920478311751     -0.66852750847886      1.37972183118003
  O   1.40579707162058     -0.53850330066986      2.22374747448936
  O   -0.30733231446613     -1.56715290880538      1.32495479687287
