16
Coordinates from ORCA-job run
  C   -0.80033000895164      0.34460960829549     -0.44850239855720
  C   0.53870074373654      0.34107808225087      0.28576438083037
  Br  -0.89260886961437      1.94124420032540     -1.56001158589383
  H   0.64932396496340      1.29172290140955      0.80803822210452
  N   -1.95619944350358      0.48451239924549      0.55947196112266
  O   -1.70489518016249      1.14717101677421      1.55449342215178
  O   -3.01674367219375     -0.03092000637818      0.24933166356927
  C   -1.01631586281199     -0.82204877701666     -1.28446851155111
  N   -1.11672439712231     -1.74359882894920     -2.00805491921935
  C   1.72967342498596      0.03592452747951     -0.60703709120822
  H   1.63448805063761     -0.95680075877695     -1.05182832203444
  H   2.63735451869879      0.07056755399678     -0.00438072256206
  H   1.81055824169228      0.77599931677957     -1.40271289120273
  N   0.49960079145023     -0.70116851301195      1.37551496198775
  O   1.38737277584841     -0.62181528316234      2.21423388491020
  O   -0.38325507765309     -1.55447743926160      1.32214794555237
