16
Coordinates from ORCA-job run
  C   -0.94582731578181      0.20856159779695     -0.03477365761933
  C   0.59829850300134      0.19638351243188      0.00131129120100
  Br  -1.72984131068777     -0.34087148208030      1.63147101842089
  H   0.92958554182300      0.68633041249808     -0.91762658534748
  N   -1.29905129546947     -0.79652712042239     -1.17074278314613
  O   -0.95791402744477     -0.40078715454173     -2.27796217331509
  O   -1.80130323938035     -1.86533085858957     -0.87989660818431
  C   -1.50491909562090      1.49226830170180     -0.42891623038977
  N   -1.99471533658276      2.50964855613958     -0.75860010573317
  C   1.20118304999397     -1.18158958217895      0.15283365476094
  H   1.01031836275292     -1.77198040956422     -0.74487626204755
  H   0.80465209693351     -1.70144668302816      1.02332202554303
  H   2.28096868988068     -1.08903494077178      0.27171417341710
  N   1.03499246024052      1.12016944506592      1.11031486467599
  O   0.88221759356066      2.31991404750650      0.89339568125370
  O   1.49335532278123      0.61629235803637      2.13003169651017
