15
Coordinates from ORCA-job run
  C   -0.62702363091221      0.03289561878026     -0.74481000668090
  C   0.78992682010656     -0.08759623218659     -0.17437949290543
  Cl  -0.56301541143533      1.10193208768258     -2.13571286813755
  H   1.45102326872871     -0.49397031025327     -0.93954953287932
  C   -1.16814457659476     -1.25987809526465     -1.13912614155854
  N   -1.64652991831189     -2.26988251559655     -1.50625857418385
  N   -1.61244462849899      0.58957146696825      0.33844836296290
  O   -2.31014921387235      1.53697362765242      0.05471584784216
  O   -1.57902011627820     -0.06464797346789      1.36877156146028
  N   0.90126626915699     -1.02022729783956      1.01916695579127
  O   1.22343807495232     -0.53230131405994      2.09001866238861
  O   0.68645188156164     -2.19252374423389      0.75117526265668
  N   1.34364250841652      1.24091306878789      0.23343505408719
  O   2.55257363243256      1.36755220276081      0.07932830778965
  O   0.55800504054845      2.05118941027016      0.70877660136686
