15
Coordinates from ORCA-job run
  C   -0.68256936166249      0.36066099714223     -0.42310347958006
  C   0.59455799194153     -0.30021983550213      0.10397460746656
  Cl  -0.67476478723894      2.09930234164559     -0.30250172020835
  H   0.61700883997202     -1.35817032431171     -0.14963959881358
  C   -0.92349566581044     -0.05657082970014     -1.79873359072650
  N   -1.15368901292485     -0.39932759064981     -2.90036573350738
  N   -1.86963980278510     -0.25825283160730      0.40428222322009
  O   -2.77399364448124      0.47368646100764      0.73806005588456
  O   -1.75269982735864     -1.46301034468289      0.57268851883441
  N   0.74893993206762     -0.20715282153119      1.59348299046308
  O   -0.04401596387726      0.48624237848707      2.21780661579106
  O   1.68422031223482     -0.86121232120959      2.03488048748762
  N   1.79923257805985      0.34378598597672     -0.53370600025369
  O   2.40807853081003      1.17778132136490      0.12019378343565
  O   2.02382988105309     -0.03454258642937     -1.67731915949348
