15
Coordinates from ORCA-job run
  C   -0.69586585200896      0.04362090612093     -0.68794769112338
  C   0.76891706613857     -0.02191920438228     -0.23529627242564
  Cl  -0.88415719692933      1.15827043427083     -2.04216643899170
  H   1.39967647675538     -0.28381111609452     -1.08513449474082
  C   -1.11155018482171     -1.29134390389370     -1.09574112378287
  N   -1.38291511591663     -2.36883195214535     -1.48129553025327
  N   -1.62725427291685      0.54599106571158      0.43892425850953
  O   -2.66594325392548     -0.06725552659098      0.60294049262113
  O   -1.23447662698418      1.54828837231698      1.01189587580356
  N   0.95116714527153     -1.07791304668421      0.80978330410956
  O   2.06637461277056     -1.58079235578937      0.85652647537324
  O   -0.01225182356100     -1.31155608013842      1.53258200359867
  N   1.33305646095709      1.26897129043224      0.33539875147764
  O   1.54469290663256      1.30237082103011      1.53667647396746
  O   1.55152965853844      2.13491029583616     -0.49714608414311
