15
Coordinates from ORCA-job run
  C   -0.65644182448420      0.27290199754940     -0.51909028979159
  C   0.58723408704197     -0.27438331378683      0.18864725030526
  Cl  -0.63700138549285      2.00208924278543     -0.73406669492890
  H   0.61372999683423     -1.36109301359760      0.14003910744260
  C   -0.83345120186991     -0.40246980100985     -1.79866689184772
  N   -1.01414371323521     -0.95481966981789     -2.82147024056347
  N   -1.88886240799854     -0.17533954822133      0.35000023336216
  O   -2.80395578544892      0.60534245175559      0.48614984210283
  O   -1.79100420686830     -1.32432747062098      0.75489078351969
  N   0.66492430089063      0.09773715086058      1.63980698103196
  O   1.56619645117625     -0.46579612844483      2.24619827011142
  O   -0.14856299452655      0.90091641151483      2.07845649148647
  N   1.82729188649881      0.24068188959313     -0.49594191203961
  O   2.41333094102848      1.17861279227038      0.02428562998111
  O   2.10171585645413     -0.34005299083003     -1.53923856017222
