15
Coordinates from ORCA-job run
  C   -0.73366029541531      0.24292816348452     -0.48043308723296
  C   0.54007224741713     -0.22927307364519      0.23610019431304
  Cl  -1.00235700678008      1.97508429467423     -0.53218440047505
  H   0.52414251614481     -1.31636145175126      0.32782069830785
  C   -0.74561167640113     -0.33293107288325     -1.81893972068762
  N   -0.75097356235480     -0.84634672873958     -2.87726092520879
  N   -1.94729004646359     -0.35872482467378      0.28742901433098
  O   -1.83115288745593     -0.38498469584416      1.50339952582428
  O   -2.90579945994547     -0.69250467095596     -0.38665451605566
  N   0.77348274884181      0.31656141330023      1.62237731537468
  O   0.83231193944469     -0.51004272800391      2.52097822010968
  O   0.93993393632602      1.52719186330220      1.69729120776222
  N   1.79533073326878      0.12330057155562     -0.53202426589085
  O   2.80611130670268     -0.40755179103946     -0.08992356660200
  O   1.70545950667036      0.89365473121976     -1.47797569386979
