15
Coordinates from ORCA-job run
  C   -0.70779284973931      0.26208574414794     -0.43424200241276
  C   0.58146546094964     -0.20984792524787      0.24059350471196
  Cl  -0.88160147151546      1.99138554362158     -0.50962809308433
  H   0.54390137701000     -1.29030036831758      0.38047685566804
  C   -0.78863980218747     -0.33041554832896     -1.76366199370836
  N   -0.85519471161899     -0.80926574626019     -2.83636096455885
  N   -1.91033969346926     -0.38336725350676      0.37201596690382
  O   -1.75506645298013     -1.57347851277463      0.59283947443108
  O   -2.85278497242227      0.32548447861125      0.64247467180764
  N   0.77748069992480      0.40188773883840      1.60260784055841
  O   -0.25066608296665      0.64248645992655      2.22296170618017
  O   1.93083041753695      0.51672812437759      1.98697806127309
  N   1.77349706118817      0.08685169814045     -0.62003964888871
  O   2.10402305989104      1.26087523595723     -0.72347182813155
  O   2.28788796039893     -0.89110966918500     -1.15454355074966
