15
Coordinates from ORCA-job run
  C   -0.68675900240547      0.12403448246478     -0.58163900062261
  C   0.46522292764333      0.50124266299014      0.34115319208928
  Cl  -1.00445451950920      1.49187974300478     -1.65806588181989
  H   0.24229283697743      1.41515528788990      0.88702590207946
  C   -0.48033921784184     -1.08733375505139     -1.35315368094047
  N   -0.35218988706069     -2.05695196610845     -2.00630963123952
  N   -1.95764032266842     -0.04345759073982      0.29942448736646
  O   -2.00271970146049      0.67574463009423      1.28495243004314
  O   -2.79856488503980     -0.82133687992294     -0.10898975701896
  N   1.72880988949708      0.71362507821150     -0.44096137271694
  O   2.25491310340526     -0.29937806928397     -0.88911645517381
  O   2.10565230294162      1.87332389669015     -0.55346026999209
  N   0.75678873954729     -0.57874901158110      1.34661376645177
  O   0.02731964070927     -1.56363781699752      1.34532737612245
  O   1.70166809526461     -0.34416069166030      2.08619889537172
