15
Coordinates from ORCA-job run
  C   -0.65264907089700      0.27200859460758     -0.52237615363673
  C   0.57670219293239     -0.27938483445798      0.20549641068371
  Cl  -0.60328151592662      1.99466306265392     -0.77964092824965
  H   0.56808191995875     -1.36756046209988      0.20761610145725
  C   -0.83067386842329     -0.43024217673758     -1.78709404828956
  N   -1.00593489332797     -0.99702512137120     -2.80308735852065
  N   -1.90014675757007     -0.13339898092266      0.34900342138928
  O   -2.80072062861915      0.66771452218136      0.45901406390517
  O   -1.82601778645204     -1.27253862745727      0.78453291828700
  N   0.67436890738058      0.15735409773272      1.63810570227868
  O   1.60052546302386     -0.35849393640583      2.24916301226237
  O   -0.15456113568929      0.95307175943274      2.06117620401662
  N   1.82891734590803      0.16251285797069     -0.50654606734897
  O   2.41572073244597      1.13896796939903     -0.06381338175401
  O   2.11066909525583     -0.50864872452564     -1.49254989648051
