15
Coordinates from ORCA-job run
  C   -0.68730794478212      0.11974829261633     -0.57943128164420
  C   0.46314068738954      0.49869069862689      0.34463926961829
  Cl  -1.00268369880179      1.48692712780598     -1.65772597597866
  H   0.22874529216490      1.40282419590806      0.90220798118848
  C   -0.47869724418597     -1.09253575700617     -1.34920035751132
  N   -0.34565128109830     -2.06532355726173     -1.99657000588565
  N   -1.96092563917879     -0.04683489954262      0.29720240340002
  O   -2.80061053849073     -0.82353418052170     -0.11642960590918
  O   -2.00977006941572      0.66996089368824      1.28418308658278
  N   1.72219270631903      0.73678487615464     -0.43669309530550
  O   2.24333081973963     -0.26031170385640     -0.92424850754571
  O   2.10165912487116      1.89899504539060     -0.50783223289871
  N   0.76872162763757     -0.59068550547689      1.33689893705693
  O   0.02161684977125     -1.56223573285641      1.35294937982085
  O   1.73623930806034     -0.37446979366883      2.05205000501157
