15
Coordinates from ORCA-job run
  C   -0.68528792501919      0.29071616738358     -0.44954524222300
  C   0.56751880773445     -0.23677077445330      0.25274192849795
  Cl  -0.76864183119664      2.02607678912097     -0.54461537876906
  H   0.47870783245178     -1.31404016569836      0.39445323532334
  C   -0.77200612099832     -0.30979426674089     -1.77513515230806
  N   -0.84268860918792     -0.79495406190297     -2.84454761356938
  N   -1.93203734331366     -0.28484375422073      0.33994679725159
  O   -1.84206069321789     -1.47992305049399      0.57026145395774
  O   -2.84102875023967      0.47327448475490      0.58967609755986
  N   0.76488617105234      0.36984090387731      1.61701045428762
  O   1.91313829397198      0.41788472918090      2.02902471419289
  O   -0.26193956689504      0.67217625799188      2.21195236873645
  N   1.78659085585996      0.00407521463731     -0.58761838291034
  O   2.24279840972670     -0.99258767096786     -1.14047955468879
  O   2.19105046927114      1.15686919753124     -0.66112572533880
