15
Coordinates from ORCA-job run
  C   -0.65140913415392     -0.01082765425677     -0.73066839976886
  C   0.78044256078082     -0.07211322145381     -0.18247405140523
  Cl  -0.71568677555363      0.95259873385565     -2.20707677759969
  H   1.45040685529493     -0.44406481691326     -0.95800655293322
  C   -1.09344115941141     -1.36878727668766     -1.01640135877156
  N   -1.38339990194904     -2.47219391414231     -1.30221260142712
  N   -1.62806150155783      0.64296970719216      0.27374272145871
  O   -2.69652017090064      0.08352359186309      0.43897167940360
  O   -1.23268370546785      1.69061424628213      0.75660389741542
  N   0.86013678378740     -1.01199947131627      0.97938579933293
  O   1.94907384530791     -1.54535626123620      1.14823606401789
  O   -0.15193489011410     -1.13120291687122      1.66263586058061
  N   1.35786504561637      1.25568858029279      0.28024265403187
  O   1.49607341958893      1.41515097807869      1.48214301027827
  O   1.66013872873207      2.01699969531302     -0.62512194461363
