15
Coordinates from ORCA-job run
  C   -0.68350651017087      0.13343622837413     -0.58427630131632
  C   0.46360916621093      0.49811768435240      0.34942439915836
  Cl  -0.99047631746039      1.51037165729270     -1.65257357694077
  H   0.24655029575457      1.41475703059136      0.89266940536039
  C   -0.47505929876599     -1.07099828180647     -1.36678751632812
  N   -0.32000615162931     -2.01315271088754     -2.05344387827008
  N   -1.96001477302667     -0.03819535892418      0.28451296403660
  O   -1.99479807506307      0.63778121699224      1.30051912534149
  O   -2.81607377568526     -0.77873421725571     -0.16145105018089
  N   1.73839053213454      0.69365899496471     -0.42083895342671
  O   2.27364967532938     -0.32863787932913     -0.83526417133751
  O   2.11079537796369      1.85166353828610     -0.56052094125943
  N   0.73370089652948     -0.58454255154193      1.35706996371129
  O   1.64862957037180     -0.34142380287319      2.13105414341704
  O   0.02360938750718     -1.58310154823549      1.31990638803465
