15
Coordinates from ORCA-job run
  C   -0.66013148051314     -0.02127658507187     -0.72287734816611
  C   0.77689533343526     -0.09071126173279     -0.18902312573072
  Cl  -0.72542413452225      0.89954013870874     -2.22635127140363
  H   1.43071475967626     -0.49789694145337     -0.96063792683693
  C   -1.12781373983219     -1.37927566741282     -0.96394512177866
  N   -1.44151727444816     -2.48533863141021     -1.21199577137839
  N   -1.61411744139274      0.67794957365283      0.27244750507956
  O   -2.69076275254466      0.14320092525523      0.46402021242745
  O   -1.19491141949399      1.73142693461295      0.72138563121959
  N   0.85412241479196     -0.99701353915416      0.99992980909050
  O   1.93690683236000     -1.54099181583719      1.17402884347843
  O   -0.15259056989898     -1.08067277177153      1.69614205934721
  N   1.38257522359458      1.23949489447355      0.22763215369031
  O   1.53986359646780      1.43118412297866      1.42244361695474
  O   1.68519065232025      1.96938062416198     -0.70319926599333
