15
Coordinates from ORCA-job run
  C   -0.74551577383416      0.23033071017425     -0.39133715951268
  C   0.59985873441914     -0.19011338784419      0.20272238827862
  Cl  -1.07147206382126      1.93141487588239     -0.22601673752856
  H   0.62532735112295     -1.26988690782319      0.34756571862449
  C   -0.84172169855152     -0.21277253246324     -1.77462881458865
  N   -0.93728939720026     -0.59900441228986     -2.88168255287675
  N   -1.84553314477125     -0.61634150748672      0.38361165945745
  O   -2.77083468127463     -0.01926081581786      0.88648463855803
  O   -1.63140587861908     -1.81670899386149      0.35144803659273
  N   0.78085556449043      0.45148868482977      1.55623828082883
  O   -0.07822592319119      0.12675544301317      2.36590828581850
  O   1.72007689094121      1.21420564631392      1.71567445806121
  N   1.77407003936936      0.17262775639154     -0.65333316711492
  O   1.64895828515766      1.10068810571518     -1.44267929187282
  O   2.77485169576258     -0.50242266473367     -0.43997574272547
