15
Coordinates from ORCA-job run
  C   -0.67129020626046      0.25595393526228     -0.50705657635209
  C   0.58808783372104     -0.26088157277277      0.19401906646271
  Cl  -0.67971135741252      1.98033405432197     -0.75645721538569
  H   0.60795377402946     -1.34896596701355      0.19741821102289
  C   -0.85279230039736     -0.44750027816209     -1.77052574500422
  N   -1.03344424993244     -1.02277028631253     -2.78067451852907
  N   -1.88978238043881     -0.19105185926320      0.38666771716039
  O   -2.80860011827009      0.58458469532110      0.52361855530180
  O   -1.77583055141321     -1.33193150817334      0.80885883564224
  N   0.70558640886700      0.18033422996181      1.62418696097305
  O   -0.14979834421730      0.93297131886631      2.07228638796039
  O   1.67182755175011     -0.29127241843040      2.20821064533619
  N   1.81219980773627      0.21180935888706     -0.54607379530717
  O   2.37017512320741      1.21665866505315     -0.13043681192622
  O   2.10341900903091     -0.46727236754580     -1.52404171735517
