15
Coordinates from ORCA-job run
  C   -0.60068506619013     -0.03727906473660     -0.77284460635767
  C   0.79241244515459      0.03075860278768     -0.13355464444343
  Cl  -0.68976277149292      1.00946701132727     -2.18972308996083
  H   1.54744255479121     -0.20929896029877     -0.88251957988589
  C   -0.85916405817392     -1.41499071634084     -1.16832430001383
  N   -1.00042196264970     -2.52231636420318     -1.53865613960665
  N   -1.70739844055811      0.43005289360524      0.20098602428729
  O   -1.47245594419697      1.48506101175579      0.76581457656025
  O   -2.70574405533331     -0.26331911442168      0.26724008204913
  N   0.91514383181986     -0.96829729466865      0.97406623474082
  O   2.04928624015259     -1.37789468562312      1.18574657237416
  O   -0.11448538996888     -1.25229532150704      1.57786171099933
  N   1.17876886280172      1.38208482403506      0.44448404479487
  O   1.21775345970917      1.47840527969545      1.66042183297363
  O   1.44831029413478      2.22986189859340     -0.39199871851117
