15
Coordinates from ORCA-job run
  C   -0.67372094008791      0.10762903634984     -0.59764712402116
  C   0.45516677332589      0.50720247180523      0.34399885507712
  Cl  -0.96692239235934      1.45226157640178     -1.71008461822904
  H   0.20999840284773      1.42517708154806      0.87353764673977
  C   -0.44684591091124     -1.11924123549967     -1.33846557931663
  N   -0.29974140479262     -2.09923851449237     -1.97182409314340
  N   -1.96579292189491     -0.04348439988620      0.25472664503352
  O   -2.03852507906538      0.69780936182345      1.22202935702944
  O   -2.79363157343599     -0.83358489262042     -0.15731211865629
  N   1.73311129316082      0.72355869216560     -0.41304580625928
  O   2.26757851632674     -0.28736425632556     -0.85581960499058
  O   2.11281845259983      1.88365351631007     -0.51145988758421
  N   0.73497930108851     -0.55834310135838      1.36899061488990
  O   -0.00598295408378     -1.53465554921326      1.38243771529359
  O   1.67851043728164     -0.32037978700816      2.10893799813725
