15
Coordinates from ORCA-job run
  C   -0.67164512877746      0.10858687907450     -0.60133101115939
  C   0.45795237266556      0.50650708377171      0.34033174621524
  Cl  -0.94925708768152      1.44347791046970     -1.72873752200094
  H   0.22307557989735      1.43511937220227      0.85565119692193
  C   -0.45356678669417     -1.12797709113380     -1.32886071170973
  N   -0.29368740234592     -2.10313553361322     -1.96648405068416
  N   -1.96689688382702     -0.02220671836244      0.24826177116876
  O   -2.80321188177892     -0.80408605609295     -0.16268316571970
  O   -2.03356683403926      0.72363528819753      1.21253529195947
  N   1.74276946757980      0.69468245202903     -0.41281408097006
  O   2.12860089328669      1.84988362446288     -0.54062544742050
  O   2.27478609374563     -0.33048615613720     -0.82443587563391
  N   0.71799032218230     -0.54780048834757      1.38166063338443
  O   1.65004877337546     -0.30343634937913      2.13393167595062
  O   -0.02339149758853     -1.52376421714130      1.39259954969794
