15
Coordinates from ORCA-job run
  C   -0.67842197224872      0.23102956009945     -0.55754589066017
  C   0.49409829881465      0.42600468877451      0.39545892570034
  Cl  -0.90597344987162      1.72953266325866     -1.47010248041968
  H   0.32463380546928      1.28008508299885      1.04730922547831
  C   -0.54890683209406     -0.89554796882739     -1.46305547464000
  N   -0.45966905948088     -1.77463401772630     -2.23920391990335
  N   -1.95869033887482      0.04639660353332      0.30487965374464
  O   -1.95962855849923      0.64501104760766      1.36892311268969
  O   -2.84827978001391     -0.62032698700477     -0.18887265302135
  N   1.76923626588373      0.65434234401572     -0.36297460059447
  O   2.23179080047819     -0.32599161463927     -0.93610314571564
  O   2.21777845084911      1.79350183337266     -0.33326615076583
  N   0.71821005190107     -0.78196292743313      1.26394345527970
  O   1.68099904596949     -0.70078518831730      2.01282244993902
  O   -0.07817672828229     -1.70765511971267      1.15778749288880
