15
Coordinates from ORCA-job run
  C   -0.70504423432840      0.17962644945377     -0.49617000046276
  C   0.61778875919633     -0.20428939953904      0.17397270828750
  Cl  -0.87193822777303      1.88896657335728     -0.79103553038868
  H   0.74821359918307     -1.28463157812417      0.18224601277339
  C   -0.86702764474625     -0.57378444886695     -1.73334473954313
  N   -1.02863909852406     -1.19117314096499     -2.72150328753768
  N   -1.84639574779180     -0.34469817569943      0.45270240555149
  O   -2.82450553394380      0.35142100847899      0.60656674161031
  O   -1.61778096315550     -1.45969315565441      0.89753877838823
  N   0.72752522434577      0.25753365865756      1.59730810736338
  O   -0.15233264597583      0.98348450945843      2.04241285020669
  O   1.71952138480929     -0.16266775782506      2.17767087586022
  N   1.76839824856402      0.38503756981934     -0.60120535286137
  O   2.06058375604313     -0.23665624121192     -1.61585618372788
  O   2.27263312409706      1.41252412866060     -0.17230338551972
