15
Coordinates from ORCA-job run
  C   -0.72597757044517      0.24402659824312     -0.42127317452673
  C   0.58973711513304     -0.19248198200289      0.22612863914988
  Cl  -1.10449370153545      1.92052173149375     -0.15081946350146
  H   0.63385863429827     -1.27938141833031      0.29083407245043
  C   -0.72108624977898     -0.09435271371509     -1.83710834343162
  N   -0.72910666790288     -0.39929138474097     -2.97319166724449
  N   -1.84972652021162     -0.68160747690112      0.21482324687320
  O   -1.60472471093175     -1.87136103111375      0.10499159972769
  O   -2.81941242045449     -0.14376013578910      0.70126497512340
  N   0.66693607802520      0.34685560644411      1.63329411658815
  O   1.56898248041101      1.12137691049050      1.90873678232885
  O   -0.22837832398932     -0.06437141964844      2.36021731696301
  N   1.80645869519478      0.25990567716468     -0.52058828886877
  O   2.80895611131932     -0.40754706775761     -0.29222807941460
  O   1.70797705086805      1.24246810616311     -1.24508173221693
