15
Coordinates from ORCA-job run
  C   -0.69458104931411      0.32279660229288     -0.42008981772151
  C   0.56267887398975     -0.26743473761719      0.22116594541801
  Cl  -0.79512352228080      2.05336058514074     -0.27233269527651
  H   0.44311503156451     -1.34065725209220      0.36749375726333
  C   -0.80571634386506     -0.11617867121879     -1.80342060022862
  N   -0.91944328819166     -0.49877479848087     -2.91005876440769
  N   -1.91979813003709     -0.36331555687482      0.32435437340606
  O   -1.87734557326363     -1.58166893337572      0.28433881454559
  O   -2.75898090588515      0.35590645880304      0.81878992586935
  N   0.77693053705569      0.35391219408543      1.57905000986197
  O   1.77741457467687      1.02992709423869      1.75576680391925
  O   -0.12630418117669      0.11365569589915      2.37030415876471
  N   1.80513336001787     -0.06441263935398     -0.59095853990970
  O   2.71080117538545     -0.84359088854214     -0.31711659114117
  O   1.82121944132405      0.84847484709579     -1.40728678036308
