11
Coordinates from ORCA-job run
  C   -0.53561999298176     -0.56456712912696      0.33180051000961
  C   0.87715768062553     -0.49421914916577     -0.23860185143141
  Br  -0.56343900843436     -0.44111151437024      2.24081345113105
  H   0.81750729721587     -0.63684773105188     -1.32115011694868
  H   -1.01710826430380     -1.49661121892436      0.03943070900169
  H   1.47190455818627     -1.30765263992636      0.18350585290555
  N   -1.35789590613800      0.52916700624260     -0.33171950955078
  O   -1.70939437336636      1.50702883670359      0.30702389801095
  O   -1.55711007253882      0.31121091847106     -1.52412318371096
  C   1.52539539994017      0.78296423069046      0.04889878276929
  N   2.04860268179526      1.81063839045786      0.26512145781369
