11
Coordinates from ORCA-job run
  C   -0.41292265033616     -0.43259667405886      0.19041290000661
  C   0.77869885367973      0.42524137658899     -0.20405604551603
  Br  -0.58224753002385     -0.60198662409560      2.10151664648709
  H   0.70625851129199      1.39888332421829      0.28326881231083
  H   -0.37877076118941     -1.43627283832896     -0.22872574817300
  H   0.75108848243189      0.59306754890962     -1.28603622915574
  N   -1.67520067253401      0.19521980645919     -0.34460282629172
  O   -2.53785584914392     -0.58141597646567     -0.73912603455179
  O   -1.73510584672087      1.41961545666593     -0.33929975904626
  C   2.03531292333866     -0.22744351598681      0.14838671334043
  N   3.04974453920595     -0.75231188390611      0.41726157058959
