11
Coordinates from ORCA-job run
  C   -0.47202127088601     -0.50030463748948      0.37642972620312
  C   0.98376246477715     -0.06918910870059      0.33949019362189
  Br  -1.06309128444566     -0.76033781187030      2.19251791647822
  H   1.09547208512661      0.87636053169443      0.87247213694075
  H   -0.66558864377598     -1.41819722512187     -0.17464498828901
  H   1.59282604111074     -0.82528298417382      0.84049107003656
  N   -1.34232218360096      0.55507327422661     -0.26101513084571
  O   -1.05635882874577      1.72402364647884     -0.03041588707096
  O   -2.27018211024729      0.14338069036768     -0.94822525742123
  C   1.43084379473508      0.08443309294249     -1.04449655241744
  N   1.76765993595209      0.19004053164603     -2.16360322723619
