11
Coordinates from ORCA-job run
  C   -0.46227367164273     -0.41644720244387      0.05864869804868
  C   0.82754722810815      0.37729315328488     -0.07945066948666
  Br  -0.67835506493029     -1.14338628507834      1.82903763577410
  H   0.86498770771123      1.15314293561955      0.68694390662054
  H   -0.53774188956882     -1.24013042305039     -0.64847589982606
  H   0.83494494409134      0.87377265695363     -1.05590347673995
  N   -1.63446584254938      0.48539954363748     -0.23144785081463
  O   -2.57149414187736     -0.02521791218769     -0.83518224875477
  O   -1.55752500773410      1.64423479941956      0.16122216315023
  C   1.99037144277142     -0.49887331946234      0.02296560621038
  N   2.92200429562054     -1.20878794669247      0.09064213581817
