11
Coordinates from ORCA-job run
  C   -0.39426909655982     -0.46898673208034      0.13740111172467
  C   0.75988252582035      0.47929703876295     -0.14951601454609
  Br  -0.55635292056438     -0.86445429600889      2.01491216218617
  H   0.64295577275490      1.38739299879254      0.44421179062510
  H   -0.31617463138407     -1.41417557176043     -0.39592113358234
  H   0.72746025134826      0.76536380271061     -1.20655497105763
  N   -1.67863113125433      0.16544267267370     -0.33063929372228
  O   -1.81837304595811      1.36415540500778     -0.11432373377815
  O   -2.47722672280013     -0.57890054832915     -0.88921858072833
  C   2.04136576996078     -0.15773375687750      0.13595267053760
  N   3.07036322863654     -0.67740101289127      0.35369599234128
