11
Coordinates from ORCA-job run
  C   -0.49981641774513     -0.58796633964503      0.13275620113833
  C   0.94413762910406     -0.19934409819454      0.39706174561690
  Br  -1.27531084734329     -1.43505215742054      1.68092918269172
  H   1.50882846342477     -1.09307081215824      0.67299503172452
  H   -0.61883751862396     -1.26181068175546     -0.71313602890160
  H   0.98400512197113      0.50722852128751      1.22753947951992
  N   -1.31844878796904      0.63660154682155     -0.19716727469166
  O   -1.05488038094961      1.66364919998921      0.41690998075880
  O   -2.18873583700005      0.48710967590556     -1.04718398961351
  C   1.53281955243894      0.40510563696017     -0.79750401753465
  N   1.98523902269219      0.87654950820982     -1.77220031070878
