13
Coordinates from ORCA-job run
  C   -0.55796969073204      0.04867511893568      0.34969350367406
  C   0.79020567722356      0.01376452272794     -0.42298653072202
  Cl  -0.94259186371358      1.73102810016808      0.77336260902457
  H   0.98084033096064     -1.03625938319360     -0.68504179901746
  N   -1.58325361061669     -0.45049701590238     -0.53013076723385
  H   -1.49424662748576     -1.45553224012645     -0.64249358079623
  H   -2.50231667324389     -0.24718890973466     -0.15438666077033
  C   -0.40095809838683     -0.71869554307721      1.59842936779975
  N   -0.31260089440775     -1.40364323605887      2.55048277871998
  C   1.89955549531409      0.48550074194905      0.40884183787099
  N   2.79145174141774      0.84842679087950      1.08058730661541
  C   0.68791015252638      0.78680654577017     -1.66287440216907
  N   0.64397406114407      1.39861450766275     -2.66348366299580
