13
Coordinates from ORCA-job run
  C   -0.54018799325326      0.01717518024624      0.52231884236410
  C   0.91436815998321      0.35441679432085      0.08738078183478
  Cl  -1.06113500633282      1.25580435213657      1.69193058256644
  H   1.55008956062295      0.34403594571194      0.98058913804062
  N   -1.39814821687394      0.07748874466043     -0.62691015162576
  H   -2.37088220037547      0.00983536916556     -0.35094616212146
  H   -1.18555096776732     -0.67815017617252     -1.27153715395342
  C   -0.52432841189322     -1.28120327902530      1.22236060903565
  N   -0.52799417771377     -2.34311678448820      1.72800747988044
  C   0.97606116346238      1.68202581486194     -0.52896553997139
  N   1.07154234092637      2.74862128541400     -1.00940258898757
  C   1.38449337583595     -0.67145670245266     -0.84908274694060
  N   1.71367237337895     -1.51547654437885     -1.59674309012183
