13
Coordinates from ORCA-job run
  C   -0.58091420092391      0.00327115629810      0.46391941110353
  C   0.75124084563684      0.02310724880652     -0.37322484553295
  Cl  -0.91733142624954      1.68151718087627      0.96922813136688
  H   0.97818768441385     -1.02263701078181     -0.62056492498398
  N   -1.71889283063593     -0.49952924101925     -0.23881165050201
  H   -1.91507595115386      0.04194305057514     -1.07271128443755
  H   -1.62873007427985     -1.48450478846684     -0.45579275269899
  C   -0.33560506825689     -0.82691683091046      1.64874727083530
  N   -0.11055540816781     -1.53342720029432      2.56014786654472
  C   1.87803145206487      0.57370564491112      0.37948830053694
  N   2.78324927857897      0.99443344426331      0.99805308986379
  C   0.52474357372604      0.74876947255413     -1.62380478765133
  N   0.29265212524721      1.30126787318810     -2.63367382444435
