13
Coordinates from ORCA-job run
  C   -0.62449586976156      0.02878374934978      0.50323974245101
  C   0.51022561345165      0.63254470739134     -0.40024337086647
  Cl  -1.14553521230515      1.35984029616697      1.57805764821169
  H   0.07209659283004      1.50083913681936     -0.90809294456502
  N   -1.76068606445282     -0.45720732436276     -0.21268410296362
  H   -2.17346435403817      0.25970077071743     -0.79709159158391
  H   -1.53997575482060     -1.28431577594804     -0.75512211445889
  C   -0.05696118974024     -1.05721328189069      1.30871422116949
  N   0.41832207505868     -1.94256672104655      1.91757222072563
  C   0.89328292761029     -0.36274208289964     -1.40423541537334
  N   1.14066549704700     -1.18769622718974     -2.20293139157115
  C   1.66915582948324      1.07574993976136      0.37498196812892
  N   2.59736990963763      1.43428281313119      0.99883513069565
