13
Coordinates from ORCA-job run
  C   -0.57198958527335      0.02186631342604      0.33270800736965
  C   0.79937003479098      0.05283770167875     -0.39766704190096
  Cl  -1.06282254801527      1.68512232327068      0.72070420461358
  H   1.05794652987565     -0.98828467626537     -0.63608922710738
  N   -1.53999039930552     -0.54459864963628     -0.57082653968807
  H   -2.47988009894417     -0.39462204748777     -0.22213689948624
  H   -1.38749053640232     -1.54328924592396     -0.67139679094243
  C   -0.41091920456484     -0.71983660374667      1.59632850831035
  N   -0.31041340770499     -1.38709234233255      2.55970305421852
  C   1.85351157111994      0.60053888113098      0.45918895137428
  N   2.70162478546447      1.02705255301561      1.14997867394902
  C   0.69403378276780      0.79989525580960     -1.65324325813297
  N   0.65501907619162      1.39141053706092     -2.66625164257736
