13
Coordinates from ORCA-job run
  C   -0.55666289704596      0.02639402652421      0.35623835677985
  C   0.78500278085608      0.04396927695810     -0.42816758295342
  Cl  -0.97084013705088      1.68575109339937      0.83870711544939
  H   0.99462457424216     -0.99299108042265     -0.72544489588613
  N   -1.57960302863041     -0.46385808285814     -0.53117598101342
  H   -2.49897085292300     -0.29614113815292     -0.13881644654577
  H   -1.46864721686354     -1.46177747735604     -0.68144500677381
  C   -0.37253834337286     -0.77841213158354      1.57742570558269
  N   -0.25835179715567     -1.49273802513874      2.50483281008061
  C   1.89201701007526      0.51111068739632      0.40936371321735
  N   2.78240516168357      0.86906383636621      1.08582524980743
  C   0.65690252069528      0.85390979466215     -1.64184096822778
  N   0.59466222548997      1.49571922020566     -2.62250206951701
