13
Coordinates from ORCA-job run
  C   -0.58273745523926     -0.06467206190524      0.40142868050461
  C   0.51482259124321      0.64321245891192     -0.44123822706572
  Cl  -1.21940519108032      1.20946004262632      1.54935089123269
  H   0.02416349547988      1.47499579621598     -0.96359597783997
  N   -1.55789815405419     -0.60438328620635     -0.46878385781939
  H   -2.05808878482871      0.12160511597684     -0.96818106484208
  H   -2.21607451229302     -1.20111464746656      0.01628926825994
  C   0.00857933775828     -1.12658842161507      1.21692952695009
  N   0.47661667054095     -1.98393729320201      1.86972692026152
  C   1.06765080148694     -0.28254853239273     -1.43477059045690
  N   1.51956994587049     -1.00458050275115     -2.24299560226705
  C   1.57979817219127      1.19118475723371      0.40204324770138
  N   2.44300308292449      1.62836657457433      1.06679678538088
