13
Coordinates from ORCA-job run
  C   -0.59191884329649     -0.05964936683030      0.39042041138067
  C   0.53202249035304      0.63887514522569     -0.42449586930615
  Cl  -1.22768839560096      1.21073023086520      1.54279327607695
  H   0.06324403967607      1.48060608390733     -0.95085633765992
  N   -1.55999870378875     -0.57196175911175     -0.50438476967518
  H   -2.03713611414808      0.16862945960246     -1.00511051188737
  H   -2.23834498420244     -1.16136125052479     -0.03834842752277
  C   -0.03299916843378     -1.14228898464547      1.20161913230883
  N   0.40946522091432     -2.02032089260292      1.84495098576180
  C   1.09289578867302     -0.28851770515479     -1.41178612845835
  N   1.55783744941327     -1.01476172779278     -2.20858952353030
  C   1.58784602998380      1.16755116622285      0.44208554664933
  N   2.44577519045697      1.59246960083928      1.12170221586245
