13
Coordinates from ORCA-job run
  C   -0.53350663476799     -0.12030881315884      0.37660924010758
  C   0.81964923395604      0.05941685657313     -0.36932411996480
  Cl  -1.09476633901403      1.53071889196426      0.90660458502555
  H   1.17067050656918     -0.95255197187321     -0.60746444892357
  N   -1.43446685485462     -0.80544677905663     -0.47760266432354
  H   -2.27968407861240     -1.07439227909130      0.01113863862349
  H   -1.67864951502884     -0.24110292864785     -1.28460348933753
  C   -0.29887784104173     -0.90850976358448      1.58908552634378
  N   -0.10732852763290     -1.55712113299718      2.54967230563893
  C   1.82302640240498      0.73065185980963      0.45753612070155
  N   2.64519006862020      1.24337218454420      1.12047106519043
  C   0.59511502917340      0.77655142853111     -1.62689156267478
  N   0.37462855022872      1.31972244698715     -2.64423119640710
