13
Coordinates from ORCA-job run
  C   -0.59399879242101      0.00089852156439      0.44717631071693
  C   0.76102103701485      0.03405004486375     -0.35159827681821
  Cl  -0.99566178835929      1.68365576859668      0.88516392180223
  H   1.02652181161509     -1.01191914042222     -0.55592259227337
  N   -1.69495106396833     -0.56000114124685     -0.27043168603548
  H   -1.88405169021277     -0.05137476542179     -1.12630962699913
  H   -1.56841683906441     -1.54824487996650     -0.45247917688247
  C   -0.35980052551172     -0.78163287042251      1.66617940836036
  N   -0.14319345284717     -1.45077335749606      2.60739150612837
  C   1.84887097254399      0.64437173861364      0.41229152739819
  N   2.72420785598212      1.11342615804353      1.03911847977530
  C   0.54974729400761      0.70945340508302     -1.63263076631879
  N   0.32970518122104      1.22009051821093     -2.66694902885392
