13
Coordinates from ORCA-job run
  C   -0.58385899394721     -0.05685407107466      0.40343102107024
  C   0.53211159515245      0.63830987147426     -0.42536691776177
  Cl  -1.17231467769892      1.20221419927946      1.59221027787192
  H   0.06517124702695      1.49686100485594     -0.92554079207385
  N   -1.58005876567504     -0.53844392199533     -0.47739709860829
  H   -2.05566876835056      0.21745894303718     -0.95609499456605
  H   -2.25713923619717     -1.12549319411114     -0.00653450293917
  C   -0.02365574560252     -1.16265049027696      1.18202018886793
  N   0.41839224989762     -2.05904765842078      1.79975755747974
  C   1.05464477355956     -0.27975788433754     -1.44198354907268
  N   1.48932569233208     -0.99783073200010     -2.26293161573824
  C   1.61642808548304      1.13379283125423      0.42545990131219
  N   2.49662254401971      1.53144110231545      1.09297052415802
