13
Coordinates from ORCA-job run
  C   -0.52366103104588     -0.13804934635135      0.38503078937863
  C   0.81311614777564      0.10801593404410     -0.37149663458353
  Cl  -1.24694493317858      1.48937671209350      0.77103624236410
  H   1.26270013564991     -0.88183920258446     -0.52025928502260
  N   -1.34553806276380     -0.97803300623500     -0.40872896515106
  H   -1.63509503178969     -0.51116657277101     -1.26172058828413
  H   -2.16543103369457     -1.28554576417542      0.09999268162615
  C   -0.22481947932283     -0.79433339979655      1.66040592948300
  N   0.02025108931846     -1.33806635540754      2.67261491132011
  C   1.73907784849729      0.94143893529880      0.39570656848679
  N   2.50365788923397      1.58584493398334      1.01094932822773
  C   0.53341669735327      0.68815322338657     -1.68715651421879
  N   0.27026976396681      1.11620390851502     -2.74837446362639
