13
Coordinates from ORCA-job run
  C   -0.48907104967303     -0.05234637838877      0.56838485571124
  C   0.91224781665688      0.36624607371366      0.04027532851883
  Cl  -0.91594962674775      1.04125052144570      1.90820431583758
  H   1.62911449486192      0.27753369296306      0.86514038966222
  N   -1.45294015554030      0.10789627891138     -0.48340775623584
  H   -1.29089792930174     -0.57033576576168     -1.22205576278719
  H   -2.39378679952128     -0.01402309146222     -0.12694648995842
  C   -0.38776373249501     -1.41724634207850      1.11852527036130
  N   -0.33270964508579     -2.52793906713903      1.50156361311254
  C   0.89601995408999      1.75334578248256     -0.43101131822278
  N   0.93061209889231      2.86826100751945     -0.79642067287854
  C   1.30998045497005     -0.54124469130089     -1.04066148128353
  N   1.58514411889376     -1.29039802090472     -1.90259029183744
