13
Coordinates from ORCA-job run
  C   -0.45876231012769     -0.19735518273738      0.53280377925121
  C   0.89474381700266      0.37578578832954      0.02135942873997
  Cl  -0.88228632971514      0.79820475591035      2.01581733019654
  H   1.59619213500639      0.39862210634091      0.86233508733313
  N   -1.41892729394292     -0.16685524275440     -0.49810993401795
  H   -1.63296044816013      0.77841583267683     -0.79530231607430
  H   -2.26930703377282     -0.65760962635996     -0.25336016574288
  C   -0.25294326350530     -1.57135374907449      0.99640120891175
  N   -0.07975535570275     -2.67207271558893      1.36885952225734
  C   0.69393461972151      1.74189518396582     -0.46980763049884
  N   0.49558136860644      2.82815138871504     -0.86938898733531
  C   1.43431345131349     -0.47887130473442     -1.04031654505557
  N   1.88017664327627     -1.17695723468891     -1.87229077796509
