13
Coordinates from ORCA-job run
  C   -0.61365505726957      0.02628062756007      0.51646373966540
  C   0.49632102027069      0.63404927051582     -0.41429707857154
  Cl  -1.12294263360994      1.35899413304084      1.59449880510629
  H   0.04051623450950      1.49611305408717     -0.91722034277125
  N   -1.76108516682114     -0.47324318186476     -0.17231382238089
  H   -1.54373370809955     -1.29966196440654     -0.71740637428864
  H   -2.19262346445087      0.23789797244583     -0.75029362297825
  C   -0.02038234123618     -1.05060885903947      1.31569274213389
  N   0.47460437698001     -1.92821076555879      1.92008255673889
  C   0.86615135564506     -0.36278985605205     -1.42180873054058
  N   1.10325246249175     -1.18748455103887     -2.22393204537081
  C   1.66800850113484      1.09035711734736      0.33370674129366
  N   2.60556842045541      1.45830700296338      0.93782743196383
