13
Coordinates from ORCA-job run
  C   -0.59299276002770     -0.03194533086850      0.44716445525920
  C   0.75884727103911      0.06802891749502     -0.35143643092451
  Cl  -1.03965314375374      1.62199653830602      0.94747433150713
  H   1.05210150997695     -0.96200630642201     -0.59499179320465
  N   -1.67958337176186     -0.59620604268904     -0.28910941520431
  H   -1.88521848247487     -0.06229449093379     -1.12557695489505
  H   -1.52743140141615     -1.57350376547806     -0.50640191526967
  C   -0.33431834994807     -0.85205285193306      1.63621924300454
  N   -0.09687384125564     -1.54922979601600      2.55168275066700
  C   1.83102614572764      0.67851299719710      0.43397743323811
  N   2.69420096469294      1.14822803933357      1.07689284607876
  C   0.52707552450758      0.78437324449904     -1.60631705200124
  N   0.29281993469382      1.32609884750971     -2.62157749825530
