13
Coordinates from ORCA-job run
  C   -0.45331412518466     -0.04558808812423      0.59880708870701
  C   0.93516033516356      0.30899600477075     -0.00491464067283
  Cl  -0.72338051131375      1.01552338557415      2.00435327103007
  H   1.69614780821814      0.14576359226506      0.76732110015512
  N   -1.47028155138284      0.21663581071198     -0.37950572079257
  H   -1.39639576498642     -0.43491595108956     -1.15523240824357
  H   -2.39243204582557      0.13395876768617      0.03254406772449
  C   -0.40376702547283     -1.43551423920570      1.09040832726018
  N   -0.39438087568303     -2.56148919451742      1.43029480658175
  C   0.97344572605973      1.71124717354001     -0.42785713172673
  N   1.04982025908411      2.83217705266187     -0.76719878406621
  C   1.20515552953098     -0.57797423430792     -1.14117605693066
  N   1.37422224179257     -1.30782007996516     -2.04584391902605
