13
Coordinates from ORCA-job run
  C   -0.58104618928720     -0.06029406091588      0.45899118553357
  C   0.74477139768922      0.11880886311917     -0.36878352091837
  Cl  -1.18380245772354      1.57192074234088      0.85770252109773
  H   1.13721542173725     -0.89099228844205     -0.54935396467811
  N   -1.61450944538684     -0.77662805016393     -0.21879048767687
  H   -1.87985658033436     -0.32471281638514     -1.08615975898558
  H   -1.37048754524860     -1.74729649472280     -0.37143658316817
  C   -0.22947835271921     -0.76827855730090      1.69527584193360
  N   0.08414821457368     -1.37203074147426      2.65318882487090
  C   1.75984239013646      0.88446629121721      0.35433761766240
  N   2.58204810951403      1.47802026145844      0.94676297860120
  C   0.42665923174771      0.72232678826211     -1.66358734186530
  N   0.12449580530140      1.16569006300715     -2.70814731240700
