13
Coordinates from ORCA-job run
  C   -0.59148632770474     -0.08099706776802      0.38726832319009
  C   0.52306621799050      0.65899484847949     -0.40359161955030
  Cl  -1.24746421648433      1.14340103198600      1.57745048248518
  H   0.04218767881806      1.50895315722959     -0.90527282710338
  N   -1.55057063806448     -0.57947450716247     -0.52478914526279
  H   -2.22074471787310     -1.19320264113295     -0.07880388891086
  H   -2.03765952708559      0.16901251676951     -1.00377448290433
  C   -0.01766910519278     -1.18014704459311      1.16520969853850
  N   0.43701410916469     -2.07150469414278      1.78110061402474
  C   1.10004626402356     -0.22893432294664     -1.41742417745055
  N   1.57772512639011     -0.92299071990541     -2.23513833995032
  C   1.56884052167204      1.17786924933665      0.48086839566748
  N   2.41771461434605      1.59602019385014      1.17589696722654
