13
Coordinates from ORCA-job run
  C   -0.58471650177987     -0.03620889701772      0.40312142308785
  C   0.53462042302933      0.61442465118320     -0.45644915250334
  Cl  -1.18087352376695      1.28661893591920      1.51730838990741
  H   0.06959459601752      1.44564327694991     -1.00245327153858
  N   -1.57574278465773     -0.56725990007156     -0.45442999713385
  H   -2.25507380414884     -1.12725674887629      0.04510006078989
  H   -2.04909377819452      0.15972098908994     -0.97768905303926
  C   -0.02829431244134     -1.09592695155634      1.24567948108089
  N   0.40716614972492     -1.95689452053014      1.91641295203986
  C   1.06060337014451     -0.35428796030647     -1.42303720277351
  N   1.49544536147682     -1.11126501439320     -2.20796061517823
  C   1.61500919610095      1.15436427915039      0.37188593093370
  N   2.49135560849518      1.58732786045908      1.02251105432719
