13
Coordinates from ORCA-job run
  C   -0.67498459321856      0.01776168149725      0.33161791588385
  C   0.58610453336522      0.76835273321534     -0.18291847531664
  Cl  -2.06076186952609      1.13047238946293      0.20700231935167
  H   0.73574857289315      1.65547415712561      0.44377206165341
  N   -0.91888380216108     -1.11934858718750     -0.50952736538342
  H   -0.18778171642423     -1.81451499396025     -0.39143920263742
  H   -1.81311203645874     -1.54208532555496     -0.28889215414427
  C   -0.47716109820212     -0.29235000991872      1.76012813326023
  N   -0.29919731008450     -0.59489507844602      2.88269975628932
  C   0.40702135865624      1.19024951098916     -1.57437318760576
  N   0.29557120793133      1.56487828633770     -2.68109895041911
  C   1.75287461735613     -0.11092927117993     -0.05674563586107
  N   2.65656213587324     -0.85206549238059      0.06077478492921
