13
Coordinates from ORCA-job run
  C   -0.46706056108747     -0.12432369529831      0.66195970923173
  C   0.89083448830386      0.32106431517222     -0.00088264725924
  Cl  -0.69225218505852      0.94630728613649      2.07884335617904
  H   1.68820436041574      0.26549007274695      0.74903315157365
  N   -1.61930542688352     -0.04270731594233     -0.17163760198561
  H   -1.59655792571923     -0.72502247368326     -0.92022419535062
  H   -1.76064504723422      0.89378083862329     -0.53187870881030
  C   -0.29375598075639     -1.50364843766545      1.13108602665128
  N   -0.12207967328886     -2.61188323138515      1.48156910398299
  C   0.76779559638188      1.69714484821050     -0.48444315752286
  N   0.62445193149089      2.79371365482861     -0.87949939862005
  C   1.19319607385506     -0.58116391947653     -1.11437771379356
  N   1.38617434958076     -1.32775194226703     -2.00054792427647
