13
Coordinates from ORCA-job run
  C   -0.57438586524732     -0.06998195390345      0.41421308081186
  C   0.52820669664648      0.64802114852296     -0.41267105533104
  Cl  -1.12485048489494      1.14473543394249      1.66511356246844
  H   0.05543103086415      1.52568878750828     -0.87284886035612
  N   -1.59496923250306     -0.50739544443859     -0.46237387338666
  H   -2.07492490008990      0.27242042070673     -0.89653914240953
  H   -2.26701802824445     -1.10571609458920      0.00163044084554
  C   -0.00680839515940     -1.21073879708981      1.13469457867017
  N   0.44042472681675     -2.13576254992414      1.70470820137908
  C   1.02380165138624     -0.23630324198228     -1.47176734933872
  N   1.43714611241075     -0.92651415392555     -2.32695676720156
  C   1.63244527080859      1.11106673057928      0.43098683120415
  N   2.52550141720611      1.49047971459328      1.09181035264437
