13
Coordinates from ORCA-job run
  C   -0.61713937191750     -0.00704291705053      0.51160740677178
  C   0.49939731150665      0.66128258051340     -0.36851083021325
  Cl  -1.13609687639637      1.25240747794747      1.67072566981599
  H   0.04624720254894      1.55432553589489     -0.81675896454614
  N   -1.75799589518240     -0.46109273316857     -0.21747117990118
  H   -1.53849503871660     -1.25514091985873     -0.80757923001786
  H   -2.18377650481438      0.28381158637737     -0.75567964441777
  C   -0.02993085022032     -1.13348892880951      1.24409583148473
  N   0.45558207998647     -2.05077768664010      1.79503166793647
  C   0.87776362000289     -0.26670032492072     -1.43675332898530
  N   1.12225418583230     -1.03675341445051     -2.28930779881411
  C   1.66463322033961      1.06760731756927      0.41733098670276
  N   2.59655691703070      1.39356242659627      1.05326941418388
