13
Coordinates from ORCA-job run
  C   -0.57286085796585     -0.06623427906171      0.41728607247415
  C   0.50706428452867      0.64686653292640     -0.44351235644908
  Cl  -1.16210725926008      1.18970569837594      1.60895378077517
  H   0.00874227246677      1.48967894581947     -0.94016801844406
  N   -1.57830275231755     -0.57809022728540     -0.43563274643571
  H   -2.22838381183070     -1.17872584943565      0.05543250958504
  H   -2.08490088647285      0.16290710050728     -0.90584486673647
  C   0.03083500993199     -1.15190393247778      1.19156187736753
  N   0.50758221281950     -2.03276828815156      1.80574611172633
  C   1.02696084401262     -0.26857911214772     -1.46382321552099
  N   1.45874011153714     -0.98490002101605     -2.28785382373685
  C   1.59907841779552      1.17509820936176      0.37727179463899
  N   2.48555241475480      1.59794522258502      1.02058288075596
