13
Coordinates from ORCA-job run
  C   -0.54279363333825     -0.05153849595591      0.38121210678718
  C   0.82472576200092     -0.01449131733748     -0.35929549549203
  Cl  -1.04998197194603      1.67104427408339      0.69079995164688
  H   1.14171658096305     -1.05995673786208     -0.46044808656313
  N   -1.45763068928290     -0.80819877550750     -0.39480582879079
  H   -2.31848865813222     -0.98239578945441      0.10969485490051
  H   -1.67017593289260     -0.34367438409362     -1.27174230252098
  C   -0.34976955084866     -0.68979501770128      1.68590880232580
  N   -0.19031560375190     -1.22328682199594      2.72060432514448
  C   1.84203762527737      0.72144535224081      0.39151050431264
  N   2.67639546593748      1.28498097480925      0.99530531631144
  C   0.64206230973105      0.54189083915836     -1.70185591392719
  N   0.45321829628269      0.95397589961640     -2.78488823413481
