13
Coordinates from ORCA-job run
  C   -0.58332403819894     -0.09931348174574      0.39575381984095
  C   0.51460154435738      0.67821719441195     -0.38226828597094
  Cl  -1.21116279086358      1.06578139509010      1.65859600408542
  H   0.02442402034312      1.55245774781581     -0.83010317762114
  N   -1.56300151303019     -0.55226731374230     -0.51822227320120
  H   -2.22416150745583     -1.18647435801288     -0.08805822239071
  H   -2.05941378938340      0.21900365175186     -0.94934582497042
  C   0.00597185771969     -1.23511485808171      1.10673725179964
  N   0.47272688747109     -2.15428686955384      1.67047642701704
  C   1.06715941181313     -0.15845550135462     -1.45172907652260
  N   1.52664287048953     -0.80969887049804     -2.31388050024865
  C   1.58118464477757      1.15064420795195      0.50322066999392
  N   2.44735240196046      1.53050705596746      1.19882318818868
