13
Coordinates from ORCA-job run
  C   -0.58372930348573      0.00477142349717      0.46056561162861
  C   0.75305648245589      0.01629918398697     -0.36854137249190
  Cl  -0.87590243632024      1.67385720757347      1.02231324958070
  H   0.95113263627697     -1.02603107160516     -0.65230018686803
  N   -1.73068843364256     -0.44176924466916     -0.26492094837228
  H   -1.90328670835809      0.12811365734417     -1.08492876214417
  H   -1.67121152971676     -1.42328663899236     -0.50717670002245
  C   -0.36985954268132     -0.87203256567071      1.61757869025994
  N   -0.17448257518561     -1.61615245388864      2.50559531863431
  C   1.89174026366763      0.50593155455063      0.40801379235068
  N   2.80902922501049      0.87270662854031      1.04291037013728
  C   0.55547183970790      0.79212263460172     -1.59362488262984
  N   0.34773008227143      1.38546968473160     -2.58548418006286
