13
Coordinates from ORCA-job run
  C   -0.63290670102999     -0.00379846005499      0.49153973180312
  C   0.49330286725410      0.65813454515783     -0.38128100916047
  Cl  -1.22336040057155      1.28869395806267      1.57781982867530
  H   0.03184871713199      1.51961461273633     -0.87998909120367
  N   -1.73719116330077     -0.52082631397373     -0.25196408243645
  H   -1.47571500264790     -1.32950108523582     -0.80403426187295
  H   -2.16808087748358      0.18953705915981     -0.83128049379904
  C   -0.03922648466111     -1.08030122032773      1.29101565100888
  N   0.45407547068894     -1.95602072929310      1.89945326136507
  C   0.92965754416996     -0.30156501791715     -1.39801209385603
  N   1.22226888464536     -1.09638135641520     -2.21189467192552
  C   1.62154157526020      1.12758147946051      0.42317724748966
  N   2.52278557054434      1.50383252864057      1.07544998391212
