13
Coordinates from ORCA-job run
  C   -0.43799924754568     -0.21779187781858      0.54386062525867
  C   0.88940126235669      0.38385603989112     -0.00121387055963
  Cl  -0.81425818853854      0.73227217016840      2.06906768750278
  H   1.62080692769994      0.39241096499176      0.81421530696139
  N   -1.43702668375218     -0.16890821200963     -0.44879489634572
  H   -1.66861474271474      0.78223180585689     -0.71243624956143
  H   -2.27421762309367     -0.67109283004436     -0.18279449346714
  C   -0.20150441590234     -1.60164376151133      0.96100912846105
  N   -0.00467192114847     -2.71046011955170      1.29617428895320
  C   0.65645957940140      1.75992349435196     -0.44852540201922
  N   0.43176633997432      2.85168114208489     -0.81762525359215
  C   1.40221946187258     -0.43438834125120     -1.10403374119321
  N   1.83663925139069     -1.09909047515823     -1.96890313039860
