13
Coordinates from ORCA-job run
  C   -0.55848430662059     -0.10949312215704      0.47796545624404
  C   0.72520040254191      0.16465436448191     -0.38961927582990
  Cl  -1.18034615642012      1.47191360329361      1.02321350191998
  H   1.13334796355608     -0.81833526043288     -0.66048997208358
  N   -1.60473977268535     -0.80038962516690     -0.20747823373408
  H   -1.91824253249518     -0.29083510935446     -1.02549819818458
  H   -1.34266787849621     -1.74907010982787     -0.44682695286971
  C   -0.13597807020150     -0.89876981156523      1.64059706116390
  N   0.23500727490146     -1.56675657904262      2.53312492748391
  C   1.75192512148687      0.90358214474329      0.34484217286697
  N   2.58138985416430      1.47719641540700      0.94653826093945
  C   0.33613128147981      0.85228674127343     -1.62156706147264
  N   -0.02254318121149      1.36401634834778     -2.61580168644375
