13
Coordinates from ORCA-job run
  C   -0.61174674326434      0.09411651358445      0.40304605566256
  C   0.56474994659465      0.67233862541627     -0.43069096171678
  Cl  -1.21543231935065      1.40308517007008      1.44892288003345
  H   0.14925369634096      1.53195507728887     -0.96921553320102
  N   -1.65970810295860     -0.27944726178243     -0.51247826369365
  H   -2.50867182954842     -0.49207972297449     -0.00024638784894
  H   -1.38699413108513     -1.10443103963621     -1.03935952080682
  C   -0.12701746142084     -0.99682322748733      1.26580021680536
  N   0.22993582108100     -1.91756469726136      1.90468732628270
  C   1.00991138005743     -0.33041860442477     -1.40254733290908
  N   1.31389074921175     -1.15851225321086     -2.17789050726793
  C   1.67523571527377      1.10928249333799      0.41676425979248
  N   2.56559327906842      1.46749892707979      1.09320776886767
