13
Coordinates from ORCA-job run
  C   -0.47031330203598     -0.07212955375793      0.58295515097167
  C   0.90893015762265      0.37405308769293      0.01951500256876
  Cl  -0.86160996267935      0.98200218668380      1.96512255913137
  H   1.65373064316934      0.26942967169315      0.81730634081202
  N   -1.47043199179335      0.10558349878756     -0.43069580915225
  H   -1.32304266088905     -0.54504657935038     -1.19657741533908
  H   -2.39746047134045     -0.04065372921408     -0.04828459317826
  C   -0.33511559352308     -1.44878346299610      1.09540632250269
  N   -0.24707848384945     -2.56605597555432      1.45233932579097
  C   0.86511344548031      1.77270168024633     -0.41382620030057
  N   0.87705218273457      2.89572366785487     -0.75487011980458
  C   1.27629622453972     -0.50143083035736     -1.09800019356797
  N   1.52392981256411     -1.22639366172847     -1.98839037043478
