13
Coordinates from ORCA-job run
  C   -0.56382430459492     -0.07501398702320      0.42734765653602
  C   0.50643691756142      0.65381734848924     -0.43210829851647
  Cl  -1.11298977659997      1.14677856331642      1.67254115558759
  H   0.00723026999619      1.51716508584423     -0.89133284794457
  N   -1.59302161260794     -0.54596868132206     -0.42085445820251
  H   -2.24139059286535     -1.15347864048292      0.06412509146966
  H   -2.09910179620595      0.21673910415745     -0.85566823774499
  C   0.04199614127227     -1.19310660017654      1.15217732665436
  N   0.52006687554931     -2.09986509898651      1.72636241259662
  C   0.99448474710789     -0.23346666736663     -1.49220873376546
  N   1.39721406500904     -0.92677028912800     -2.34998374434387
  C   1.62008325008293      1.14633553178519      0.38184267122804
  N   2.52081581629508      1.54783433089331      1.01876000644557
