13
Coordinates from ORCA-job run
  C   -0.41105494169353     -0.20252556906271      0.56950528933887
  C   0.90532543093400      0.34159259233411     -0.05649474150628
  Cl  -0.64214625476535      0.74878342184255      2.12266795394878
  H   1.68755125558338      0.30739923251819      0.70957025892401
  N   -1.46870489544566     -0.09677411235236     -0.35571944020585
  H   -1.67160819095584      0.86667387717754     -0.59728114012048
  H   -2.30974892454161     -0.56217735199105     -0.03979982895166
  C   -0.21562413825546     -1.60028027665196      0.96069368367221
  N   -0.05559651810127     -2.72124322461561      1.27425444245256
  C   0.70944371189518      1.73176780923894     -0.47714760424548
  N   0.51384147989462      2.83744542216393     -0.82066501711481
  C   1.30638252786968     -0.48802178730063     -1.19645203071817
  N   1.65193945758186     -1.16264003330093     -2.09313182547370
