13
Coordinates from ORCA-job run
  C   -0.58786522367768     -0.07168911799104      0.56630897040918
  C   0.85884508738962      0.37771631340140      0.13354803454200
  Cl  -1.14401523116144      1.14950350406296      1.75116836037133
  H   1.48591288965008      0.46821118742434      1.02784289117122
  N   -1.54514522252291     -0.17225724933405     -0.48372245021539
  H   -1.34122785007286     -0.94010034956299     -1.11244885016486
  H   -1.64567267750164      0.70008476264962     -0.98943576471973
  C   -0.45954201072043     -1.36691617269306      1.24353566979055
  N   -0.32105148306996     -2.40827521879833      1.76968886956080
  C   0.78351465160875      1.67168053371783     -0.54638196848680
  N   0.68200915417681      2.69789974310892     -1.10812970363448
  C   1.41880040032244     -0.63416235528483     -0.76534704808080
  N   1.81643751557921     -1.47169558070076     -1.48662701054303
