14

C	0.0	0.0	0.0
C	-0.527579	-0.049586	-1.44185
Cl	1.784805	0.0	0.0
H	-1.626226	0.031715	-1.361633
H	-0.29825	-0.953291	0.45161
N	-0.483546	1.177649	0.653168
H	-1.50433	1.166201	0.559225
H	-0.273056	1.104064	1.641712
C	-0.154264	-1.289851	-2.105971
N	0.113246	-2.317721	-2.606381
N	-0.041333	1.12271	-2.24515
O	-0.653539	2.173699	-2.094024
O	0.930687	0.951381	-2.98048
Br	-3.639012	0.0	0.0
