14

C	0.0	0.0	0.0
C	-0.376194	0.111198	-1.517227
Cl	1.828598	0.0	0.0
H	0.525441	-0.030492	-2.120532
H	-0.319673	-0.983912	0.333289
N	-0.460916	0.992538	0.897713
H	-1.475161	0.862207	0.976049
H	-0.282906	1.921757	0.532102
C	-0.922961	1.411112	-1.868993
N	-1.207689	2.524656	-2.111911
N	-1.240197	-1.026466	-2.02991
O	-1.922885	-0.792089	-3.015276
O	-1.044936	-2.120809	-1.519671
Br	-3.470857	0.0	0.0
