14

C	0.0	0.0	0.0
C	-0.566391	0.086629	-1.411954
Cl	1.829627	0.0	0.0
H	-1.675323	0.141213	-1.245077
H	-0.272584	-0.991263	0.362274
N	-0.542601	0.962817	0.85153
H	-0.31668	1.913351	0.615988
H	-0.460832	0.747258	1.829601
C	-0.2169	-1.084566	-2.201739
N	0.052407	-2.06218	-2.793121
N	-0.155485	1.324347	-2.156851
O	-0.06015	2.36223	-1.507483
O	0.004989	1.232893	-3.369926
Br	-3.721339	0.0	0.0
