16

C	0.0	0.0	0.0
C	-0.481688	-0.075801	-1.446297
F	1.357715	0.0	0.0
H	-0.236029	0.890212	-1.904627
H	-1.583496	-0.112071	-1.367104
N	-0.414974	1.197531	0.679369
H	-1.427931	1.114617	0.77907
H	-0.219313	1.973216	0.055037
N	-0.584358	-1.145713	0.732564
O	-0.233302	-2.295923	0.346643
O	-1.752414	-0.850691	1.227389
C	0.063064	-1.214319	-2.298368
H	-0.323888	-2.168719	-1.945905
H	1.153543	-1.259562	-2.249805
H	-0.231325	-1.06953	-3.344633
H	-2.935602	0.0	0.0
