16

C	0.0	0.0	0.0
C	-0.267061	0.082184	-1.514117
F	1.366221	0.0	0.0
H	0.112003	1.082292	-1.753428
H	0.447911	-0.626125	-1.938828
N	-0.620323	0.956264	0.781973
H	-0.457064	0.742473	1.76142
H	-1.651231	0.803869	0.587662
N	-0.25507	-1.456063	0.533282
O	-0.312935	-2.382481	-0.269292
O	-0.277983	-1.581244	1.756306
C	-1.612785	-0.130116	-2.189254
H	-2.014918	-1.115592	-1.967825
H	-2.366379	0.572486	-1.850222
H	-1.448247	-0.038354	-3.272965
H	-3.147777	0.0	0.0
