16

C	0.0	0.0	0.0
C	-0.495284	-0.184864	-1.419724
F	1.357927	0.0	0.0
H	0.042208	-1.023283	-1.866114
H	-1.563669	-0.424307	-1.310042
N	-0.554803	1.053639	0.75173
H	-1.583773	0.847001	0.719808
H	-0.42023	1.905563	0.220562
N	-0.306458	-1.317105	0.773888
O	0.017515	-2.352129	0.19045
O	-0.752228	-1.259968	1.909123
C	-0.337831	1.087498	-2.245166
H	0.668191	1.510281	-2.169675
H	-1.064084	1.83873	-1.929404
H	-0.534367	0.879972	-3.300695
H	-3.09385	0.0	0.0
