16

C	0.0	0.0	0.0
C	-0.512835	-0.19995	-1.4096
F	1.357226	0.0	0.0
H	-0.511458	0.804352	-1.844381
H	-1.569121	-0.479581	-1.301771
N	-0.586593	1.102766	0.607453
H	-1.621626	0.937458	0.467158
H	-0.392451	1.073516	1.603829
N	-0.248798	-1.300686	0.869352
O	-0.50255	-2.369349	0.32408
O	-0.09568	-1.15568	2.082295
C	0.299623	-1.142114	-2.289632
H	-0.132491	-1.161044	-3.294509
H	1.337509	-0.81274	-2.37938
H	0.290699	-2.158054	-1.899572
H	-3.073558	0.0	0.0
