16

C	0.082881	0.080554	0.005287
C	-0.362161	-0.055595	-1.472952
F	1.429319	-0.368389	0.088731
H	0.467223	0.368413	-2.053734
C	0.198338	1.531847	0.332545
N	0.261829	2.674909	0.598935
N	-0.743666	-0.600865	0.898708
H	-1.649712	-0.933597	0.485139
H	-0.852819	-0.143232	1.789197
N	-1.59042	0.665669	-1.784918
H	-2.337811	0.146345	-1.305264
H	-1.554433	1.619065	-1.439973
N	-0.485432	-1.46593	-1.788845
H	-1.369621	-1.754741	-1.351168
H	-0.648608	-1.505244	-2.789943
F	-2.89606	-1.317669	-0.4022
