18

C	-0.465864	-0.006346	-1.450861
C	0.0	0.0	0.0
F	0.038393	1.212625	-2.020977
H	1.099189	0.0	0.0
C	0.132443	-1.125909	-2.267299
H	1.219384	-1.072837	-2.199025
H	-0.208495	-2.081897	-1.874404
H	-0.175659	-1.019864	-3.313978
N	-1.892277	0.004458	-1.509007
H	-2.198916	0.113047	-2.468334
H	-2.210731	0.787504	-0.948608
N	-0.464847	-1.21925	0.62514
H	-1.476409	-1.191312	0.706017
H	-0.049177	-1.30434	1.546453
N	-0.578146	1.21941	0.631011
H	-0.097106	2.006132	0.199994
H	-0.263792	1.212617	1.598191
Br	3.124851	0.0	0.0
