18

C	-0.432742	-0.003273	-1.466645
C	0.0	0.0	0.0
F	-1.828074	-0.220308	-1.498635
H	1.102236	0.0	0.0
C	-0.188496	1.317842	-2.171591
H	-0.843716	2.07976	-1.748109
H	0.85281	1.635989	-2.070325
H	-0.428097	1.208982	-3.23265
N	0.157744	-1.076741	-2.21623
H	1.062904	-0.807157	-2.57826
H	0.278067	-1.866468	-1.591643
N	-0.430485	-1.26149	0.562443
H	-0.018453	-1.397786	1.480047
H	-1.440854	-1.252098	0.653701
N	-0.589229	1.146353	0.71078
H	-0.123029	1.999711	0.415221
H	-0.375552	1.038918	1.69758
Br	2.759383	0.0	0.0
