18

C	-0.505003	-0.016514	-1.44208
C	0.0	0.0	0.0
F	-0.179583	1.186206	-2.060215
H	1.09912	0.0	0.0
C	0.184708	-1.105306	-2.25057
H	-0.106569	-1.007348	-3.301113
H	-0.115015	-2.094704	-1.894436
H	1.270512	-1.000327	-2.165491
N	-1.954364	-0.093134	-1.416296
H	-2.181125	-0.906858	-0.851663
H	-2.297537	-0.2428	-2.359519
N	-0.474637	-1.278905	0.621071
H	-0.538907	-1.104561	1.61806
H	0.273309	-1.959485	0.514597
N	-0.485634	1.170573	0.674897
H	-1.496624	1.147342	0.741037
H	-0.058454	1.255424	1.58876
Br	3.709081	0.0	0.0
