18

C	-0.490722	-0.075389	-1.446963
C	0.0	0.0	0.0
F	0.219158	0.948062	-2.127503
H	1.098511	0.0	0.0
C	-0.121957	-1.357437	-2.156311
H	-0.740119	-2.184026	-1.805794
H	-0.294649	-1.232074	-3.229927
H	0.9353	-1.574552	-1.997383
N	-1.887207	0.191383	-1.514322
H	-2.02805	1.042403	-0.977772
H	-2.134768	0.377947	-2.479388
N	-0.511746	-1.124468	0.800986
H	0.106699	-1.189617	1.602711
H	-0.363113	-1.988916	0.294529
N	-0.478205	1.247875	0.601091
H	-1.088824	1.004359	1.368657
H	0.310537	1.767493	0.955432
Br	3.690549	0.0	0.0
