18

C	-0.432001	-0.259316	-1.445
C	0.0	0.0	0.0
F	-0.148851	-1.611911	-1.710139
H	1.099252	0.0	0.0
C	-1.911324	-0.060832	-1.685623
H	-2.137714	-0.36616	-2.708518
H	-2.485458	-0.66433	-0.979837
H	-2.175433	0.989751	-1.555758
N	0.350336	0.505213	-2.384315
H	1.331539	0.316903	-2.173633
H	0.204929	1.481998	-2.143961
N	-0.579571	-0.999807	0.903816
H	-0.043274	-0.962298	1.76616
H	-0.388001	-1.910603	0.498896
N	-0.415207	1.351506	0.36602
H	-1.291105	1.280407	0.874366
H	0.282357	1.751121	0.980455
Br	3.643426	0.0	0.0
