18

C	-0.517991	0.027294	-1.438303
C	0.0	0.0	0.0
F	-0.441083	1.316618	-1.953796
H	1.095273	0.0	0.0
C	0.329749	-0.849886	-2.338518
H	1.369867	-0.518753	-2.299347
H	0.284074	-1.884313	-1.995913
H	-0.042542	-0.786106	-3.366344
N	-1.939987	-0.294281	-1.416026
H	-2.287323	-0.235997	-2.367802
H	-2.007962	-1.261238	-1.118055
N	-0.387807	-1.327219	0.552349
H	0.392825	-1.678864	1.09532
H	-1.167802	-1.192946	1.186119
N	-0.486996	1.152639	0.720512
H	-1.500335	1.133647	0.74222
H	-0.115569	1.144619	1.661943
Br	3.684346	0.0	0.0
