18

C	-0.471985	-0.012825	-1.458126
C	0.0	0.0	0.0
F	-0.145807	1.230855	-2.019552
H	1.100084	0.0	0.0
C	0.265003	-1.050306	-2.282021
H	0.006475	-2.053907	-1.936487
H	-0.023421	-0.955745	-3.334208
H	1.343342	-0.902967	-2.18564
N	-1.910161	-0.110723	-1.468033
H	-2.237179	-0.371561	-2.390748
H	-2.141116	-0.848567	-0.809065
N	-0.515955	-1.226348	0.647576
H	0.216842	-1.929079	0.606107
H	-0.619562	-0.974873	1.624778
N	-0.49425	1.154908	0.729447
H	0.197302	1.889495	0.647765
H	-1.3445	1.477971	0.279999
Br	3.676378	0.0	0.0
