18

C	-0.484287	0.025977	-1.448541
C	0.0	0.0	0.0
F	-1.836058	0.518694	-1.437998
H	1.098797	0.0	0.0
C	0.324923	0.986595	-2.282471
H	-0.062374	1.01581	-3.306128
H	1.370437	0.676034	-2.281388
H	0.251943	1.97993	-1.841605
N	-0.479244	-1.289072	-1.987847
H	-0.792665	-1.265241	-2.950388
H	-1.121976	-1.848686	-1.438347
N	-0.510169	-1.226955	0.662765
H	0.16177	-1.964305	0.461136
H	-0.439512	-1.063195	1.66195
N	-0.432334	1.211985	0.65603
H	0.094659	1.341085	1.510445
H	-1.423128	1.153489	0.858591
Br	3.695657	0.0	0.0
