16

C	-0.580252	-0.033909	-1.421838
C	0.0	0.0	0.0
Cl	-2.332071	-0.312064	-1.372064
H	1.090767	0.0	0.0
N	-0.308645	1.379463	-2.006652
O	-1.238907	2.158033	-2.105434
O	0.862312	1.567667	-2.2918
C	0.028381	-0.98578	-2.340078
N	0.47332	-1.699358	-3.161479
N	-0.395692	-1.319966	0.653378
O	-1.042058	-1.27022	1.69946
O	-0.034815	-2.34389	0.083619
N	-0.457054	1.142148	0.693082
H	-1.361234	0.997736	1.120957
H	0.224287	1.403227	1.392058
Cl	3.182054	0.0	0.0
