18

C	0.0	0.0	0.0
C	-0.40796	-0.065478	-1.482006
F	1.390679	0.0	0.0
H	-0.239577	-1.089175	-1.821171
C	-0.393559	1.274743	0.632614
N	-0.671666	2.265118	1.198305
C	-0.564829	-1.164912	0.779468
H	-0.229263	-2.10239	0.330931
H	-1.658325	-1.114461	0.765737
H	-0.219663	-1.115772	1.81349
N	0.578475	0.74148	-2.277398
O	0.682449	1.933018	-2.005209
O	1.190993	0.15849	-3.171044
C	-1.798979	0.425123	-1.803988
H	-1.900264	1.477841	-1.538594
H	-1.983937	0.305393	-2.874591
H	-2.579762	-0.108582	-1.255539
Br	-4.742966	0.0	0.0
