18

C	0.0	0.0	0.0
C	-0.529945	-0.056714	-1.441205
F	1.386686	0.0	0.0
H	-1.5983	-0.294847	-1.369518
C	-0.392589	1.289485	0.605412
N	-0.562382	2.334626	1.113369
C	-0.464188	-1.152745	0.868774
H	-1.55571	-1.155437	0.904223
H	-0.10236	-2.091537	0.448644
H	-0.05165	-1.022307	1.871491
N	0.138274	-1.222994	-2.107663
O	1.15466	-1.00843	-2.769042
O	-0.365914	-2.333683	-1.939184
C	-0.285045	1.209397	-2.233363
H	0.754449	1.528986	-2.162525
H	-0.530099	1.047066	-3.284133
H	-0.941614	1.98944	-1.845633
Br	-3.789852	0.0	0.0
