18

C	0.0	0.0	0.0
C	-0.41852	-0.056253	-1.479449
F	1.391156	0.0	0.0
H	-0.286724	-1.084879	-1.820285
C	-0.39322	1.269902	0.641482
N	-0.672133	2.257382	1.211774
C	-0.55661	-1.173293	0.774832
H	-0.213261	-2.104659	0.318724
H	-1.650467	-1.13409	0.763331
H	-0.209387	-1.128387	1.808365
N	0.586897	0.719432	-2.282552
O	1.178916	0.114596	-3.175314
O	0.726327	1.908173	-2.016188
C	-1.796543	0.479245	-1.789593
H	-1.993853	0.359596	-2.858002
H	-2.590367	-0.024472	-1.229845
H	-1.85353	1.538202	-1.534522
Br	-4.753244	0.0	0.0
