15

C	0.0	0.0	0.0
C	-0.475503	0.021672	-1.450298
Br	1.968751	0.0	0.0
H	-0.080383	-0.885706	-1.917048
H	-1.570065	-0.069583	-1.346238
C	-0.307942	1.28913	0.667338
N	-0.487294	2.314597	1.215649
N	-0.571269	-1.134496	0.646125
H	-1.610078	-0.946381	0.51891
H	-0.381953	-1.08437	1.643998
C	-0.132278	1.276404	-2.237812
H	0.936636	1.502212	-2.227363
H	-0.671896	2.13564	-1.833201
H	-0.440884	1.152681	-3.279488
H	-2.996055	0.0	0.0
