15

C	0.0	0.0	0.0
C	-0.484752	0.095849	-1.443012
Br	1.968328	0.0	0.0
H	-1.582275	0.057621	-1.325089
H	-0.151153	-0.819775	-1.940998
C	-0.300041	1.25698	0.730456
N	-0.471296	2.247198	1.342638
N	-0.579611	-1.158772	0.592158
H	-0.396746	-1.152964	1.592557
H	-1.618423	-0.961172	0.468361
C	-0.076341	1.346405	-2.204458
H	-0.454505	2.242365	-1.704372
H	-0.513673	1.320623	-3.207226
H	1.007964	1.439886	-2.309034
H	-3.004873	0.0	0.0
