15

C	0.0	0.0	0.0
C	-0.198546	0.047294	-1.564307
Br	1.982135	0.0	0.0
H	0.105046	-0.951705	-1.903712
H	0.543825	0.74114	-1.964447
C	-0.335706	1.319383	0.566554
N	-0.500144	2.420786	0.942972
N	-0.677176	-1.014747	0.70473
H	-1.714289	-0.701768	0.610687
H	-0.595025	-1.87708	0.171146
C	-1.546286	0.421885	-2.162126
H	-2.353134	-0.223849	-1.829197
H	-1.841799	1.427522	-1.861202
H	-1.434295	0.398002	-3.2554
H	-3.075877	0.0	0.0
