15

C	0.0	0.0	0.0
C	-0.453428	0.044162	-1.463526
Br	1.976077	0.0	0.0
H	-0.093051	-0.87913	-1.93652
H	-1.551553	-0.013269	-1.358487
C	-0.336239	1.270291	0.672156
N	-0.521503	2.309595	1.187772
N	-0.562454	-1.079646	0.746166
H	-1.59677	-0.842744	0.692589
H	-0.436595	-1.923736	0.189338
C	-0.054372	1.273556	-2.265431
H	-0.479106	2.17331	-1.814173
H	1.02879	1.397276	-2.331304
H	-0.4529	1.196209	-3.281942
H	-2.990124	0.0	0.0
