12
Coordinates from ORCA-job run
  C   0.58325121223274      0.27090164199923     -0.50230716971391
  C   -0.67738836098840      0.06807729347990      0.36123740746794
  F   0.67948989382639      1.65343658302900     -0.69768250439036
  H   -0.49611392656734      0.55838269648196      1.32630458369236
  H   0.44550031069823     -0.17923277142989     -1.48712073006112
  N   1.70285351465006     -0.29279045012041      0.13545821963996
  H   1.93015722686588      0.18913657718261      0.99599991977390
  H   2.51356183629918     -0.31042014580275     -0.46747185901289
  C   -0.92382233947292     -1.35756812052154      0.59181762949041
  N   -1.13327932619272     -2.49794470294651      0.77207078256830
  C   -1.84578771254360      0.69936594168272     -0.26049486308449
  N   -2.77742232880749      1.19965545696568     -0.76881141637010
