12
Coordinates from ORCA-job run
  C   0.62634686433709     -0.10225685253285     -0.48464958135503
  C   -0.60672752911604     -0.38049168175469      0.40202088610140
  F   0.19242763778083      0.60939528773004     -1.57781664431968
  H   -0.24703277519474     -0.87988781244572      1.30902254056791
  H   1.02257101260020     -1.05751347990004     -0.84974337939462
  N   1.57612003592437      0.68675002936721      0.24856367604549
  H   2.38531628206970      0.14042932685615      0.51000914017912
  H   1.87708763102169      1.46605672937682     -0.32122453064856
  C   -1.55848924553286     -1.26320132162604     -0.27989890139345
  N   -2.28100520546265     -1.99708933455911     -0.84238683950319
  C   -1.23903637158310      0.88342874093438      0.78992655885579
  N   -1.74757833684449      1.89538036855387      1.09517707486483
