12
Coordinates from ORCA-job run
  C   0.60596870091631      0.12659407038490     -0.69459351490833
  C   -0.82828586081727     -0.23220692610840     -0.25644359461197
  F   0.50778040477232      1.17959048994852     -1.57482151673760
  H   -1.39520782655470     -0.47686724879380     -1.16201703861908
  H   1.01275098686744     -0.71660277156373     -1.27092796284383
  N   1.37425114473356      0.55325212466773      0.42790343132648
  H   2.31355709257985      0.79569651466224      0.13901422092855
  H   1.42499915014612     -0.16370736562438      1.14093985643739
  C   -1.47708909371108      0.90173607283755      0.40873800164030
  N   -2.03211781220291      1.79821105138674      0.92293583948593
  C   -0.79852298538693     -1.40909798954627      0.61597036712305
  N   -0.70908390134270     -2.35659802225111      1.30330191077912
