12
Coordinates from ORCA-job run
  C   0.72148696168254     -0.13573304028596     -0.31450339769930
  C   -0.66666926239210     -0.36290706900264      0.32296259401323
  F   0.51021347925487      0.37446752970026     -1.57535327448890
  H   -0.49652133011936     -0.70068314229661      1.35139230575186
  H   1.22168478580047     -1.10405057069764     -0.43018808338762
  N   1.46438368226563      0.80529077064073      0.47325979453965
  H   2.27052690804980      0.37314170543698      0.90245675791766
  H   1.77320428923463      1.56988065470273     -0.11177384061675
  C   -1.41937420657335     -1.39287828948455     -0.39974003888645
  N   -1.97898659631047     -2.24356490742112     -0.98300495987795
  C   -1.40612017505546      0.90164808743478      0.36834733810472
  N   -1.99382853583719      1.91638827127306      0.39714480462986
