16

C	0.0	0.0	0.0
C	-0.348399	-0.09272	-1.523054
Cl	1.771299	0.0	0.0
H	0.395499	-0.780411	-1.938463
C	-0.522449	1.186166	0.757755
H	-1.6149	1.143629	0.733689
H	-0.161841	1.143133	1.784771
H	-0.158942	2.099412	0.285695
N	-0.402449	-1.315211	0.657532
O	-0.560106	-1.303345	1.869061
O	-0.438382	-2.298768	-0.073823
C	-0.097132	1.216491	-2.134502
N	0.141741	2.250328	-2.637207
C	-1.620965	-0.636536	-2.035376
N	-2.297066	-1.13879	-2.859921
Cl	-3.484217	0.0	0.0
