16

C	0.0	0.0	0.0
C	-0.615337	-0.456758	-1.330123
Cl	1.755378	0.0	0.0
H	-1.712186	-0.539715	-1.107368
C	-0.511316	1.360782	0.41596
H	-0.120195	1.598455	1.403687
H	-0.161208	2.107643	-0.297597
H	-1.602614	1.327351	0.434634
N	-0.393858	-1.027897	1.076884
O	-0.200267	-0.692315	2.238189
O	-0.810793	-2.113243	0.696812
C	-0.08058	-1.717303	-1.845961
N	0.361201	-2.691704	-2.330726
C	-0.426075	0.577092	-2.348062
N	-0.27243	1.391267	-3.179873
Cl	-3.58546	0.0	0.0
