16

C	0.0	0.0	0.0
C	-0.308513	0.162498	-1.520688
Cl	1.768913	0.0	0.0
H	0.223554	1.092685	-1.760396
C	-0.549714	1.107229	0.855348
H	-0.202749	2.067396	0.466952
H	-0.200225	0.980138	1.879331
H	-1.642296	1.043173	0.812491
N	-0.450115	-1.354661	0.522987
O	-0.830661	-2.177233	-0.298103
O	-0.347283	-1.516267	1.732806
C	-1.653332	0.368114	-2.09406
N	-2.381552	0.655513	-2.975964
C	0.352096	-0.870618	-2.335889
N	0.901638	-1.616516	-3.056663
Cl	-3.558524	0.0	0.0
