16

C	0.0	0.0	0.0
C	-0.621594	-0.397697	-1.346241
Cl	1.755593	0.0	0.0
H	-1.719566	-0.469217	-1.130157
C	-0.510358	1.342439	0.475699
H	-0.166809	2.122818	-0.205226
H	-1.60369	1.31015	0.499649
H	-0.114755	1.534466	1.471993
N	-0.403365	-1.064921	1.03748
O	-0.156052	-0.793775	2.204871
O	-0.911707	-2.09871	0.624117
C	-0.103886	-1.648244	-1.900864
N	0.328586	-2.615629	-2.406925
C	-0.405638	0.673262	-2.321167
N	-0.242318	1.523213	-3.115121
Cl	-3.602695	0.0	0.0
