16

C	0.0	0.0	0.0
C	-0.311867	0.131849	-1.518475
Cl	1.785799	0.0	0.0
H	0.268461	1.023215	-1.788564
C	-0.524947	1.143994	0.822291
H	-1.617722	1.096004	0.79268
H	-0.167256	1.05001	1.845881
H	-0.169037	2.083875	0.393524
N	-0.445671	-1.331803	0.577442
O	-0.771722	-2.209691	-0.209397
O	-0.385466	-1.427054	1.796529
C	-1.650144	0.417662	-2.074212
N	-2.346433	0.779432	-2.955187
C	0.286312	-0.953737	-2.312426
N	0.802873	-1.741273	-3.013327
Cl	-3.494184	0.0	0.0
