16

C	0.0	0.0	0.0
C	-0.609711	0.164199	-1.399328
Cl	1.767622	0.0	0.0
H	-1.706649	2.5e-05	-1.235766
C	-0.4979	1.053764	0.964177
H	-1.589691	1.003797	0.987922
H	-0.170943	2.036935	0.623582
H	-0.083435	0.856136	1.950497
N	-0.399297	-1.384839	0.533936
O	-0.235153	-1.565055	1.73312
O	-0.800974	-2.211333	-0.27418
C	-0.076805	-0.753472	-2.406314
N	0.356248	-1.434943	-3.259422
C	-0.408412	1.536727	-1.867798
N	-0.249062	2.634857	-2.253423
Cl	-3.578912	0.0	0.0
