16

C	0.0	0.0	0.0
C	-0.307544	-0.095418	-1.525758
Cl	1.778318	0.0	0.0
H	0.201207	0.796503	-1.915639
C	-0.532706	1.241297	0.660895
H	-0.184106	2.116685	0.107998
H	-0.166811	1.289699	1.68554
H	-1.625801	1.183264	0.645995
N	-0.444618	-1.247461	0.745253
O	-0.391292	-1.184911	1.966584
O	-0.764757	-2.218769	0.074415
C	-1.656894	-0.026022	-2.120979
N	-2.377847	0.073267	-3.04968
C	0.377323	-1.232648	-2.164873
N	0.937137	-2.074567	-2.76192
Cl	-3.514237	0.0	0.0
