16

C	0.0	0.0	0.0
C	-0.338373	-0.120356	-1.525394
Cl	1.771419	0.0	0.0
H	0.402641	-0.826209	-1.915217
C	-0.511924	1.205282	0.73616
H	-0.132956	1.186207	1.757235
H	-0.151881	2.106275	0.237111
H	-1.604324	1.172451	0.737187
N	-0.41006	-1.298431	0.681182
O	-0.455758	-2.295049	-0.031911
O	-0.563032	-1.262867	1.892861
C	-0.059785	1.17189	-2.162342
N	0.209139	2.19253	-2.677614
C	-1.608392	-0.659899	-2.043493
N	-2.301012	-1.153993	-2.85881
Cl	-3.462437	0.0	0.0
