16

C	0.0	0.0	0.0
C	-0.348147	0.257241	-1.500972
Cl	1.798786	0.0	0.0
H	0.417529	-0.286765	-2.063088
C	-0.507174	0.976652	1.019234
H	-1.599879	0.944942	0.99645
H	-0.142481	1.973903	0.769084
H	-0.140567	0.69058	2.003866
N	-0.383445	-1.43573	0.336508
O	-0.56773	-1.700412	1.514848
O	-0.382166	-2.228648	-0.59893
C	-0.144464	1.680704	-1.789948
N	0.066549	2.80811	-2.04058
C	-1.601167	-0.207091	-2.125106
N	-2.260083	-0.58621	-3.025537
Cl	-3.451388	0.0	0.0
