16

C	0.0	0.0	0.0
C	-0.603164	-0.336503	-1.372524
Cl	1.769765	0.0	0.0
H	-1.699949	-0.440608	-1.165119
C	-0.499625	1.323902	0.529952
H	-0.098632	1.480789	1.529283
H	-1.591616	1.292174	0.5571
H	-0.157345	2.125338	-0.125654
N	-0.397142	-1.114897	0.981436
O	-0.274221	-0.854511	2.170769
O	-0.754953	-2.184438	0.505514
C	-0.061109	-1.541016	-2.001761
N	0.379799	-2.464671	-2.578481
C	-0.408339	0.790605	-2.285875
N	-0.245476	1.68697	-3.027109
Cl	-3.561182	0.0	0.0
