14
Coordinates from ORCA-job run
  C   -0.50378007464280     -0.11056803774123     -0.24512034212384
  C   0.86201581232933      0.51595542742164     -0.02699941965235
  H   -0.61128567655584     -0.40172747924767     -1.29013277487955
  H   1.00851619202662      0.81820457398240      1.01014789188748
  H   1.02187043970262      1.35090246308113     -0.70823370084708
  N   -1.50613011020975      1.04840517962027     -0.06762214404438
  O   -1.49835554837435      1.90628286262562     -0.94500374926390
  O   -2.21208264325843      1.03850901672616      0.93575648246273
  N   -0.71116022413868     -1.20893765685664      0.61315169454666
  H   -1.55315681831607     -1.71880859060060      0.38554719311806
  H   -0.74398124745695     -0.93031277326034      1.58506003440409
  N   1.89460646198667     -0.51484463441956     -0.33470935395085
  O   2.68225090903492     -0.81239015712158      0.55696618626009
  O   1.87067252787270     -0.98067019420959     -1.46980799791718
