14
Coordinates from ORCA-job run
  C   -0.58447491450562     -0.00292929867784     -0.26979727188148
  C   0.83025778645228      0.52079074694922     -0.02964577899847
  H   -0.72254451090899     -0.24981115480604     -1.32093029334646
  H   0.96191939748435      0.83345099251616      1.00483348044250
  H   1.08960450889595      1.32129760293204     -0.72456373763642
  N   -1.49031943065481      1.17762283236484     -0.00217624967680
  O   -2.01674446543062      1.72260160784199     -0.96770512282408
  O   -1.60028109005190      1.50828874817156      1.17485717642868
  N   -0.99263247087795     -1.08935833720717      0.55350095615026
  H   -0.80937527651248     -1.98380744696040      0.12568849705020
  H   -0.61313864638189     -1.04851483895102      1.48866463722574
  N   1.76157596670801     -0.61184800770243     -0.28026514010672
  O   2.40249579526931     -1.04498982632779      0.67418161066772
  O   1.78265735051434     -1.05479362014312     -1.42664276349468
