14
Coordinates from ORCA-job run
  C   -0.50893001433301      0.04250883560432     -0.24537265654601
  C   0.90916132420113      0.45638265625769      0.09899792687460
  H   -0.61687616267419     -0.07981384882248     -1.33058856407423
  H   1.24644925626373      1.31630175053402     -0.47843809470426
  H   0.99947187996287      0.65479587743542      1.16583433322854
  N   -1.40827387806651      1.21894187999538      0.07815238521605
  O   -0.98201172581696      2.32958408012956     -0.22365903286357
  O   -2.51075061532588      0.98087525499337      0.55759078887950
  N   -0.90940268071316     -1.08833881692832      0.54846270558622
  H   -1.91880579125825     -1.11167392516338      0.62200658969942
  H   -0.59337500885828     -1.93393357287153      0.09127282709188
  N   1.85424185831692     -0.66009685451403     -0.20781698194997
  O   1.50841619867383     -1.48819641724466     -1.05084312059696
  O   2.93168535962776     -0.63833689940535      0.37340089415881
