14
Coordinates from ORCA-job run
  C   -0.56394447919849     -0.07866599379449     -0.32651599324098
  C   0.76292710760369     -0.43926872579517      0.33319777501190
  H   -0.37883786149977      0.17671646363641     -1.37121289536758
  H   1.01631959650220     -1.46735734376487      0.06702628285499
  H   0.73733153181191     -0.32766793053430      1.41664855354427
  N   -1.02720738590609      1.24328070955497      0.30698656328463
  O   -2.20262777452706      1.38406574820084      0.60368131753331
  O   -0.13435716545756      2.07635264778981      0.45133365985551
  N   -1.58898027859412     -1.05111907907954     -0.23268439605631
  H   -1.60672146661865     -1.55927433443324      0.63857490814385
  H   -1.62172260013718     -1.67223857180216     -1.02447720456878
  N   1.91024230243547      0.38611301542305     -0.16023729077480
  O   1.96096070335058      0.58516702798021     -1.36993198844904
  O   2.73661777023508      0.74589636661846      0.66861070822904
