14
Coordinates from ORCA-job run
  C   -0.54770028474070     -0.01428757435066     -0.21818265720518
  C   0.84604120888853     -0.56012992933576     -0.01163066825383
  H   -0.59349648258478      0.58525087017742     -1.13468949870384
  H   0.99871423982729     -0.89224797610900      1.01171936153555
  H   1.01600715066279     -1.39280356140508     -0.69850326885054
  N   -0.87346575109623      0.97723336059871      0.87591401205736
  O   -2.05929423911755      1.25868789568680      1.01370814493657
  O   0.06219721782057      1.46076290809557      1.50469741441426
  N   -1.50663749549546     -1.09053033580739     -0.11267291801804
  H   -2.43897028456225     -0.69610760936087     -0.07223916288533
  H   -1.44818502048749     -1.67543757046262     -0.93739040826303
  N   1.91026717110989      0.44248191309529     -0.31916959568877
  O   2.93655106911554      0.37585238483035      0.34538062000524
  O   1.69797150065986      1.22027522434723     -1.24594137508041
