16

C	0.0	0.0	0.0
C	-0.210519	0.457498	-1.468201
F	1.399123	0.0	0.0
H	0.53301	-0.100898	-2.043008
H	0.142587	1.498177	-1.441879
N	-0.606913	0.668763	1.054491
H	-0.453858	1.660227	0.918637
H	-1.649351	0.456268	0.824061
N	-0.332509	-1.498643	0.137211
O	-0.259495	-2.171356	-0.890842
O	-0.539892	-1.951017	1.25571
C	-1.543762	0.385108	-2.198778
H	-2.326237	0.91976	-1.675852
H	-1.88146	-0.648083	-2.254216
H	-1.378446	0.766398	-3.216328
F	-2.83645	0.0	0.0
