16

C	0.0	0.0	0.0
C	-0.467393	-0.085135	-1.445796
F	1.357927	0.0	0.0
H	0.102403	-0.870526	-1.946188
H	-1.527576	-0.341932	-1.366424
N	-0.550244	1.007928	0.808998
H	-1.587555	0.797908	0.67731
H	-0.339871	1.895638	0.366421
N	-0.33585	-1.356434	0.678835
O	-0.150187	-2.357612	-0.012339
O	-0.657591	-1.374279	1.856806
C	-0.301382	1.255185	-2.154504
H	0.702353	1.674693	-2.017768
H	-1.041415	1.968095	-1.782536
H	-0.470419	1.140527	-3.229293
F	-2.791598	0.0	0.0
