16

C	0.0	0.0	0.0
C	-0.510183	-0.223478	-1.412382
F	1.357226	0.0	0.0
H	-0.578829	0.782326	-1.836303
H	-1.539497	-0.564597	-1.284648
N	-0.589931	1.098043	0.601581
H	-1.632472	0.872707	0.434689
H	-0.398922	1.062331	1.597467
N	-0.261113	-1.306806	0.867368
O	-0.428873	-2.387946	0.312774
O	-0.208279	-1.159234	2.088508
C	0.365673	-1.099918	-2.299648
H	-0.069165	-1.1522	-3.302446
H	1.376921	-0.696008	-2.396033
H	0.434474	-2.114406	-1.90823
F	-2.831475	0.0	0.0
