14
Coordinates from ORCA-job run
  C   -0.89591927302586     -0.39359095891227      0.03119064436853
  C   0.44750387569036      0.31571723817165     -0.14228455813984
  F   -0.99695134405033     -1.30696859424796     -1.04070696193759
  H   0.38603925352314      0.89934805628686     -1.06992018551460
  H   -0.89855834730937     -1.00015527788561      0.94053742871123
  N   -1.96644754283293      0.52216616028793      0.07028532715983
  H   -2.02831753661855      1.05688260405374     -0.78660491887315
  H   -2.84869353885872      0.06027248648123      0.24358028114651
  C   1.61333513600699     -0.67114352151579     -0.24467049767316
  H   1.68536680796897     -1.27145020769186      0.66492805305172
  H   2.55555892486340     -0.13763498473804     -0.37700533348837
  H   1.45986740680082     -1.33655433495749     -1.09305301219993
  C   0.65164406302651      1.25176301042827      0.96452076042884
  N   0.83557211481557      2.01234832423935      1.83920297295996
