14
Coordinates from ORCA-job run
  C   -0.88987453994611     -0.24804472546305     -0.57531894938080
  C   0.55826689883068      0.23171276648924     -0.47070604708117
  F   -1.52108943713157      0.56245347898887     -1.53751029451949
  H   0.94311475773975      0.30356576256576     -1.49294102901298
  H   -0.90780999494976     -1.26308454030280     -0.98119345934275
  N   -1.54316318763059     -0.22891103677614      0.67581306093292
  H   -2.47063446143876     -0.62606628675679      0.61276314981934
  H   -1.60996886130133      0.71500842023177      1.03833048875582
  C   1.41595320773466     -0.73234954880695      0.35147505484207
  H   1.02553548797210     -0.81256227090161      1.36507533119548
  H   1.39928518472292     -1.72392331895180     -0.10680345794489
  H   2.45086556736802     -0.38968728886294      0.39120693112503
  C   0.57862680942408      1.57693688212916      0.10969281732549
  N   0.57289256860591      2.63495170641728      0.61811640328593
