14
Coordinates from ORCA-job run
  C   -1.02175581110700      0.29153705611653     -0.17367210519051
  C   0.48288983238539      0.29563814515278     -0.45380260578257
  F   -1.20910843298940      0.83200270572143      1.11158669501175
  H   0.61084519985809     -0.04524967668186     -1.48652927979667
  H   -1.53611171924513      0.96700676688717     -0.86118618067989
  N   -1.56707208025988     -1.00917284994912     -0.30161202020519
  H   -2.57675939072196     -0.97877453328069     -0.24960075545971
  H   -1.22785249818667     -1.61768939253751      0.43216576426499
  C   1.26472414214910     -0.62180799495154      0.49132945235002
  H   1.05664848859476     -0.36073861619149      1.52933481630882
  H   2.33656660020353     -0.52056857368155      0.31793497180813
  H   0.99774903520405     -1.66547259433610      0.31691304415466
  C   0.98703907296089      1.66875540695926     -0.36928190969364
  N   1.40219756115422      2.76453415077269     -0.30457988709018
