14
Coordinates from ORCA-job run
  C   -0.98815779319590      0.29167537042600     -0.31181863255145
  C   0.53753965054544      0.24287692274447     -0.42273744549395
  F   -1.29937759868656      0.95418952004677      0.88926328857958
  H   0.76715489330314     -0.19585723826226     -1.39942131118270
  H   -1.40507478248306      0.90793145563911     -1.11164015623963
  N   -1.55259252028965     -1.00533543450005     -0.37936086319574
  H   -2.56052257252340     -0.95220331532323     -0.44540907093231
  H   -1.31497555873737     -1.54627943695940      0.44206583087131
  C   1.18668020900446     -0.59529037136767      0.68286981090179
  H   2.27344226979584     -0.53218302166879      0.61870321386523
  H   0.90858663764424     -1.64530893187498      0.57723348712664
  H   0.87730822415431     -0.23289843487421      1.66367857748130
  C   1.06704602775535      1.60907860405085     -0.40888060832807
  N   1.50294291371317      2.69860431192340     -0.39554612090199
