14
Coordinates from ORCA-job run
  C   -0.90306401619267     -0.27574873379507     -0.54105649205641
  C   0.53414206168872      0.24360192645665     -0.49160203629506
  F   -1.59073718951726      0.51162259824516     -1.48357509546518
  H   0.87984618135465      0.31916680033010     -1.52751490327412
  H   -0.90813580520123     -1.29323696050144     -0.94101805698549
  N   -1.51099640733637     -0.26684427873602      0.73282361703272
  H   -2.42885753152077     -0.68979807463196      0.70517385799937
  H   -1.59118343304063      0.67737511478426      1.09221663455508
  C   1.44695534998875     -0.69135654187893      0.30448326836363
  H   2.47245411566520     -0.31921232422304      0.30653502783398
  H   1.09417413328980     -0.77665420334451      1.33144050055040
  H   1.44282354055411     -1.68567930689274     -0.14824494999160
  C   0.53932513918974      1.59284044558339      0.07965181501710
  N   0.52425386107795      2.65392353860414      0.58168681271557
