14
Coordinates from ORCA-job run
  C   -0.93108939675089     -0.09804113721023     -0.58370944372262
  C   0.54349244545814      0.28416295832111     -0.49544884414919
  F   -1.58026065293073      0.82749277653523     -1.37530434693599
  H   0.93138757891935      0.28226699178064     -1.52047945342292
  H   -1.01324879045544     -1.06069272670916     -1.11250177941190
  N   -1.55968743394144     -0.06111239224821      0.70955528434863
  H   -2.56488709978928     -0.07610756546521      0.58413330891674
  H   -1.30040985641786     -0.87340413552718      1.25514902644227
  C   1.33504622476221     -0.71270820211772      0.35570634163170
  H   1.02867866661987     -0.65450262345423      1.40114810719031
  H   2.40210998522191     -0.49303104811003      0.30784668113531
  H   1.18088949915893     -1.73182321337510     -0.00944482307578
  C   0.68255884839236      1.64381191115878      0.03077375290075
  N   0.84441998175287      2.72568840642131      0.45457618815269
