14
Coordinates from ORCA-job run
  C   -0.91077654324518     -0.47682963186764     -0.13737573820675
  C   0.43624225886854      0.25417714868286     -0.19153583354225
  F   -0.85373698047563     -1.43154432391277     -1.16045221179681
  H   0.46818356324981      0.76817721670075     -1.16108797647083
  H   -0.99849365163492     -1.04597860973259      0.79298962061350
  N   -2.02358025275857      0.37316036205703     -0.31593666037477
  H   -1.80652731608710      1.30680979315193     -0.62660340775100
  H   -2.66933061537958      0.38428756217508      0.45473928078299
  C   1.63321423455806     -0.69162304717785     -0.08071598115062
  H   1.59672874615601     -1.41945936657432     -0.88990151031505
  H   2.57090193246977     -0.13740947260993     -0.14286753635594
  H   1.61167831912474     -1.22394670001454      0.87284256532722
  C   0.46484045830261      1.27103239190374      0.86151642091129
  N   0.48165584685142      2.06914667721826      1.72238896832902
