14
Coordinates from ORCA-job run
  C   -1.04263307895661      0.23122738356921     -0.10567737546095
  C   0.46832020495198      0.30363625785266     -0.34825486958416
  F   -1.29399875378843      0.70685590510504      1.17533712932437
  H   0.66354021753574     -0.07357364488223     -1.36006195633571
  H   -1.56848673864326      0.92879259476573     -0.76901354995644
  N   -1.49926309872660     -1.11844994132745     -0.18992083418373
  H   -2.48596658333196     -1.17132716052547     -0.39780653886006
  H   -0.98067886442146     -1.66692032702868     -0.85979235644342
  C   1.25670845998796     -0.51760407606590      0.67798832915634
  H   2.32731925057848     -0.43750908266657      0.48446964227616
  H   0.96570242682940     -1.56688834376302      0.63501203282915
  H   1.05084240430081     -0.14734866852044      1.68149982991982
  C   0.89423749966562      1.70475477361513     -0.32295399297144
  N   1.24535665401834      2.82435432987200     -0.30182548970992
