14
Coordinates from ORCA-job run
  C   -0.93564153256850     -0.17852303030251     -0.67368456528160
  C   0.53128623517042      0.25275104748153     -0.50262547933252
  F   -1.46453421184185      0.65028115830304     -1.65702083479992
  H   0.97956259332967      0.28758262924301     -1.50094906970965
  H   -0.95561053846116     -1.19949146873829     -1.06754644735099
  N   -1.74819721163638     -0.11592383077484      0.48386142380046
  H   -1.80921188459835     -0.98285179227634      0.99133172605731
  H   -1.54464081356736      0.66509442003188      1.09145007646821
  C   1.30309976003444     -0.72519449690468      0.38510652894481
  H   2.34897204046009     -0.42831208301490      0.47228021574459
  H   0.87320702211831     -0.75763400561738      1.38737258387958
  H   1.26672170918671     -1.72930807481184     -0.04489207422460
  C   0.57352215300314      1.60284640641596      0.06143375318017
  N   0.58246467937081      2.65868312096537      0.57488216262414
