14
Coordinates from ORCA-job run
  C   -0.89898250086250     -0.25534101483632     -0.55897945053496
  C   0.53970295455632      0.25580547996809     -0.47838737400729
  F   -1.57256503488309      0.56173527207205     -1.48635360410701
  H   0.89699000900728      0.36162852483040     -1.50771095112494
  H   -0.90401203596001     -1.26106080140362     -0.98770136465258
  N   -1.52128712752830     -0.28004735519393      0.70766911572388
  H   -1.60197592956026      0.65365351060278      1.09333654781001
  H   -2.43987563640079     -0.69927149481849      0.65859580901172
  C   1.43982295199836     -0.70716361485312      0.29845586836783
  H   1.43814222470628     -1.68631977756017     -0.18626638711792
  H   1.07414027754240     -0.82412621483477      1.31776558353143
  H   2.46636499440396     -0.33885185304806      0.32501514607516
  C   0.54503410437540      1.58696812613186      0.13378437179914
  N   0.53750074860494      2.63139121294330      0.66977668922555
