12

C	-0.489655	0.049494	-1.441925
C	0.0	0.0	0.0
Cl	-0.137929	-1.491441	-2.260295
H	1.094699	0.0	0.0
H	0.046965	0.83573	-1.96612
H	-1.565774	0.220015	-1.493262
C	-0.53793	-1.119819	0.756144
N	-0.979848	-2.045432	1.327598
N	-0.383705	1.279692	0.696342
O	-0.451103	1.261944	1.919335
O	-0.545958	2.269163	-0.015374
Br	3.33355	0.0	0.0
