12

C	-0.381043	0.003854	-1.460035
C	0.0	0.0	0.0
Cl	-2.151165	0.015367	-1.713982
H	1.095193	0.0	0.0
H	0.02288	-0.894662	-1.924163
H	0.036566	0.889629	-1.930952
C	-0.519166	-1.144472	0.730435
N	-0.908867	-2.105539	1.280932
N	-0.412958	1.278136	0.672799
O	-0.326915	2.299235	-0.001551
O	-0.746462	1.223599	1.852173
Br	3.311963	0.0	0.0
