12

C	-0.48013	0.106461	-1.443295
C	0.0	0.0	0.0
Cl	-0.207769	-1.429626	-2.295795
H	1.094656	0.0	0.0
H	-1.544201	0.338	-1.493843
H	0.100605	0.875477	-1.94612
C	-0.542914	-1.14477	0.713994
N	-0.982685	-2.068886	1.289771
N	-0.375575	1.257298	0.738295
O	-0.527534	2.270972	0.057394
O	-0.447697	1.20202	1.960644
Br	3.319058	0.0	0.0
