12

C	-0.481868	0.080775	-1.444394
C	0.0	0.0	0.0
Cl	-0.218914	-1.471387	-2.270759
H	1.090598	0.0	0.0
H	-1.54459	0.316338	-1.497154
H	0.101821	0.83726	-1.961289
C	-0.547522	-1.12794	0.736363
N	-1.009421	-2.047163	1.30273
N	-0.370177	1.272863	0.714921
O	-0.505363	2.276814	0.0174
O	-0.448418	1.237509	1.936939
Br	3.319505	0.0	0.0
