12

C	-0.378478	-0.024739	-1.460535
C	0.0	0.0	0.0
Cl	-2.147391	-0.017562	-1.719988
H	1.095172	0.0	0.0
H	0.041001	0.851211	-1.947834
H	0.027219	-0.93175	-1.906006
C	-0.519233	-1.130202	0.752504
N	-0.910931	-2.07979	1.321246
N	-0.414465	1.291233	0.646899
O	-0.750902	1.259249	1.826095
O	-0.326935	2.298908	-0.04697
Br	3.31141	0.0	0.0
