12

C	-0.520061	-0.076647	-1.426473
C	0.0	0.0	0.0
Cl	-0.030556	1.357357	-2.3533
H	1.09095	0.0	0.0
H	-1.606668	-0.135682	-1.443745
H	-0.07048	-0.949668	-1.899209
C	-0.499943	-1.147922	0.750898
N	-0.904548	-2.095035	1.315822
N	-0.538347	1.23981	0.670223
O	0.2436	1.932015	1.305951
O	-1.743799	1.447743	0.531606
Br	3.397846	0.0	0.0
