12

C	-0.518939	-0.035621	-1.429329
C	0.0	0.0	0.0
Cl	-0.041993	1.43131	-2.310254
H	1.090962	0.0	0.0
H	-1.605049	-0.102946	-1.448462
H	-0.062165	-0.889366	-1.929007
C	-0.499702	-1.17044	0.714606
N	-0.903544	-2.134471	1.2505
N	-0.543568	1.219379	0.701122
O	-1.757473	1.399266	0.6028
O	0.242598	1.927965	1.313067
Br	3.398432	0.0	0.0
