12

C	-0.481968	0.187182	-1.434309
C	0.0	0.0	0.0
Cl	-0.210447	-1.296878	-2.374669
H	1.090663	0.0	0.0
H	-1.545772	0.420507	-1.469548
H	0.097687	0.983663	-1.892558
C	-0.546037	-1.180592	0.649575
N	-1.006111	-2.14213	1.142004
N	-0.374439	1.214084	0.80845
O	-0.43779	1.090107	2.025842
O	-0.533703	2.263054	0.186267
Br	3.320298	0.0	0.0
