12

C	-0.382169	-0.024687	-1.459984
C	0.0	0.0	0.0
Cl	-2.151774	-0.020481	-1.714601
H	1.095183	0.0	0.0
H	0.023266	-0.931531	-1.906693
H	0.034789	0.852079	-1.947928
C	-0.518048	-1.131101	0.751946
N	-0.911437	-2.087301	1.308324
N	-0.412405	1.289991	0.648693
O	-0.737042	1.257774	1.831414
O	-0.336357	2.297026	-0.04658
Br	3.312116	0.0	0.0
