15

C	-0.081084	0.039635	-0.021237
C	-0.382801	-0.324015	-1.492316
F	1.29773	0.321075	0.02919
H	0.543034	-0.676931	-1.965037
H	-0.615118	0.950223	0.238009
N	-0.421826	-0.955404	0.930394
H	-0.258205	-1.869537	0.523481
H	-1.451855	-0.836952	0.995456
N	-0.629835	0.99831	-2.280294
O	-1.403737	0.945021	-3.236007
O	0.010348	1.997916	-1.962319
N	-1.442533	-1.243608	-1.609254
H	-2.20669	-0.917974	-0.965288
H	-1.752478	-1.299149	-2.569421
F	-2.878603	-0.209346	0.312662
