15

C	0.168159	0.028207	-0.010715
C	-0.354527	0.801042	-1.216189
F	1.418637	-0.535808	-0.414496
H	-0.566573	0.10058	-2.021968
H	0.447091	0.734405	0.781261
N	-0.742132	-0.956183	0.387546
H	-0.928809	-0.931665	1.376522
H	-1.62861	-0.957606	-0.176362
N	0.76513	1.681769	-1.708965
O	1.206265	1.503044	-2.842182
O	1.159199	2.554683	-0.934858
N	-1.512124	1.605156	-0.981455
H	-1.459407	1.99975	-0.048654
H	-2.286058	0.902494	-1.020231
F	-2.880185	-0.611364	-1.097518
