18

C	0.0	0.0	0.0
C	-0.51815	-0.169711	-1.453781
Cl	1.790513	0.0	0.0
H	-1.604816	-0.279025	-1.302301
N	-0.557979	1.265129	0.415073
H	-0.315834	1.401128	1.392783
H	-1.584238	1.030662	0.371598
C	-0.429287	-1.155678	0.900075
H	-0.096439	-0.939955	1.920783
H	-0.005502	-2.111373	0.590647
H	-1.52162	-1.164874	0.846919
N	-0.001711	-1.436238	-2.056044
O	-0.588847	-2.483209	-1.77642
O	0.986565	-1.369128	-2.787232
N	-0.212894	0.909669	-2.353053
H	-0.64068	1.728705	-1.934665
H	0.791049	1.063157	-2.340353
F	-2.888039	0.0	0.0
