18

C	0.0	0.0	0.0
C	-0.345893	-0.023169	-1.536399
Cl	1.797279	0.0	0.0
H	0.516678	-0.403938	-2.08495
N	-0.57316	1.171776	0.598195
H	-1.59338	1.00955	0.466775
H	-0.389081	1.13572	1.596837
C	-0.445939	-1.301919	0.654702
H	-1.538138	-1.280578	0.647468
H	-0.071201	-1.320032	1.683999
H	-0.072775	-2.178506	0.121996
N	-0.351573	1.459409	-2.013683
O	-1.433112	2.013323	-2.179647
O	0.744769	1.969097	-2.247243
N	-1.513439	-0.731621	-1.855789
H	-1.738009	-0.607548	-2.834374
H	-2.305285	-0.432951	-1.224925
F	-3.065735	0.0	0.0
