18

C	0.0	0.0	0.0
C	-0.25889	0.021512	-1.55371
Cl	1.787632	0.0	0.0
H	0.303629	-0.80929	-1.98806
N	-0.580371	1.053721	0.769459
H	-0.406697	1.934024	0.298226
H	-1.595143	0.862466	0.720883
C	-0.509908	-1.326738	0.532472
H	-1.601966	-1.280784	0.466143
H	-0.111406	-2.165204	-0.044043
H	-0.202705	-1.427162	1.575555
N	0.476977	1.223943	-2.185355
O	1.158071	0.997086	-3.185496
O	0.28166	2.346782	-1.724346
N	-1.595583	0.086552	-1.99385
H	-2.303015	0.122555	-1.203129
H	-1.801607	-0.692008	-2.600675
F	-3.142936	0.0	0.0
