18

C	0.0	0.0	0.0
C	-0.536524	-0.022682	-1.443335
Cl	1.789615	0.0	0.0
H	-1.62454	-0.161174	-1.283714
N	-0.520676	1.207616	0.591729
H	-1.546098	1.055301	0.465744
H	-0.338528	1.136907	1.58969
C	-0.422537	-1.2471	0.777838
H	-0.001823	-2.171426	0.382537
H	-1.516957	-1.246153	0.733424
H	-0.081971	-1.124102	1.81092
N	-0.019976	-1.270839	-2.171349
O	-0.536693	-2.355363	-1.900785
O	0.861754	-1.122521	-3.021171
N	-0.232493	1.160484	-2.163108
H	-0.616484	1.106298	-3.095565
H	0.769863	1.286577	-2.230164
F	-2.892562	0.0	0.0
