15
Coordinates from ORCA-job run
  C   -0.34436981961092     -0.22328077625163      0.94890136382635
  C   0.88527453395453      0.00016608638357      0.08073550848365
  Cl  -0.18906960583374     -1.86786411533649      1.63512779094393
  H   1.80047654087177     -0.14594456185770      0.65540385988515
  H   -0.24213083804611      0.46560955127927      1.78722712838984
  C   -1.69644025078007     -0.04563096808397      0.28715403658755
  H   -1.77255872478675      0.94731897552669     -0.15929781156684
  H   -2.47061614046105     -0.13891159629426      1.04996343174603
  H   -1.86936148363304     -0.79508573862788     -0.48163186898434
  N   0.94417184671143      1.41339866668507     -0.45415264206526
  O   0.49634613199636      2.27979303323307      0.28907143267306
  O   1.49817828988974      1.58155478183538     -1.53121206566992
  N   0.96668446434227     -0.92968135217074     -1.08559038068359
  O   1.92591581838263     -1.69433066461170     -1.10591100381619
  O   0.06749923700295     -0.84811132170867     -1.91578877974940
