15
Coordinates from ORCA-job run
  C   -0.46194122146634     -0.46844921955415      0.65621194883665
  C   0.42885626161555     -0.23765437544944     -0.54233895701809
  Cl  -0.89278585719002     -2.20127467815132      0.64354654128423
  H   -0.00707864716505     -0.57257529493662     -1.48064971301455
  H   0.12513520942970     -0.29505298881510      1.55791064409513
  C   -1.70871396294170      0.39445199869865      0.61297033708365
  H   -2.36776091064273      0.12291739919806      1.43772844251527
  H   -2.25227353449301      0.25794827874550     -0.32383521170016
  H   -1.44557566446906      1.44892065660650      0.72278278640049
  N   1.76489166767526     -0.91741794018663     -0.41445690716495
  O   2.29989186337492     -1.21406479978090     -1.47961176202742
  O   2.21754257601231     -1.08239645381388      0.71140757503068
  N   0.71199966096481      1.23010372168723     -0.67686754069254
  O   0.22156952775678      1.79189897903039     -1.65095755308913
  O   1.36524303153857      1.74364471672173      0.22615936946074
