15
Coordinates from ORCA-job run
  C   -0.40948777264474     -0.45306225298062      0.69919449174578
  C   0.42036450161954     -0.24199033263658     -0.54564845667336
  Cl  -0.73912823423208     -2.20529708252927      0.79970451494270
  H   -0.03245952489033     -0.65012015095399     -1.44618785921481
  H   0.19989515430686     -0.19558731045773      1.56525387715320
  C   -1.70507257424793      0.33460851881524      0.65873506131781
  H   -2.31409798134867      0.07807334444963      1.52567613773283
  H   -1.49931636873314      1.40680606617535      0.69467147474092
  H   -2.27645632392297      0.11024804020432     -0.24397457944680
  N   1.79443770413502     -0.84595764954971     -0.43708314104219
  O   2.29535074824124     -1.19220730863033     -1.50381255115969
  O   2.30447322960178     -0.90844476405159      0.67448614425362
  N   0.62000581800320      1.22844351386035     -0.76835439660544
  O   1.26130632935135      1.82654194528620      0.09017867506271
  O   0.08218529476088      1.70694542299874     -1.76183939280726
