15
Coordinates from ORCA-job run
  C   -0.64234546837786      0.27444606956076      0.63758517598921
  C   0.52054141649473      0.36122525593165     -0.33274542169569
  Cl  -0.16948373183639     -0.47400410976737      2.18190218711487
  H   0.27152199360911      1.03259510453741     -1.15556544212883
  H   -0.88095062103673      1.31257577969759      0.87833275286273
  C   -1.84788499690346     -0.42119576474204      0.03081647196584
  H   -1.64905043414306     -1.48146821771827     -0.11850803425218
  H   -2.70142956928866     -0.32092044303372      0.70151029763375
  H   -2.10814392759438      0.03776191853890     -0.92767210296760
  N   0.94614958681080     -0.92293202580293     -0.97017276984950
  O   1.45438207491108     -0.79868922535060     -2.08211342415022
  O   0.78525020374916     -1.96621663294824     -0.34818439785525
  N   1.72889050581527      0.96688220298062      0.33648682524021
  O   1.55532054796414      2.11463452261836      0.72536135356441
  O   2.73723241982625      0.28530556549789      0.44496652852824
