15
Coordinates from ORCA-job run
  C   -0.42809855463881      0.07826702661077      0.84426291844741
  C   0.43302146383376      0.48585873197745     -0.33915663816027
  Cl  0.43559704449322     -1.00670897304453      1.95874421729921
  H   -0.04512508979692      1.30854776883657     -0.87313127861214
  H   -0.61243123348707      0.99455516053998      1.40639030802958
  C   -1.72903687541431     -0.55183068255487      0.37874141089480
  H   -2.24151790573867      0.10226428588004     -0.33198055532971
  H   -2.38208880914906     -0.71779192550500      1.23544007822433
  H   -1.54314887471566     -1.51527483387993     -0.09852607930610
  N   0.59045948401763     -0.61439796718165     -1.33521031467361
  O   1.16367623882498     -1.63309407509168     -0.97054227476579
  O   0.07664821467271     -0.40741728557497     -2.43421574553898
  N   1.78025642109897      1.00938717349281      0.08777868555325
  O   1.72462506764239      1.85642699228777      0.97035122382601
  O   2.77516340835686      0.61120860320725     -0.49894595588798
