15
Coordinates from ORCA-job run
  C   -0.47025935104984     -0.50081712431971      0.62747852351499
  C   0.43089177557736     -0.21328409718719     -0.55098708431167
  Cl  -0.91604155454820     -2.22607115555291      0.51875099093047
  H   -0.00065579032828     -0.49694841644141     -1.50808099882621
  H   0.11111775251035     -0.38127208829887      1.54152545468572
  C   -1.70930426841541      0.37463966961156      0.62275694918478
  H   -2.37822618516536      0.06206301679861      1.42471386984357
  H   -1.43831487286337      1.41865128230531      0.79520893056521
  H   -2.24524857078374      0.29700068191555     -0.32510834623833
  N   1.76323957437282     -0.90454376419313     -0.44934568012352
  O   2.19901215358373     -1.14936798424893      0.66843277609101
  O   2.31366516843017     -1.12661365878345     -1.52488869072436
  N   0.72294020323257      1.25751454146278     -0.60844091779693
  O   0.23565117405182      1.87319184848958     -1.55083181877120
  O   1.38053279139533      1.71785724844222      0.31981604197649
