15
Coordinates from ORCA-job run
  C   -0.43679007787148      0.00930324948426      0.81525370174101
  C   0.44906684546597      0.38221883898637     -0.36119091410245
  Cl  0.24171056498902     -1.36690541621497      1.71804071553116
  H   -0.06335149890616      1.07943912057061     -1.02568491461853
  H   -0.40986392801231      0.86090180531294      1.49724949421403
  C   -1.86235478448252     -0.29494068793665      0.38766833186521
  H   -2.28667534459854      0.55688261936677     -0.15043847425089
  H   -1.90252674940575     -1.17136761610160     -0.25778975886822
  H   -2.47025796866321     -0.48434380565125      1.27263796855031
  N   0.80416528904880     -0.80920870176261     -1.20326331288076
  O   1.88158871435283     -1.35202694169643     -1.00642248572959
  O   -0.06827575683090     -1.14958486347652     -1.99683196981964
  N   1.73331438294746      1.06778328001953      0.02416225341299
  O   1.96638501848249      1.24979222782591      1.21283092817325
  O   2.42186529348432      1.42105689127368     -0.92622156321789
