15
Coordinates from ORCA-job run
  C   -0.29416199643928     -0.20297563376537      0.98025894179886
  C   0.89038018125274      0.01175807722296      0.05046308419086
  Cl  -0.05276225116978     -1.78854061194286      1.77450236513014
  H   1.83661007349821     -0.21141602012537      0.54296499285225
  H   -0.20135036427512      0.54731219003204      1.76590831490930
  C   -1.66842170470666     -0.13751101664371      0.34384399397239
  H   -2.42108816955150     -0.21343251448551      1.12949296668979
  H   -1.80079980541631      0.81059077962476     -0.17715901231099
  H   -1.82181415463558     -0.95471082577679     -0.35953891874553
  N   0.99723705955956      1.43538600084995     -0.44259696202820
  O   1.84120057080695      1.62338075479171     -1.30908206786927
  O   0.28670385075187      2.28164640403840      0.08915280146926
  N   0.82494206127814     -0.85294677581630     -1.16954595919066
  O   1.56195263695682     -1.83247768868883     -1.18527668253261
  O   0.02037201208998     -0.51506311931506     -2.03238785833555
