15
Coordinates from ORCA-job run
  C   -0.36497899744380     -0.25022553282492      0.93184027173277
  C   0.88911298354597     -0.03595041031257      0.09561101285726
  Cl  -0.30001667313497     -1.92466884225147      1.54823363521036
  H   1.78634908817430     -0.13361157881777      0.70528262452389
  H   -0.23685153066157      0.39461827844715      1.80247379004914
  C   -1.69472332581078      0.04415849349439      0.26514013744681
  H   -1.71235913245313      1.07379567015820     -0.10136492225087
  H   -1.88811432458275     -0.63388536779286     -0.56118820697356
  H   -2.48732007345039     -0.06033360973670      1.00734117011820
  N   0.88851122298320      1.37095067006976     -0.44943616564791
  O   0.92012544351260      1.53377343794922     -1.66122101746561
  O   0.84850867852125      2.23853164314174      0.41553637456925
  N   1.06368532908977     -0.98017215460751     -1.04982652844736
  O   2.20983990971285     -1.38593166806259     -1.22453218223213
  O   0.07823140199742     -1.25104902885407     -1.72488999349026
