16

C	-0.158663	-0.073171	-1.518832
C	0.0	0.0	0.0
Cl	-0.212937	1.706278	-2.231788
H	1.095063	0.0	0.0
H	-0.340281	-0.976012	0.37189
N	0.974545	-0.758438	-1.998545
H	1.824395	-0.49797	-1.44643
H	1.107354	-0.655229	-2.996729
N	-1.440086	-0.598659	-1.971065
H	-1.480546	-0.526171	-2.983649
H	-1.404641	-1.589864	-1.747084
C	-0.697606	1.130873	0.722504
H	-0.663703	0.959582	1.802549
H	-0.202199	2.080811	0.521814
H	-1.74485	1.218418	0.418664
F	2.781369	0.0	0.0
