16

C	-0.163542	0.052082	-1.520201
C	0.0	0.0	0.0
Cl	-0.251213	-1.731224	-2.206505
H	1.095062	0.0	0.0
H	-0.340042	0.98095	0.358673
N	-1.440233	0.59454	-1.972751
H	-1.502412	0.487446	-2.981077
H	-1.372898	1.591823	-1.78486
N	0.976115	0.716362	-2.013667
H	1.100345	0.602552	-3.01072
H	1.826497	0.462767	-1.459387
C	-0.697444	-1.119711	0.74124
H	-1.743266	-1.216604	0.433454
H	-0.669887	-0.927227	1.81835
H	-0.19782	-2.07137	0.560817
F	2.783198	0.0	0.0
