16

C	-0.138629	0.059385	-1.524577
C	0.0	0.0	0.0
Cl	-0.216848	-1.749432	-2.155616
H	1.095269	0.0	0.0
H	-0.442107	-0.910189	0.402948
N	-1.399171	0.59609	-2.024031
H	-1.411727	0.484546	-3.032326
H	-1.347786	1.594697	-1.844455
N	1.012505	0.708408	-2.008316
H	1.858998	0.447329	-1.448379
H	1.140428	0.601874	-3.005792
C	-0.534843	1.253296	0.677511
H	-0.039105	2.137666	0.267552
H	-0.303058	1.221071	1.745531
H	-1.618966	1.36546	0.566985
F	2.789014	0.0	0.0
