16

C	0.037539	-0.034212	-1.520252
C	0.0	0.0	0.0
Cl	-1.633913	-0.037602	-2.298456
H	1.099233	0.0	0.0
H	-0.393653	0.964512	0.335568
N	0.744004	1.12897	-2.048718
H	0.271082	1.969476	-1.727134
H	1.639166	1.076928	-1.543288
N	0.738763	-1.232614	-1.910303
H	1.615932	-1.16734	-1.37444
H	0.977038	-1.122794	-2.89152
C	-0.647584	-1.180977	0.689356
H	-1.730034	-1.208991	0.516034
H	-0.473471	-1.1366	1.769978
H	-0.221733	-2.112063	0.312801
F	2.750449	0.0	0.0
