16

C	0.00632	0.028884	-1.518443
C	0.0	0.0	0.0
Cl	-1.683713	-0.033097	-2.255619
H	1.099233	0.0	0.0
H	-0.384777	-0.966224	0.343261
N	0.654939	1.247887	-1.930352
H	1.538589	1.219518	-1.406411
H	0.886484	1.137283	-2.912481
N	0.739164	-1.114335	-2.054926
H	1.631881	-1.049205	-1.548714
H	0.285473	-1.96822	-1.742941
C	-0.646839	1.172934	0.703737
H	-1.734971	1.181569	0.570781
H	-0.432157	1.135876	1.776948
H	-0.25311	2.112249	0.312398
F	2.733291	0.0	0.0
