16

C	-0.130834	0.131983	-1.526093
C	0.0	0.0	0.0
Cl	-0.267869	-1.7329	-2.178121
H	1.09515	0.0	0.0
H	-0.436098	-0.925137	0.373046
N	-1.305197	0.711419	-2.143988
H	-2.129223	0.21406	-1.827759
H	-1.358611	1.671442	-1.818285
N	1.011154	0.765578	-1.97744
H	1.864121	0.493899	-1.431205
H	1.101512	0.773318	-2.981944
C	-0.521656	1.230976	0.726315
H	-0.025075	2.12577	0.343254
H	-0.28409	1.160013	1.791302
H	-1.606552	1.363959	0.63483
F	2.779323	0.0	0.0
