16

C	-0.618029	0.039018	-1.378185
C	0.0	0.0	0.0
Cl	0.117029	1.4552	-2.33923
H	1.090972	0.0	0.0
H	-0.343256	-0.945871	0.446204
N	-0.276786	-1.135755	-2.138638
H	-0.823396	-1.160475	-2.992737
H	-0.518571	-1.943448	-1.575812
N	-2.052126	0.231632	-1.314934
H	-2.411173	0.362658	-2.256368
H	-2.254764	1.08478	-0.804938
C	-0.42699	1.155385	0.900371
H	-1.47916	1.130809	1.213449
H	-0.224928	2.111548	0.409228
H	0.19559	1.128215	1.797745
F	2.70154	0.0	0.0
