18

C	0.0	0.0	0.0
C	-0.506349	0.136181	-1.447201
Br	2.034263	0.0	0.0
H	-1.596188	-0.01675	-1.334527
N	-0.477731	1.084351	0.753821
H	-0.038332	1.965409	0.531249
H	-0.473578	0.913775	1.748171
C	-0.453995	-1.310892	0.60841
H	-1.550032	-1.286106	0.612809
H	-0.075539	-1.406846	1.629344
H	-0.094308	-2.157456	0.023083
C	0.030763	-0.915153	-2.308296
N	0.431934	-1.752634	-3.027776
C	-0.282265	1.513637	-2.070226
H	0.775129	1.789908	-2.051958
H	-0.624617	1.511115	-3.106953
H	-0.877657	2.249384	-1.52807
Cl	-3.796849	0.0	0.0
