17

C	0.0	0.0	0.0
C	-0.53257	0.027164	-1.450799
F	1.351161	0.0	0.0
H	-1.642797	0.086324	-1.279029
N	-0.584215	1.185678	0.665994
O	-0.225679	2.313236	0.236611
O	-1.751941	0.912075	1.170508
N	-0.408543	-1.153148	0.741038
H	-0.132078	-1.978097	0.221566
H	-1.425778	-1.114735	0.806718
C	-0.272543	-1.261656	-2.076258
N	-0.062887	-2.301398	-2.585947
C	-0.033772	1.160875	-2.347463
H	-0.396628	1.011773	-3.36918
H	-0.396758	2.110617	-1.959943
H	1.057614	1.192394	-2.360458
H	-2.880018	0.0	0.0
