17

C	-0.552202	-0.033087	-1.432262
C	0.0	0.0	0.0
F	-0.205385	1.120185	-2.125533
H	1.090578	0.0	0.0
C	0.061375	-1.172213	-2.146199
N	0.463205	-2.057101	-2.802429
C	-2.066992	-0.16313	-1.48862
H	-2.384054	-1.069622	-0.972575
H	-2.388843	-0.207475	-2.531661
H	-2.523215	0.70723	-1.013165
N	-0.396158	-1.196027	0.678657
H	0.384931	-1.487461	1.257049
H	-1.208697	-1.025467	1.256777
N	-0.561176	1.234242	0.637252
O	-1.528432	1.115027	1.407914
O	-0.059585	2.312118	0.323024
H	2.653739	0.0	0.0
