17

C	-0.533865	-0.064659	-1.432157
C	0.0	0.0	0.0
F	0.072677	0.866985	-2.26297
H	1.091896	0.0	0.0
C	-0.181126	-1.394497	-1.980219
N	0.057102	-2.433728	-2.472334
C	-2.039678	0.125111	-1.517578
H	-2.533076	-0.60815	-0.879187
H	-2.374262	-0.006312	-2.549235
H	-2.279309	1.136594	-1.190417
N	-0.395028	-1.200633	0.709573
H	0.475284	-1.674208	0.948787
H	-0.80876	-0.906355	1.587121
N	-0.41772	1.201565	0.682315
O	-0.609684	1.148426	1.915063
O	-0.439646	2.262208	0.033876
H	2.471171	0.0	0.0
