17

C	-0.428775	0.002988	-1.461279
C	0.0	0.0	0.0
F	-1.81906	-0.272538	-1.536261
H	1.090583	0.0	0.0
C	-0.236302	1.262545	-2.200552
N	-0.113334	2.164128	-2.944033
C	0.320311	-1.096589	-2.189982
H	0.088442	-1.073983	-3.255609
H	0.030075	-2.062599	-1.776445
H	1.392015	-0.946664	-2.017059
N	-0.386842	-1.176319	0.692238
H	-1.21574	-1.622128	0.329535
H	0.400332	-1.808417	0.758318
N	-0.486882	1.22864	0.701371
O	-1.158933	1.127943	1.727734
O	-0.120072	2.300132	0.207926
H	2.635556	0.0	0.0
