17

C	-0.479896	0.002465	-1.438366
C	0.0	0.0	0.0
F	-1.889685	-0.075946	-1.459563
H	1.091293	0.0	0.0
C	-0.129019	1.201527	-2.22316
N	0.091243	2.04851	-3.006272
C	0.089627	-1.210531	-2.146978
H	-0.212114	-1.207046	-3.196222
H	1.179934	-1.174447	-2.061822
H	-0.276647	-2.102294	-1.642149
N	-0.393739	-1.199297	0.668694
H	-1.271519	-1.065214	1.153064
H	0.323676	-1.408845	1.355413
N	-0.422303	1.228974	0.720096
O	-0.872812	1.111777	1.867779
O	-0.213151	2.311599	0.167849
H	2.586533	0.0	0.0
