17

C	-0.416504	0.030384	-1.483316
C	0.0	0.0	0.0
F	-0.044105	-1.215626	-2.000226
H	1.091102	0.0	0.0
C	-1.889926	0.090044	-1.619737
N	-3.061592	0.123381	-1.710176
C	0.285092	1.09162	-2.302324
H	0.117594	0.884907	-3.362367
H	1.349436	1.032201	-2.058583
H	-0.082295	2.086047	-2.057475
N	-0.43214	-1.139388	0.728561
H	-1.332691	-1.497423	0.44314
H	0.283631	-1.8485	0.646327
N	-0.497289	1.253339	0.642478
O	-1.429555	1.179319	1.445785
O	0.064896	2.304929	0.320044
H	2.701949	0.0	0.0
