17

C	-0.43761	-0.019873	-1.458566
C	0.0	0.0	0.0
F	-1.826782	-0.298989	-1.518502
H	1.090574	0.0	0.0
C	-0.250781	1.229807	-2.216827
N	-0.119906	2.1227	-2.967949
C	0.307011	-1.127896	-2.179901
H	1.380045	-0.968724	-2.029707
H	0.028256	-2.088565	-1.745126
H	0.055666	-1.124435	-3.241355
N	-0.383528	-1.162856	0.718031
H	-1.20862	-1.623514	0.365631
H	0.409177	-1.785916	0.800419
N	-0.489869	1.242355	0.680485
O	-0.120427	2.30438	0.172652
O	-1.173311	1.157914	1.698956
H	2.643272	0.0	0.0
