15

C	0.0	0.0	0.0
C	-0.475478	-0.038236	-1.453315
Cl	1.797551	0.0	0.0
H	-1.569408	-0.061398	-1.443206
H	-0.082584	0.828748	-1.975939
N	-0.435114	1.28876	0.501301
H	-1.458613	1.253315	0.49493
H	-0.142994	1.371364	1.469525
N	-0.428093	-1.191484	0.678958
H	-0.204545	-1.106665	1.664952
H	-1.446279	-1.233978	0.590105
N	-0.009794	-1.238658	-2.192248
O	0.969663	-1.102855	-2.931274
O	-0.635301	-2.285254	-2.040026
Br	-3.730758	0.0	0.0
