15

C	0.0	0.0	0.0
C	-0.47061	-0.001257	-1.455362
Cl	1.810675	0.0	0.0
H	-0.098785	-0.897073	-1.943098
H	-1.563828	0.046592	-1.449093
N	-0.4216	1.208434	0.652635
H	-0.195411	1.142359	1.639403
H	-1.439053	1.249874	0.563422
N	-0.43476	-1.273582	0.536585
H	-0.127259	-1.337501	1.502084
H	-1.458489	-1.232128	0.540484
N	0.027729	1.155491	-2.240377
O	-0.537186	2.236206	-2.095382
O	0.969249	0.949085	-3.011149
Br	-3.723784	0.0	0.0
