15

C	0.0	0.0	0.0
C	-0.162187	0.432494	-1.485268
Cl	1.823268	0.0	0.0
H	0.463041	-0.208539	-2.103406
H	0.151964	1.46971	-1.560563
N	-0.536338	0.996438	0.867743
H	-1.555688	0.935312	0.728395
H	-0.34186	0.743809	1.831096
N	-0.526621	-1.27936	0.215894
H	-0.184243	-2.025091	-0.366081
H	-0.689427	-1.535179	1.174435
N	-1.500585	0.333059	-2.140792
O	-1.844055	-0.792755	-2.487383
O	-2.084098	1.383255	-2.391615
Br	-3.967127	0.0	0.0
