15

C	0.0	0.0	0.0
C	-0.162092	-0.053075	-1.541584
Cl	1.814761	0.0	0.0
H	0.440243	0.739143	-1.980168
H	0.181031	-1.02964	-1.874296
N	-0.528683	1.190112	0.523951
H	-0.733768	1.175467	1.509209
H	-0.110357	2.047549	0.20285
N	-0.525223	-1.18592	0.594848
H	-1.542871	-1.141781	0.450096
H	-0.35919	-1.165426	1.595632
N	-1.511175	0.153352	-2.13774
O	-2.102112	-0.846667	-2.535537
O	-1.868853	1.31897	-2.283473
Br	-4.050633	0.0	0.0
