15

C	0.0	0.0	0.0
C	-0.465155	0.058875	-1.462501
Cl	1.784154	0.0	0.0
H	-1.558183	0.006138	-1.458008
H	-0.103006	0.976119	-1.922583
N	-0.444853	1.167989	0.728035
H	-0.161378	2.018163	0.252072
H	-1.466894	1.120417	0.736425
N	-0.456074	-1.211186	0.60585
H	-1.463517	-1.271103	0.448595
H	-0.305157	-1.118247	1.605237
N	0.041955	-1.051206	-2.310052
O	0.972018	-0.795244	-3.081277
O	-0.49977	-2.147932	-2.199534
Br	-3.732181	0.0	0.0
