16

C	0.0	0.0	0.0
C	-0.327766	0.036083	-1.496882
Cl	1.849589	0.0	0.0
H	0.010121	1.011151	-1.866887
H	0.305627	-0.712506	-1.978177
N	-0.486232	1.167269	0.645636
H	-0.377684	1.12861	1.649794
H	-0.07569	2.013005	0.27568
N	-0.468807	-1.214072	0.600378
H	-1.4909	-1.169765	0.556963
H	-0.204368	-1.234247	1.58075
C	-1.793374	-0.204157	-1.838814
H	-2.024885	-1.270554	-1.830782
H	-1.997899	0.167456	-2.847831
H	-2.514057	0.248387	-1.146841
H	-4.271608	0.0	0.0
