16

C	0.0	0.0	0.0
C	-0.454839	-0.006563	-1.458687
Cl	1.802511	0.0	0.0
H	-1.547527	-0.106302	-1.397124
H	-0.044643	-0.909327	-1.920989
N	-0.465664	1.218423	0.626425
H	-0.234744	1.175042	1.616625
H	-1.494703	1.122752	0.553678
N	-0.447325	-1.24425	0.594234
H	-1.476034	-1.163052	0.531895
H	-0.212103	-1.223921	1.584385
C	-0.088792	1.24149	-2.247691
H	-0.519768	2.125424	-1.777513
H	-0.478516	1.165944	-3.268202
H	0.993476	1.381695	-2.305605
H	-3.108253	0.0	0.0
