16

C	0.0	0.0	0.0
C	-0.432715	0.009503	-1.468548
Cl	1.812143	0.0	0.0
H	-1.524758	0.118401	-1.417205
H	-0.012252	0.908509	-1.934644
N	-0.437745	1.170787	0.729227
H	-0.155866	2.006638	0.219004
H	-1.467988	1.097725	0.678919
N	-0.499764	-1.189579	0.627968
H	-1.52377	-1.101117	0.491487
H	-0.337141	-1.073831	1.624641
C	-0.062713	-1.23419	-2.265586
H	1.019901	-1.368384	-2.325687
H	-0.458309	-1.16214	-3.284346
H	-0.487812	-2.118231	-1.790736
H	-3.097658	0.0	0.0
