16

C	0.0	0.0	0.0
C	-0.432937	-0.058907	-1.467494
Cl	1.81214	0.0	0.0
H	-1.525077	-0.165393	-1.410786
H	-0.01422	-0.974444	-1.902911
N	-0.500435	1.209028	0.590104
H	-1.523704	1.118541	0.451815
H	-0.338868	1.124209	1.590018
N	-0.438279	-1.147798	0.764379
H	-1.468384	-1.074185	0.715009
H	-0.159932	-1.997877	0.277807
C	-0.061996	1.155924	-2.307932
H	1.02075	1.286051	-2.373172
H	-0.458499	1.049382	-3.32354
H	-0.485241	2.056629	-1.863733
H	-3.100087	0.0	0.0
