16

C	0.0	0.0	0.0
C	-0.266791	0.014797	-1.517676
Cl	1.864593	0.0	0.0
H	0.225338	-0.868658	-1.942223
H	0.271869	0.876957	-1.927073
N	-0.512436	1.093462	0.761565
H	-0.318878	1.966418	0.28632
H	-1.529987	0.956344	0.789119
N	-0.485681	-1.18328	0.588303
H	-0.085534	-2.012282	0.176157
H	-0.358518	-1.170367	1.590484
C	-1.730866	0.055342	-1.922993
H	-2.339146	-0.691316	-1.41386
H	-1.802203	-0.075667	-3.009812
H	-2.213115	0.994874	-1.657865
H	-4.097444	0.0	0.0
