16

C	0.0	0.0	0.0
C	-0.451536	-0.003356	-1.453798
Cl	1.866421	0.0	0.0
H	-0.041426	0.887637	-1.942421
H	-1.54436	0.101198	-1.353589
N	-0.517151	1.091838	0.763524
H	-1.546605	0.920777	0.715557
H	-0.332249	1.955522	0.263917
N	-0.41363	-1.187372	0.657342
H	0.07245	-2.002819	0.311754
H	-0.270492	-1.083582	1.652857
C	-0.124439	-1.261368	-2.244722
H	0.942189	-1.502222	-2.218755
H	-0.6944	-2.10587	-1.849181
H	-0.417677	-1.138084	-3.291574
H	-3.277563	0.0	0.0
