16

C	0.0	0.0	0.0
C	-0.433801	-0.065544	-1.466757
Cl	1.813204	0.0	0.0
H	-0.003859	-0.972138	-1.902
H	-1.525265	-0.176073	-1.410326
N	-0.449815	1.171085	0.719268
H	-1.479268	1.089169	0.661746
H	-0.17041	2.0128	0.225612
N	-0.479624	-1.189541	0.64362
H	-0.319229	-1.058059	1.639242
H	-1.504546	-1.126424	0.510299
C	-0.088947	1.156069	-2.305488
H	0.982667	1.37253	-2.298797
H	-0.625989	2.038361	-1.948387
H	-0.394179	0.995872	-3.343675
H	-3.086946	0.0	0.0
