15

C	-0.350187	-0.102879	-1.463425
C	0.0	0.0	0.0
F	-1.722607	-0.383557	-1.6542
H	1.103491	0.0	0.0
H	-0.202915	0.87501	-1.933967
N	0.40646	-1.178365	-2.043674
H	0.471304	-1.059519	-3.04625
H	1.35054	-1.13162	-1.656339
N	-0.474063	-1.190366	0.726225
H	-0.736191	-1.897988	0.048429
H	0.325486	-1.561534	1.231452
N	-0.492746	1.243522	0.57597
H	-1.354591	1.01676	1.059186
H	0.179056	1.53173	1.278551
H	2.954626	0.0	0.0
