15

C	-0.348587	-0.085367	-1.463904
C	0.0	0.0	0.0
F	-1.726439	-0.326996	-1.662514
H	1.10343	0.0	0.0
H	-0.170593	0.891125	-1.927327
N	0.380926	-1.179076	-2.047105
H	0.43535	-1.064923	-3.05149
H	1.331457	-1.140827	-1.672648
N	-0.479721	-1.198299	0.710699
H	0.306477	-1.547537	1.252339
H	-0.686225	-1.914239	0.021478
N	-0.494111	1.236421	0.586405
H	0.155763	1.50214	1.317958
H	-1.376668	1.013013	1.032841
H	2.959795	0.0	0.0
