15

C	-0.51031	0.039635	-1.432784
C	0.0	0.0	0.0
F	-0.233793	1.2884	-1.994883
H	1.099508	0.0	0.0
H	0.046774	-0.67848	-2.049817
N	-1.938282	-0.142934	-1.446808
H	-2.251658	-0.413995	-2.370325
H	-2.110461	-0.9061	-0.798905
N	-0.477591	-1.270927	0.601185
H	-0.678562	-1.030995	1.564866
H	0.326076	-1.892944	0.625993
N	-0.490598	1.123719	0.782485
H	0.256128	1.807064	0.822737
H	-1.278989	1.547927	0.308132
H	3.003937	0.0	0.0
