15

C	-0.514696	0.027854	-1.426443
C	0.0	0.0	0.0
F	-0.105831	1.243526	-2.026061
H	1.099646	0.0	0.0
H	-0.055889	-0.763518	-2.024502
N	-1.938003	-0.0815	-1.439957
H	-2.276483	0.631363	-0.800493
H	-2.294544	0.099114	-2.369232
N	-0.415309	-1.21055	0.692614
H	-1.230158	-1.611404	0.245445
H	0.355245	-1.866837	0.655102
N	-0.581734	1.166583	0.691548
H	0.022978	1.956699	0.485975
H	-0.472748	0.960942	1.677995
H	3.041586	0.0	0.0
