14
Coordinates from ORCA-job run
  C   -0.56574170375856      0.21030662020131      0.09709726384140
  C   0.93179522360818      0.40865973483745     -0.07720372613162
  Br  -1.22569667961022      1.03886715777660      1.68612664845398
  H   1.18331648991817      0.02447219854705     -1.06687862883315
  H   1.13719608677715      1.48275533130864     -0.06669270937058
  N   -1.35915067146089      0.76130463313421     -1.07717667892776
  O   -2.49645251242840      0.33383739595644     -1.21235215458995
  O   -0.79371205508471      1.60113666714409     -1.76715837600039
  N   -0.84190781736778     -1.29334874787859      0.08049872344947
  O   -1.32501547301985     -1.83391278594028      1.05583395672634
  O   -0.50482905688066     -1.81330113636733     -0.97698065119407
  N   1.60498390105096     -0.37738795464037      0.93970604598183
  H   1.75539002805601      0.16076693569720      1.78173995818749
  H   2.49882424020061     -0.70415604977642      0.60244032840700
