14
Coordinates from ORCA-job run
  C   -0.57062409715289      0.05211983853294      0.21149940354035
  C   0.90781144487402     -0.25440286239633      0.39134295380452
  Br  -1.20886238192437      1.31584546355674      1.49309222598839
  H   1.06116828161961     -0.60665455588077      1.41540152611747
  H   1.14021172099977     -1.07570677691316     -0.28814483163270
  N   -0.77463224532166      0.54081271030115     -1.22292661551301
  O   -1.19857501492247      1.66081786150806     -1.42951554647582
  O   -0.44977684986334     -0.30390210033554     -2.04930325760370
  N   -1.43372635001241     -1.19516357510325      0.31946956123001
  O   -0.93312903561438     -2.15283901096406      0.89674647101621
  O   -2.55611686129246     -1.12139935701270     -0.15919569346659
  N   1.65658418158504      0.92671280652826      0.00587474136307
  H   2.55425184892131      0.67004038880976     -0.37838431936701
  H   1.80541535810422      1.54271916936889      0.79304338099880
