14
Coordinates from ORCA-job run
  C   -0.70819204512263      0.15956616640632      0.21404312956254
  C   0.69775372715974      0.42923840317801      0.73159945530516
  Br  -2.04098462759394      0.80938465709237      1.42450734365909
  H   0.71521085154853      0.04871443155845      1.75402857698110
  H   0.83093790409423      1.51628687751658      0.76855802403433
  N   -0.95242356158663      0.78923043764639     -1.15115069173087
  O   0.01286195573625      1.34028414611838     -1.67342817597112
  O   -2.07678394683584      0.68793894000575     -1.61473896446359
  N   -0.84331822827776     -1.35327892351209      0.03178620891815
  O   -0.91278715949574     -1.77666457346109     -1.11021440846945
  O   -0.79162121881230     -1.99696731238715      1.06715359878199
  N   1.65342207817629     -0.29847739826448     -0.07299440519022
  H   2.43582536891172     -0.61314471649650      0.48085495517823
  H   1.98109890209809      0.25688886459905     -0.84900464659534
