14
Coordinates from ORCA-job run
  C   -0.56759209316714      0.19974541096143      0.10393843581058
  C   0.92532093137429      0.42412248616192     -0.07647902301407
  Br  -1.22852489551131      0.99091659470600      1.71160265670985
  H   1.17731535826768      0.05982400819274     -1.07350240927339
  H   1.11442959931668      1.50099594052115     -0.05017345514733
  N   -1.37762439955188      0.75852018593545     -1.05535007729423
  O   -0.82758705161132      1.61379102824775     -1.73870606880777
  O   -2.51118694778138      0.32004787585262     -1.18635516396219
  N   -0.82171934925713     -1.30734170752335      0.06283350676906
  O   -1.29489757588140     -1.87115485896360      1.02979157342440
  O   -0.48093453446797     -1.80423960569830     -1.00443497655100
  N   1.61686047294921     -0.36813971045800      0.92310142741547
  H   1.75901550098334      0.15580264934968      1.77543569015413
  H   2.51512498433833     -0.67289029728549      0.57729788376649
