14
Coordinates from ORCA-job run
  C   -0.70804259768214      0.15329921160144      0.21872722896739
  C   0.69905582828331      0.44068912346226      0.72341092999947
  Br  -2.03769548072238      0.79597412591141      1.43663434831699
  H   0.72876017797125      0.06595869917567      1.74765642892258
  H   0.82137680139231      1.52923050078331      0.75307173129514
  N   -0.97011715109482      0.77268741865685     -1.14785680482437
  O   -2.09754114240766      0.65837603286075     -1.60077005890129
  O   -0.01462114507138      1.32942880150974     -1.68188519305256
  N   -0.82875084234256     -1.36170768072188      0.04647431130634
  O   -0.90405801595151     -1.79250210618987     -1.09239761730114
  O   -0.76109595318552     -1.99872984330430      1.08499216518103
  N   1.65572006764995     -0.28213159369025     -0.08494253503619
  H   2.44732451451217     -0.58189936959106      0.46421361167703
  H   1.96968493864898      0.27232667953591     -0.86732854655043
