14
Coordinates from ORCA-job run
  C   -0.71096578221312      0.14539371419099      0.21445626315373
  C   0.68928240297848      0.42633663536326      0.74133526522402
  Br  -2.05118801242371      0.97758668836944      1.29869793904192
  H   0.76899413173509     -0.04275174265733      1.72843547406029
  H   0.74514576880079      1.50807692100740      0.87210428369114
  N   -0.77388110435237      0.68009297766745     -1.21718634917398
  O   -0.84485806369115     -0.13841496903497     -2.11902022192158
  O   -0.66964197478841      1.89208553471390     -1.31256502197109
  N   -1.01245790446130     -1.34571088545696      0.13973394584528
  O   -0.08561998267963     -2.10004849031750      0.42269390468127
  O   -2.13951124602363     -1.66651559593804     -0.20103142587800
  N   1.66456144786783      0.00588264687738     -0.24007424772895
  H   1.94770805165891     -0.95102996151117     -0.09083432973112
  H   2.47343226759222      0.60901652672614     -0.23474547929293
