14
Coordinates from ORCA-job run
  C   -0.71218167431920      0.15932383880154      0.20165096372294
  C   0.68375318954222      0.41700579763340      0.75136600355847
  Br  -2.06750548424625      0.79689992839702      1.39320292089764
  H   0.67908333550859      0.02316639759252      1.76883523697160
  H   0.81995539050968      1.50297699695274      0.80496021428829
  N   -0.92598569468648      0.80831226263813     -1.15969789428772
  O   0.05240814631328      1.36056564498853     -1.65566974966332
  O   -2.04133766681188      0.71910437606661     -1.64693781044206
  N   -0.84844522796125     -1.35049373967228     -0.00422338909326
  O   -0.81808529914174     -2.00832128253668      1.02305571320771
  O   -0.89785354627964     -1.75797698974627     -1.15298830729807
  N   1.65310747798950     -0.30430699207421     -0.04317047101205
  H   2.42341237986451     -0.62657209466117      0.52331272829638
  H   1.99867467371866      0.26031585562012     -0.80469615914655
