14
Coordinates from ORCA-job run
  C   -0.70714404032754      0.14734162771138      0.22673464162863
  C   0.70286251237823      0.43770981664713      0.72149699854706
  Br  -2.02728722591440      0.99242286737326      1.32503823409644
  H   0.75936654117154      1.52117233574717      0.83678617396625
  H   0.80301800991995     -0.01802323227559      1.71297640658775
  N   -0.79946553252606      0.66122138386465     -1.21128294280089
  O   -0.88780692686154     -0.17011795222680     -2.09966103133354
  O   -0.69819645617820      1.87182729421731     -1.32589921118815
  N   -1.00675313578582     -1.34534153411169      0.17880083749158
  O   -0.07256280361918     -2.09395076891436      0.45283986161537
  O   -2.13970132715686     -1.67321255081606     -0.13472087694042
  N   1.65910293687532      0.00560340059292     -0.27354737739854
  H   2.46577048381277      0.61143311093412     -0.29314110567692
  H   1.94879696421181     -0.94808579874346     -0.11642060859461
