14
Coordinates from ORCA-job run
  C   -0.57139512585841      0.20046333456383      0.07697282993789
  C   0.92567474708407      0.42603242462806     -0.06330046364775
  Br  -1.28846511234780      1.05178321029074      1.62901354818606
  H   1.21179469256772      0.02373733296241     -1.03619294705093
  H   1.10923238195372      1.50411701658033     -0.07375582971017
  N   -1.34528806483594      0.70714580954413     -1.12944054474824
  O   -0.77839449231164      1.53989878965915     -1.82678504096236
  O   -2.47133940675149      0.25591059501505     -1.28061424750286
  N   -0.81698207275800     -1.30863142790007      0.08861921606496
  O   -0.43859997950381     -1.84582563576716     -0.94593656854973
  O   -1.31993803207668     -1.83582509925417      1.06116994193738
  N   1.58736057468603     -0.32169079975531      0.98945656076351
  H   2.49843217455844     -0.63371456107294      0.68630430546961
  H   1.69790771559377      0.23659901050596      1.82448923981263
