14
Coordinates from ORCA-job run
  C   -0.58860773060663      0.07493114261044      0.14462192770731
  C   0.87181453978242     -0.12773954860849      0.51545485022751
  Br  -1.36750709635040      1.56222945262219      1.05441127752422
  H   1.18174838124562     -1.06805835742690      0.05723958087203
  H   0.93592082995617     -0.24139306108652      1.60145418387343
  N   -0.66629438475541      0.23008928906797     -1.37447829794858
  O   -1.07700936400641      1.26576214131773     -1.85961815937741
  O   -0.26012076700837     -0.76603555048846     -1.96164884507667
  N   -1.43525423588102     -1.15118175896139      0.44919669465448
  O   -2.51405520633493     -1.21988273478051     -0.12153476558882
  O   -0.96784130984315     -1.94817047184134      1.25375039556999
  N   1.63137397896730      0.96824222425352     -0.05645781360131
  H   2.56885768980960      0.67000325412877     -0.28375438276119
  H   1.68697467502521      1.75020397919298      0.58136335392502
