14
Coordinates from ORCA-job run
  C   -0.59581711868675      0.19625466854611      0.07725919082034
  C   0.91944648614578      0.38287389001933      0.01621810435371
  Br  -1.39346341189794      1.03944763716788      1.58095452144681
  H   1.08017260256344      1.45820259332160     -0.10019400856777
  H   1.25269724247199     -0.11494465997482     -0.90179380417271
  N   -1.16260394096723      0.73357355613086     -1.23970545059941
  O   -1.57399819647047      1.88136058671848     -1.26897107468986
  O   -1.04774139440266     -0.04086360527407     -2.18416471925613
  N   -0.97786022397523     -1.28021709509094      0.07275439707664
  O   -2.17328567041268     -1.52941804421801      0.09456454311227
  O   -0.05676191223286     -2.08729971239876      0.01449011155175
  N   1.54730535645383     -0.09572854999340      1.22255013499180
  H   1.87122758062743     -1.04438737742946      1.11100230708962
  H   2.31068260078335      0.49914611247520      1.50503574684293
