14
Coordinates from ORCA-job run
  C   -0.35708698670943     -0.45045572559926     -0.04619470069260
  C   0.77863273395399      0.19627822862523      0.75813543995346
  Br  0.05347113785462     -2.23574949901918     -0.58582986091961
  H   1.00512456381254     -0.46601357593676      1.59368214329912
  H   0.38465529937382      1.12858752675944      1.16696971598628
  N   -1.66464272476610     -0.49523390152611      0.73180344592937
  O   -2.68902825216434     -0.59056193425461      0.07141000892258
  O   -1.56410931089678     -0.46255828238734      1.95171348627493
  N   -0.64612831857946      0.45152584708945     -1.24148794714989
  O   -0.43091038476876      0.05266780043827     -2.37317054999278
  O   -1.02822845239643      1.56806205311598     -0.90525062449659
  N   1.97272250523433      0.47290075976031      0.00330288440467
  H   1.82996881226672      1.18685521047522     -0.69761163165885
  H   2.35655937778528     -0.35630450754064     -0.42847180986010
