14
Coordinates from ORCA-job run
  C   -0.54460892375309      0.08644061863607      0.16894251998043
  C   0.90818361329953     -0.12560080791471      0.61560271849897
  Br  -1.31583326250108      1.66638509029388      0.91461588866594
  H   1.19563860745348     -1.12694192761590      0.28964169342788
  H   0.91986288769672     -0.11241460039361      1.70544540267200
  N   -0.55806734676812      0.11343453833606     -1.35583110027949
  O   -0.17688342782244     -0.94434702558824     -1.84726175641854
  O   -0.86341992710756      1.13580418792019     -1.94543295143835
  N   -1.44233437102020     -1.08399335520671      0.54465863784391
  O   -2.47054226395226     -1.21266479045880     -0.10403500755620
  O   -1.06313650121333     -1.77023324966771      1.48521007469861
  N   1.84688402143185      0.83370127663832      0.09529231629158
  H   1.60244752676308      1.78352344957781      0.33907808545601
  H   1.96180936749341      0.75790659544335     -0.90592652184274
