14
Coordinates from ORCA-job run
  C   -0.65735202651103      0.12621483310008      0.17737548611735
  C   0.68271394864235      0.47913150817636      0.83922058768870
  Br  -2.12206569745831      0.79445365448140      1.22414296601203
  H   0.63495772448312      0.05772253478582      1.84548049495605
  H   0.68229165335203      1.56590760230841      0.94569570879347
  N   -0.78549573822090      0.72911410540035     -1.23385665856895
  O   -1.81154444702922      0.51018752381966     -1.85707323798391
  O   0.16440549323167      1.41156015047748     -1.60856915933419
  N   -0.85019077697131     -1.39453815551086      0.03098234381898
  O   0.05893123502089     -2.09062940264655      0.47533861652360
  O   -1.88257250340026     -1.79207885102556     -0.48405765142581
  N   1.90291551505172      0.06186076421158      0.20434476228634
  H   2.01343442121219      0.48228872193546     -0.70499909421961
  H   1.96857119859705     -0.94219498951362      0.14497483533595
