14
Coordinates from ORCA-job run
  C   -0.52903758863625      0.29971318826027      0.04776268476590
  C   0.98123272494155      0.25403140336850     -0.12024954607546
  Br  -1.06570629660000      1.46075592453062      1.46570523302338
  H   1.33822981007045      1.27547058894892     -0.27994591018632
  H   1.17589378535868     -0.31994279957684     -1.02744195346203
  N   -1.23416460821797      0.75831802560391     -1.21907478920709
  O   -0.55302144386709      1.38399362116406     -2.02269240875202
  O   -2.42200819663264      0.48411018951999     -1.30932519875213
  N   -1.01770010958472     -1.13222633556268      0.26602624645049
  O   -1.57274903536828     -1.43340211443281      1.30444670155700
  O   -0.75946941536184     -1.85923198599657     -0.68615707498103
  N   1.53429908488580     -0.44347729747793      1.02566357430210
  H   2.38705149762908     -0.92127874512953      0.77241875103519
  H   1.73514979138324      0.19516633678011      1.78286369028202
