14
Coordinates from ORCA-job run
  C   -0.55775012276245      0.06641468224203      0.23690961999239
  C   0.93560389160531     -0.18959753432132      0.36172249164364
  Br  -1.15285582555743      1.46331419450921      1.39498140983716
  H   1.14857359940391     -1.08159876883102     -0.22930722743909
  H   1.15742280866380     -0.41364488520330      1.40904602074995
  N   -0.85731451453057      0.37420003859621     -1.23020161776210
  O   -1.31469270228064      1.45583448642522     -1.54320964843874
  O   -0.56529052185504     -0.55996544798311     -1.96771831325869
  N   -1.38088802980907     -1.17428880721172      0.54593043328143
  O   -0.82498804980422     -2.04305921425135      1.20732260098190
  O   -2.53004073038190     -1.18158055757695      0.12915173395221
  N   1.63030824089172      0.94976312965575     -0.20815442056157
  H   1.79343322939304      1.66574561584647      0.48633691368151
  H   2.51947872702355      0.66646306810388     -0.59380999665999
