14
Coordinates from ORCA-job run
  C   -0.61853219273097      0.08733709375462      0.10931345335909
  C   0.84488718795859     -0.03696551697750      0.52701480043917
  Br  -1.50407665731517      1.55751618501943      0.92500667954798
  H   1.22726129326941     -0.94709957759117      0.04986682720328
  H   0.83088604658146     -0.19607942366889      1.60833030462953
  N   -0.75908339231491      0.19124132788386     -1.40578282218013
  O   -1.89017949709767      0.34254142149406     -1.83973812787251
  O   0.27158180462211      0.07160870641195     -2.05965370333206
  N   -1.29456382984295     -1.24010531821752      0.46682667826432
  O   -1.76164154514945     -1.35191075057136      1.58839672316866
  O   -1.19886507048581     -2.11176366418848     -0.39012043724782
  N   1.57188230166002      1.16524178189864      0.19929359621859
  H   2.03501334682857      1.07538128558155     -0.69248164214225
  H   2.24543020401680      1.39505644917080      0.91372766994415
