14
Coordinates from ORCA-job run
  C   -0.60164726551719      0.19582906925044      0.04267062541498
  C   0.91138784305182      0.40130181036795      0.03644481518008
  Br  -1.47308712002476      1.11722209907059      1.45779150592370
  H   1.29112997641111     -0.11807023498836     -0.85140016240995
  H   1.06308645872954      1.47480760359770     -0.10261587509382
  N   -1.11604963769086      0.65726806862454     -1.32458884290291
  O   -1.41024301554480      1.83474507200540     -1.44937549711389
  O   -1.07524659103171     -0.19709770219122     -2.20305888245416
  N   -0.96311253144124     -1.28448836284948      0.10656406334403
  O   -0.02940264269048     -2.07782660675999      0.05245975909300
  O   -2.15258052769651     -1.55370526207547      0.16382622282278
  N   1.48995971702783     -0.03668361227025      1.28329680922949
  H   1.82755210978396     -0.98467765142923      1.21143318539860
  H   2.23825322663330      0.57237570964738      1.57655227356807
