14
Coordinates from ORCA-job run
  C   -0.55242344769040      0.02259031044480      0.29790531685159
  C   0.94575322668594     -0.26626442822965      0.28198302140426
  Br  -1.06589727693731      1.10678681124804      1.77947146292185
  H   1.21480408670773     -0.69083903629727      1.24993024351951
  H   1.10958114875533     -1.03535311507075     -0.47509143995442
  N   -0.91878301822171      0.66859053467124     -1.03617995688850
  O   -1.49412244666645      1.73962739028568     -1.05884344303197
  O   -0.56636983692086     -0.01039181803844     -1.99523813148704
  N   -1.37353741095321     -1.25778533811104      0.35382964869420
  O   -0.84015913383931     -2.20835317863529      0.91234531911836
  O   -2.49393173073725     -1.21591878807830     -0.13441947682462
  N   1.63485616642092      0.96440321346915     -0.04200886069196
  H   2.18425566656381      1.31550691766751      0.72638339892354
  H   2.21697400683277      0.86640052467434     -0.85906710255482
