14
Coordinates from ORCA-job run
  C   -0.54458653533974      0.29951498543042      0.09077045188756
  C   0.96816044265674      0.30954425900517     -0.10870182668275
  Br  -1.08708400522121      1.36617587736387      1.57472963865104
  H   1.28979802497442      1.34961454653076     -0.17480435545178
  H   1.16119234774135     -0.15990397536203     -1.07505445775438
  N   -1.27955880903354      0.80986272836653     -1.14042144396999
  O   -2.41243789449776      0.38647436726883     -1.32141140312087
  O   -0.67170108880291      1.62476075161265     -1.82343917589703
  N   -0.98741624329864     -1.15403251872240      0.24060055380384
  O   -0.61655315849636     -1.85329283806818     -0.69668603860851
  O   -1.63240981676211     -1.49924265485233      1.21192803091107
  N   1.56747088358301     -0.43163921256069      0.98031017867879
  H   2.11465641620738      0.15260642061806      1.59250584143038
  H   2.13146943628938     -1.19844273663066      0.64867400612263
