14
Coordinates from ORCA-job run
  C   -0.67689068508439      0.18060591967828      0.22693401107660
  C   0.72065952273398      0.47008335500316      0.80425076394943
  Br  -2.05018502243436      0.82002230750908      1.39199424754601
  H   0.70448625640541      0.08225843871234      1.82592750880006
  H   0.81276846064351      1.55629598665695      0.86239218497901
  N   -0.89790335766701      0.80351246058635     -1.14483834432900
  O   0.01962313538664      1.48608047447306     -1.59028032516025
  O   -1.96820284290764      0.56898482824521     -1.68333422879107
  N   -0.77866537048521     -1.32263260562875      0.02081285125259
  O   -1.01832367180079     -1.99718905188261      1.01038549630304
  O   -0.47111454880509     -1.72483540638782     -1.09593716228432
  N   1.84296209873661     -0.08048775327060      0.09980670535898
  H   1.88589833591349      0.24484803312890     -0.85430794111702
  H   1.87488768936484     -1.08954698682353      0.12619423241594
