14
Coordinates from ORCA-job run
  C   -0.57792689628105      0.19582304905269     -0.01955292259237
  C   0.91982407007723      0.43350573404971      0.08958953013245
  Br  -1.54956024484424      1.04545868811175      1.38816194167133
  H   1.36663093202279      0.03077415170774     -0.82061412922537
  H   1.09407729133382      1.51311149623551      0.10470092786565
  N   -1.14476850549527      0.69265625414176     -1.33988553629945
  O   -2.22592274723352      0.23040035366914     -1.67438642686223
  O   -0.47685324791516      1.52863845499301     -1.93661823289453
  N   -0.81030135355650     -1.31521057929044     -0.04261598956284
  O   -1.46299474838522     -1.84389885856172      0.83558708641019
  O   -0.26097840037336     -1.85223023621767     -0.99758191723533
  N   1.40353779413197     -0.30536266374696      1.24072224973444
  H   1.37086819795356      0.25668692460026      2.07990971434462
  H   2.35436785856496     -0.61135276874479      1.09358370451344
