14
Coordinates from ORCA-job run
  C   -0.67775538580496      0.14926039054867      0.24656029487276
  C   0.72046908360298      0.44156313788614      0.82119720516593
  Br  -2.04507095377064      0.93804748438636      1.32363215928999
  H   0.75580758196312     -0.03210003111283      1.80413567676882
  H   0.75776621275010      1.52352709470933      0.97106993662331
  N   -0.70613201215891      0.69279327297495     -1.17346042813629
  O   -0.41270284809173     -0.11033057069052     -2.05236686481323
  O   -0.87877973411563      1.89553076998246     -1.29745452016978
  N   -0.97572403354569     -1.33939280963292      0.12663201144290
  O   -0.11038130734243     -2.10583155254384      0.53884441978559
  O   -2.04896816913949     -1.64143729167476     -0.37083252201794
  N   1.84704005563627      0.02653056748411      0.03558919172890
  H   1.84147365383481     -0.96769480486215     -0.13631196506202
  H   1.93395785618220      0.53053434254498     -0.83523459547895
