14
Coordinates from ORCA-job run
  C   -0.55330811809027      0.08658665347186      0.24252214424435
  C   0.93372550591105     -0.20946708212356      0.35601155852331
  Br  -1.09422548149477      1.52055225508543      1.38225249174125
  H   1.16121474081329     -0.41981601693916      1.40487083490044
  H   1.11545739349130     -1.11828421177799     -0.21948173828268
  N   -0.86014494440997      0.37781598312520     -1.22643634622740
  O   -0.60038408211938     -0.57653580959749     -1.95017024055787
  O   -1.29277763276189      1.46503908623230     -1.55407024906159
  N   -1.40860763924599     -1.12379244990436      0.58261891488141
  O   -0.86960106753450     -1.99899701730608      1.24909592612544
  O   -2.56221459704547     -1.10308316317457      0.17883940562666
  N   1.65324259122061      0.90002093992170     -0.24152108408204
  H   2.52256898484409      0.58316802197702     -0.64567790631113
  H   1.85705434642190      1.61679281100970      0.44114628847984
