14
Coordinates from ORCA-job run
  C   -0.66608547656922      0.13196659372026      0.33462994179075
  C   0.80273188058473      0.38934023837225      0.64061943225735
  Br  -1.80799894940834      0.90297484746532      1.66321317545060
  H   0.88501914931261      1.46276699887375      0.81758539355223
  H   1.03966315601958     -0.13129025421585      1.57527047756644
  N   -0.95786560310386      0.73977854179041     -1.03870919945375
  O   -0.86358684534272      1.95533502686347     -1.08723385927137
  O   -1.17909045218618     -0.03136534842947     -1.95770363953411
  N   -0.98389027914881     -1.35412473666298      0.23273163820253
  O   -2.15301923598117     -1.66026307370805      0.06341290629034
  O   -0.02749055242306     -2.11936755261788      0.32161475156012
  N   1.60322698984088      0.02394865894227     -0.50692931386290
  H   1.90209818420722     -0.93842182398333     -0.45543589162471
  H   2.40528803419835      0.62872188358984     -0.60206581292353
