14
Coordinates from ORCA-job run
  C   -0.66279653530920      0.13678548145407      0.33853749510955
  C   0.80960789025093      0.38494278369767      0.63405780415909
  Br  -1.78967086107304      0.91603833156314      1.67529567504788
  H   0.90028753712153      1.45838639037580      0.80723392104728
  H   1.04919851735382     -0.13440891648063      1.56867646295864
  N   -0.96024890386731      0.74546036940197     -1.03314152434812
  O   -0.86262503371811      1.96079599894394     -1.08287976755516
  O   -1.18858649514244     -0.02544041830876     -1.95074948721487
  N   -0.99110451253544     -1.34688267789282      0.24040158770739
  O   -0.03986676306538     -2.11874759356064      0.32884293989416
  O   -2.16299535714880     -1.64518450283903      0.07544595729946
  N   1.59999881891435      0.01158062605333     -0.51824242278997
  H   1.89207262793391     -0.95293756069755     -0.46627708298504
  H   2.40672907028517      0.60961168828952     -0.61720155833030
