14
Coordinates from ORCA-job run
  C   -0.53505759746346      0.06977974860696      0.10473467033919
  C   0.93938611092408     -0.12170116901707      0.50617118507810
  Br  -1.30311990939907      1.65658934996939      0.83079921244124
  H   1.28185030451447     -1.01165515524878     -0.02676837103545
  H   0.92323204868329     -0.35392660919129      1.57568670405340
  N   -0.73647437205444      0.09827992787011     -1.40638961583226
  O   0.27339585236893      0.17118402931634     -2.09776967873553
  O   -1.89327124031679      0.04550759897514     -1.79541816470844
  N   -1.28705885383797     -1.18207179239767      0.55254340615207
  O   -1.00728115920239     -2.17068738642929     -0.11833601599687
  O   -2.00102019585075     -1.13043268833905      1.53940384219081
  N   1.84966984305907      0.96106347986317      0.26693837310357
  H   1.59479531719794      1.78995969383572      0.78533276321768
  H   1.90095385137708      1.17711097218633     -0.71792831026749
