14
Coordinates from ORCA-job run
  C   -0.48607357294371      0.30829035193282      0.03541726206243
  C   1.04450655772203      0.35237853664894     -0.06839693416996
  Br  -1.14717119143299      1.30724688128921      1.52278161103546
  H   1.30809631228239     -0.08713643704958     -1.03219388084824
  H   1.34026195424761      1.40130819117948     -0.08677961952844
  N   -1.16702688631735      0.84350404975300     -1.21604075599035
  O   -2.31739622754323      0.47775733699029     -1.40948359892571
  O   -0.50603768266932      1.61743008329005     -1.89683039840369
  N   -0.90022115214980     -1.15779213179350      0.10707285198585
  O   -0.58606296610367     -1.78385686900061     -0.90037079783596
  O   -1.42173238812626     -1.59582581552750      1.11810317416986
  N   1.74202785973647     -0.34372574619172      0.98082664741710
  H   1.50248149296257      0.00346989616733      1.89920401343243
  H   1.59534789033527     -1.34304832768820      0.94569042559922
