14
Coordinates from ORCA-job run
  C   -0.71161930085259      0.15760289269198      0.20417300496782
  C   0.68634019022726      0.43389295515251      0.73944610853141
  Br  -2.06271094895608      0.80522257063168      1.39526089579678
  H   0.69188369919826      0.05590213933361      1.76293201041549
  H   0.81508066650760      1.52150378343058      0.77530021326880
  N   -0.94033849833351      0.78235607505332     -1.16579207421619
  O   0.02938642924837      1.33621078111590     -1.67677201781662
  O   -2.05792853198609      0.67459882444543     -1.64402300726162
  N   -0.83864173712412     -1.35660014735677      0.02459893416279
  O   -0.79792537382080     -1.99694662526349      1.06247295001788
  O   -0.89156449246737     -1.78351844849188     -1.11692366519427
  N   1.65523677569531     -0.29246413351105     -0.05105201046512
  H   2.43248357835965     -0.60001981202669      0.51411885679492
  H   1.99031754430411      0.26325914479487     -0.82374019900208
