14
Coordinates from ORCA-job run
  C   -0.71434317875357      0.14850019785919      0.20042646139480
  C   0.67650472021469      0.42173455336860      0.75549221913466
  Br  -2.07187683765938      0.98545143259542      1.25866785305132
  H   0.73512645793645      1.50298558605376      0.88926105779410
  H   0.73412849198407     -0.04919472935632      1.74323651490021
  N   -0.74588222980045      0.68575190492978     -1.23182931040281
  O   -0.80218111563478     -0.13106087996554     -2.13617252659905
  O   -0.63419581688648      1.89741758409871     -1.32309489076208
  N   -1.02139456953688     -1.34079587858060      0.11681216763621
  O   -0.10487661960804     -2.10019954768371      0.41936940741250
  O   -2.14217779130281     -1.65553504789462     -0.24943347381465
  N   1.66920258081354     -0.00239788906046     -0.20673319664102
  H   2.48011072651806      0.59767286982110     -0.18508637272058
  H   1.94585518171557     -0.96033015618531     -0.05191591038361
