14
Coordinates from ORCA-job run
  C   -0.50047395831765      0.12515128646083      0.18383872427328
  C   0.96580270018092     -0.18757366496619      0.50948099603332
  Br  -1.06794993156724      1.77434137176963      0.95165626680535
  H   1.19319526976094     -1.15325854583968      0.06231810375903
  H   1.01780318338338     -0.30003651588531      1.59635407388677
  N   -0.75345494803477      0.14972880573575     -1.33132817868540
  O   0.12373575702294     -0.34882919517321     -2.02903202208896
  O   -1.82311896678751      0.60546981748233     -1.70787902375429
  N   -1.40711526727894     -1.03321032465333      0.64102252220836
  O   -0.94590393817855     -2.14227987644048      0.38606173722181
  O   -2.48176845414586     -0.78202675238168      1.15946687546380
  N   1.93844148040173      0.77850347759711      0.07458656605025
  H   1.74892832363629      1.70214939644114      0.43780831902071
  H   1.99187874992432      0.81187071985310     -0.93335496019404
