14
Coordinates from ORCA-job run
  C   -0.61965522386798      0.23472639346160      0.36551826545719
  C   0.88755463079056      0.31986178650214      0.56209696058558
  Br  -1.56099274314607      1.21847317418086      1.71101283732494
  H   1.11344992452283      1.38269716780715      0.66131062207627
  H   1.12262495452458     -0.17064211095263      1.51339074549783
  N   -0.92971367275090      0.79579481818257     -1.02299251462984
  O   -1.30442113669648      0.00706882624496     -1.87503251199931
  O   -0.69264979510348      1.98535945896166     -1.15604817747802
  N   -1.12464831568294     -1.20193122297892      0.38087797456764
  O   -0.26627552868136     -2.07656860591701      0.46199670226533
  O   -2.33153293462860     -1.36586401899018      0.30383994179453
  N   1.55508290988011     -0.20969748388594     -0.60600407428583
  H   1.73247651602088     -1.19856230727292     -0.51202532536581
  H   2.41870041481886      0.27928412465665     -0.78794144581049
