14
Coordinates from ORCA-job run
  C   -0.52582732863511      0.15940406372676      0.02419935163862
  C   0.99537737840321      0.39987606289249      0.04716841455494
  Br  -1.40082391888044      0.78311037239215      1.59912857183672
  H   1.12117991244006      1.48324336320239     -0.04503885003630
  H   1.38562651468838     -0.06345042636565     -0.86190980117235
  N   -1.06638425522590      0.83771125842537     -1.23282585939762
  O   -0.74472159277446      0.25570271984857     -2.26409661716382
  O   -1.66729829905750      1.89365473772569     -1.13102824743097
  N   -0.88842723268324     -1.30924012854468     -0.16511964650537
  O   -2.06476906691869     -1.54765025363478     -0.39244109985728
  O   0.02594548052345     -2.12094847431182     -0.07345492168325
  N   1.73569848663545     -0.07135329504084      1.18201943259692
  H   1.43897231470405      0.37536448271112      2.03826195549859
  H   1.65445160678074     -1.07342448302676      1.27413731712116
