14
Coordinates from ORCA-job run
  C   -0.62649936010202      0.28115956180941      0.26684931055780
  C   0.83743296058838      0.38799892010517      0.73234439592045
  Br  -1.80664727285541      1.14164447579100      1.49880404198131
  H   0.84419964775665      0.03621159932888      1.76712793432167
  H   1.08197550858640      1.45191824416133      0.74116299520397
  N   -0.86165368854866      0.88789544880756     -1.11011504501511
  O   0.10546306752940      1.41998520846791     -1.64643490723983
  O   -1.99172563616729      0.79101384455630     -1.56188028747356
  N   -0.95013466235770     -1.19801777942429      0.12798545172982
  O   -0.78500439575246     -1.67222839779120     -0.99069749836380
  O   -1.20636235323382     -1.80300504387568      1.15764627188935
  N   1.81647882831712     -0.33559918912421     -0.02662119840505
  H   1.71230241532358     -1.33788991595069      0.04005482654788
  H   1.83117494091583     -0.05008697686148     -0.99422629165490
