18
Coordinates from ORCA-job run
  C   -0.58079981168321     -0.22245816351461      0.38995207444122
  C   0.93886827336149     -0.08166510482181      0.28490547744701
  Br  -0.83304777625447     -1.68404523220019      1.69634004209223
  H   1.39709972686179      0.01879026957872      1.26711429812914
  C   -1.31155613193275     -0.61585502587921     -0.88427965810703
  H   -0.97363502759164     -1.57638249146617     -1.26990675512010
  H   -1.16006533874477      0.14442261846519     -1.64997152095349
  H   -2.37743385366971     -0.69237881334847     -0.66161987040194
  C   -1.15562759710650      1.04365197548392      1.01709622342273
  H   -0.61862962758074      1.31876047874264      1.92801024947167
  H   -2.20079932466468      0.87461274462117      1.27951216870354
  H   -1.10636623312449      1.86752448571821      0.30306647393447
  N   1.41504304754030      1.11752165798706     -0.50352610255569
  O   0.67052448978685      1.63062783922456     -1.33066985248304
  O   2.56675306781055      1.45874696128692     -0.24749250050770
  N   1.61304296789725     -1.25211558630370     -0.37801387835775
  O   2.23305871166242     -2.01452699119800      0.35375757495094
  O   1.48257043743232     -1.33523162237623     -1.59627444410621
