18
Coordinates from ORCA-job run
  C   -0.61608387426463     -0.38372321119128      0.10935161594743
  C   0.86784067918467     -0.38390674025607     -0.26242122033711
  Br  -0.94788793199576     -2.22755485262602      0.73939827699971
  H   1.10952794595170     -1.20898773150850     -0.92996990113249
  C   -1.44585608415926     -0.18592072447796     -1.15518580674733
  H   -1.35383930109362      0.84449714289422     -1.50276621100114
  H   -2.49529869968802     -0.38446150482375     -0.93368710782548
  H   -1.13330585704370     -0.86746867250528     -1.94993547221536
  C   -1.03220168242503      0.56305208628060      1.22420908151554
  H   -0.51633523299906      0.34694648056157      2.15837909743204
  H   -2.10489428342974      0.44937765385525      1.39139988436096
  H   -0.82265648536541      1.59270341736737      0.93583898197571
  N   1.79022856725895     -0.51233828221210      0.91913111097491
  O   2.33967021045715     -1.59692455170510      1.07071800706219
  O   1.91117625463760      0.48556522293035      1.62452896145886
  N   1.34666551643757      0.86092227906922     -0.97475390222108
  O   0.72343952786213      1.90802762628952     -0.84530074976003
  O   2.37881073067445      0.70119436205795     -1.62093464648731
