18
Coordinates from ORCA-job run
  C   -0.53739715734975     -0.15081564456468      0.35099174878397
  C   0.80174698456026      0.17466540656960     -0.31198188716691
  Br  -0.28227109400060     -1.18391636985649      1.99468754735160
  H   0.64801991761809      0.92710615663464     -1.08673587101928
  C   -1.40046668142018     -0.95525173148614     -0.61753639630025
  H   -2.39682403357466     -1.07782609832578     -0.19061566134102
  H   -1.49871187441652     -0.41097056105236     -1.56369438938886
  H   -0.98487928077732     -1.94176510330765     -0.81186979783794
  C   -1.24767227432715      1.14633640140875      0.73332717299215
  H   -0.68727995852864      1.72313993728855      1.46612496288146
  H   -2.22355419999337      0.90129002826785      1.15489693596798
  H   -1.39748958251650      1.76526809305928     -0.15736371488286
  N   1.49657724374513     -0.96278977125838     -1.00683053656258
  O   2.17572411566142     -0.61958158623967     -1.97307146771547
  O   1.37444345007067     -2.09736541057908     -0.56473530359059
  N   1.81504519963350      0.76925772854699      0.63190558999063
  O   1.63888453685820      1.95313933961264      0.89964857359252
  O   2.70310468875742      0.04007918528193      1.05185249424546
