18
Coordinates from ORCA-job run
  C   -0.62779352623143     -0.20175875207741     -0.00612073394364
  C   0.86126211932974      0.13182785922183     -0.10545508383207
  Br  -0.97913782762953     -2.04817598090977     -0.55476143599426
  H   0.99633655284159      1.21009415063631     -0.00960293289996
  C   -1.41936917787787      0.71051235286438     -0.94123311757881
  H   -1.15169110646034      0.56371230851927     -1.98555946503751
  H   -2.48283466392473      0.49894556193646     -0.82121961971349
  H   -1.24003924292334      1.75829165945038     -0.67889310846488
  C   -1.09575196375012     -0.00896037895454      1.43398380397045
  H   -2.17935510346600     -0.12791147644879      1.47577654970072
  H   -0.85025388890128      1.00524286025389      1.76886591157847
  H   -0.64357651241454     -0.73091128598800      2.11073854252204
  N   1.47620885676194     -0.23551413236462     -1.43150248045267
  O   2.15131493955004     -1.25435091474402     -1.48609727168231
  O   1.22487211015081      0.53793642682289     -2.34956134450187
  N   1.75226934555296     -0.46719524166725      0.94660319701344
  O   1.47113048101651     -1.56211585320845      1.41528786452895
  O   2.73640860837558      0.21833083665744      1.21875072478742
