18
Coordinates from ORCA-job run
  C   -0.57718994616986     -0.12762377008911      0.29241014534284
  C   0.83602886196535      0.14287162583874     -0.22534990291629
  Br  -0.53684558364607     -1.13319090597155      1.97196876233616
  H   0.79105515572744      0.88120393281211     -1.02718212895198
  C   -1.35554698878673     -0.92506030818017     -0.75081164424917
  H   -0.95348100261472     -1.92738500474200     -0.88257517671831
  H   -1.33384031803445     -0.39653690085752     -1.71061099172866
  H   -2.39555069125640     -1.00915470039717     -0.43235975094241
  C   -1.28177260076573      1.19862185823813      0.57152122912020
  H   -0.78569606312093      1.77380931313001      1.35055045315163
  H   -1.31390109202087      1.80238321101523     -0.34131080012146
  H   -2.30508657152210      0.99281100282351      0.88868590887953
  N   1.56736315641499     -1.02982226634961     -0.81652943644393
  O   2.36433303604276     -0.72757908267096     -1.70311345692484
  O   1.35670652347668     -2.15083221033737     -0.37322706437434
  N   1.75827848840944      0.72973616975862      0.81221738882484
  O   2.57018017152923     -0.01589417874353      1.34290562892058
  O   1.59296546437197      1.92464221472262      1.03381083679562
