14

C	-0.508942	0.000989	-1.419077
C	0.0	0.0	0.0
Br	-2.465196	0.05507	-1.569989
H	1.094452	0.0	0.0
H	-0.133763	0.860659	-1.971885
N	0.00948	-1.20763	-2.155851
O	1.065382	-1.016305	-2.754752
O	-0.604324	-2.263244	-2.088884
N	-0.345324	-1.202628	0.727669
H	-1.170253	-1.090117	1.30155
H	0.454052	-1.439991	1.309094
C	-0.407766	1.240881	0.653209
N	-0.730093	2.218348	1.223849
H	2.586521	0.0	0.0
