14

C	-0.537438	-0.067073	-1.423282
C	0.0	0.0	0.0
Br	0.26929	-1.518536	-2.436643
H	1.09368	0.0	0.0
H	-1.61374	-0.230628	-1.476444
N	-0.315109	1.218956	-2.172434
O	-1.323571	1.751923	-2.638256
O	0.827984	1.641075	-2.25408
N	-0.359104	-1.159159	0.795678
H	-1.226632	-1.586195	0.497041
H	0.397594	-1.828562	0.70534
C	-0.504664	1.225774	0.610174
N	-0.898096	2.215531	1.111134
H	2.616953	0.0	0.0
