14

C	-0.475233	0.068966	-1.430774
C	0.0	0.0	0.0
Br	-2.415204	0.268917	-1.642385
H	1.094448	0.0	0.0
H	-0.018501	0.906903	-1.955288
N	-0.020185	-1.168168	-2.162325
O	-0.742619	-2.154148	-2.193332
O	1.108981	-1.075046	-2.637704
N	-0.364567	-1.237059	0.653584
H	-1.216339	-1.163156	1.192594
H	0.410118	-1.499442	1.255462
C	-0.408733	1.209311	0.707728
N	-0.73565	2.161882	1.316457
H	2.59012	0.0	0.0
