14

C	-0.370986	-0.233145	-1.445016
C	0.0	0.0	0.0
Br	-2.284188	-0.607716	-1.755308
H	1.09374	0.0	0.0
H	-0.131467	0.626496	-2.067342
N	0.400855	-1.379939	-2.02844
O	1.108953	-1.116656	-2.997422
O	0.286066	-2.479291	-1.496639
N	-0.362357	-1.00902	0.972459
H	0.425865	-1.648717	1.03569
H	-1.176974	-1.532231	0.673201
C	-0.49176	1.31735	0.380265
N	-0.85827	2.396521	0.671026
H	2.572942	0.0	0.0
