14

C	-0.4576	0.120112	-1.429034
C	0.0	0.0	0.0
Br	-2.351437	-0.31829	-1.708617
H	1.100966	0.0	0.0
H	-0.323946	1.12893	-1.813089
N	0.342898	-0.749335	-2.362698
O	0.858578	-0.159174	-3.312376
O	0.42275	-1.946125	-2.131876
N	-0.351013	-1.24933	0.645147
H	0.477508	-1.57747	1.130591
H	-1.117696	-1.141007	1.295771
C	-0.451237	1.183243	0.719289
N	-0.824031	2.127086	1.312996
H	2.568155	0.0	0.0
