14

C	-0.305525	0.081398	-1.485034
C	0.0	0.0	0.0
Br	0.182947	1.779277	-2.256817
H	1.097187	0.0	0.0
H	0.263647	-0.696187	-1.9954
N	-1.754581	-0.21126	-1.752051
O	-2.582509	0.692986	-1.722184
O	-2.016743	-1.413541	-1.893243
N	-0.293434	-1.293004	0.59644
H	0.558669	-1.844382	0.520901
H	-1.053504	-1.778498	0.136142
C	-0.595874	1.090111	0.754168
N	-1.045976	1.966906	1.396552
H	2.542137	0.0	0.0
