16

C	-0.307538	0.077299	-1.498474
C	0.0	0.0	0.0
Cl	0.007638	-1.804799	-2.102418
H	1.090148	0.0	0.0
N	-1.656543	0.376244	-1.782767
H	-2.258212	-0.352183	-1.417129
H	-1.805865	0.458536	-2.781882
N	0.613604	0.898515	-2.129604
H	1.537416	0.770568	-1.696255
H	0.651442	0.736698	-3.12676
C	-0.603792	-1.118976	0.685794
N	-1.053061	-2.037914	1.26677
N	-0.392934	1.266551	0.670984
O	-1.201043	1.216458	1.605732
O	0.172489	2.287077	0.284842
H	2.526539	0.0	0.0
