16

C	-0.337659	-0.036867	-1.503046
C	0.0	0.0	0.0
Cl	0.040968	1.5765	-2.29576
H	1.092072	0.0	0.0
N	0.501975	-1.070786	-2.003093
H	1.460367	-0.916248	-1.659792
H	0.495712	-1.077323	-3.016195
N	-1.752957	-0.221601	-1.727319
H	-1.952397	-0.133916	-2.717799
H	-1.9828	-1.166339	-1.434414
C	-0.485747	-1.22559	0.607565
N	-0.832241	-2.247142	1.075922
N	-0.523126	1.163082	0.746112
O	-1.459555	0.985816	1.532915
O	0.052738	2.235164	0.570185
H	2.571236	0.0	0.0
