16

C	-0.333987	0.135632	-1.48434
C	0.0	0.0	0.0
Cl	0.093592	-1.676784	-2.183127
H	1.087811	0.0	0.0
N	-1.705541	0.362468	-1.731045
H	-2.252237	-0.414945	-1.377573
H	-1.882888	0.464915	-2.723831
N	0.518096	1.052447	-2.092117
H	1.457633	0.951577	-1.689045
H	0.555611	0.914283	-3.093355
C	-0.598236	-1.15364	0.633152
N	-1.034264	-2.110062	1.162054
N	-0.380487	1.227476	0.743303
O	0.183083	2.266398	0.402643
O	-1.158889	1.125795	1.698812
H	2.514268	0.0	0.0
