16

C	-0.31829	0.002678	-1.514246
C	0.0	0.0	0.0
Cl	0.130977	-1.724686	-2.053247
H	1.090855	0.0	0.0
N	-1.681287	0.297813	-1.757084
H	-2.283349	-0.355301	-1.271061
H	-1.855373	0.25227	-2.754826
N	0.50594	0.861407	-2.305706
H	1.470895	0.652054	-2.045269
H	0.319347	1.798838	-1.963209
C	-0.57888	-1.106105	0.726149
N	-1.047767	-2.018791	1.302862
N	-0.355901	1.259403	0.655804
O	-0.093048	2.309209	0.054564
O	-0.764307	1.220863	1.825422
H	2.450879	0.0	0.0
