16

C	-0.184065	-0.009276	-1.515963
C	0.0	0.0	0.0
Cl	-1.932805	-0.118902	-2.017246
H	1.091606	0.0	0.0
N	0.329088	1.230646	-2.036167
H	1.257609	1.354626	-1.625555
H	0.429681	1.135245	-3.0406
N	0.453016	-1.239867	-1.921448
H	1.421132	-1.172598	-1.585723
H	0.459845	-1.294384	-2.933088
C	-0.544718	-1.173467	0.646147
N	-0.924647	-2.139909	1.196069
N	-0.481936	1.234298	0.660333
O	-1.512034	1.173114	1.337037
O	0.207615	2.24132	0.514837
H	2.584147	0.0	0.0
