13
Coordinates from ORCA-job run
  C   0.64645941077715      0.55847985423222      0.47843477188289
  C   -0.71928703090557     -0.13216877338527      0.18999151681972
  Cl  0.36721861461792      2.13325824388550      1.27307840041161
  H   -1.19221180926582     -0.28745811964987      1.16479406665763
  C   1.42583908641705     -0.30216398135505      1.36910531435542
  N   2.03370547632564     -0.97741091306370      2.11401553148095
  C   1.35657173810886      0.76035880401724     -0.78507364173475
  N   1.88170535458458      0.89395974520276     -1.82816279243198
  N   -0.44598244469984     -1.41110496264506     -0.42204566499768
  H   -0.34029820537589     -1.33137534690709     -1.42617082254124
  H   -1.17395845247289     -2.08230656431612     -0.21855637612980
  C   -1.57300119383917      0.76369775662049     -0.60912338285391
  N   -2.26876054427202      1.41323425736397     -1.29828692091886
