13
Coordinates from ORCA-job run
  C   0.87057471510910      0.07471460737275      0.43555484905004
  C   -0.56156285968102     -0.47800570746669      0.14935589364759
  Cl  1.93516961340041     -1.28785122505097      0.86817564298801
  H   -0.84000401465270     -1.05975024654894      1.03359539177313
  C   1.37531822384246      0.72746971809647     -0.77338759996810
  N   1.72467658508780      1.23396548535311     -1.77471219972596
  C   0.83361518965441      1.02034139225481      1.55211093332838
  N   0.77570450915419      1.76347642834383      2.46108474272956
  N   -0.51798185999910     -1.34806844672955     -0.99916913172894
  H   -1.26836884878659     -2.02492290733636     -0.96932714996871
  H   -0.58351247179236     -0.82361766742774     -1.86334203940807
  C   -1.49086900728174      0.66046374210269      0.02178455816875
  N   -2.25375977405485      1.53978482703659     -0.14172389088569
