13
Coordinates from ORCA-job run
  C   0.83594618347245      0.30986992748016      0.13269455122981
  C   -0.65475966784388     -0.10139660658004     -0.03537686157454
  Cl  1.85416256902946     -0.69332588663868     -0.94402314862674
  H   -1.22052563351850      0.54086099330270      0.64913602913137
  C   1.00927613487537      1.71969717040396     -0.22079055600738
  N   1.11083331421714      2.85663194581627     -0.50157466915771
  C   1.23344641106390      0.08732181470639      1.52358336922748
  N   1.54655644563585     -0.05194145369775      2.64739861763233
  N   -0.81828334941785     -1.47191305016338      0.38253153183376
  H   -0.54092946855091     -2.11442166099431     -0.34882118246340
  H   -1.78048774362915     -1.65792032594983      0.63302799536757
  C   -1.09346040150140      0.19940288099173     -1.41084936963762
  N   -1.48077479383249      0.37713425132277     -2.50593630695493
