13
Coordinates from ORCA-job run
  C   0.89633771493862      0.06103256709335      0.38026655750195
  C   -0.55190406832477     -0.48263670490909      0.16813672822372
  Cl  1.98450625484208     -1.31546738545994      0.69441905272671
  H   -0.77318998788655     -1.09488468806847      1.04792337451594
  C   1.32404909689983      0.75695200125958     -0.83424614546790
  N   1.61438094066847      1.29859932576143     -1.83610933552034
  C   0.93328881041492      0.96587430733836      1.53011006709220
  N   0.93304249696175      1.67410238449130      2.46833242756262
  N   -0.58375553587142     -1.31222941239806     -1.01031337370149
  H   -0.70742431926537     -0.75865630146580     -1.84962086330924
  H   -1.32865162585940     -1.99342850462640     -0.95403117528740
  C   -1.48613325122736      0.65850533118964      0.13986933320336
  N   -2.25554652629079      1.54323707979410      0.05426335245987
