13
Coordinates from ORCA-job run
  C   0.56487505428560      0.59086257699016      0.54029983365857
  C   -0.65759589986153     -0.31200842191593      0.20001877370935
  Cl  0.05341627385804      1.90815905624040      1.63210873760582
  H   -0.99992248722733     -0.73065647816848      1.15166133971466
  C   1.57808107922562     -0.22646571737709      1.20879559928978
  N   2.37299733714291     -0.87505402014109      1.78155513147959
  C   1.10051155583198      1.15406306571391     -0.69962934314413
  N   1.48412353303443      1.57144281345140     -1.72915252714062
  N   -0.19353239414617     -1.37794604843145     -0.65637842774882
  H   -0.75358506736260     -2.21249206975208     -0.54548606707794
  H   -0.19704927954192     -1.10380439738573     -1.63141515699457
  C   -1.74092498156527      0.50860265900818     -0.36860766743053
  N   -2.61239472367375      1.10529698176780     -0.88377022592117
