13
Coordinates from ORCA-job run
  C   0.84030229342797      0.30677129852332      0.11000595009071
  C   -0.65541249613386     -0.10329890187951     -0.01100132206296
  Cl  1.80959865301803     -0.62504762428038     -1.07058997119980
  H   -1.19052979150480      0.49643158607264      0.73412892924383
  C   0.99014364474728      1.73627902776020     -0.16695102282986
  N   1.06997128305736      2.88953532586465     -0.38009582399923
  C   1.30456017730744      0.00630662611147      1.46508603200669
  N   1.67125689289966     -0.19597321118263      2.56282996937540
  N   -0.79498027641262     -1.49598112039516      0.33652175460969
  H   -1.74448474786117     -1.70115573284435      0.61866049138998
  H   -0.54866340181896     -2.09494471115155     -0.44149061482052
  C   -1.15820343644618      0.27168010481806     -1.34580554538440
  N   -1.59355879428015      0.50839733258324     -2.41129882641952
