13
Coordinates from ORCA-job run
  C   0.58144438603485      0.55362951712340      0.56037343928062
  C   -0.61787784025243     -0.37802100009688      0.21514636781372
  Cl  0.10755404133607      1.68571072798108      1.85782631360790
  H   -0.84445036282548     -0.93296570366068      1.13092924599090
  C   1.69743391661817     -0.27254117619315      1.02218782197115
  N   2.57790821838963     -0.93438621542086      1.43082092691372
  C   0.96287773555007      1.30448331893002     -0.63636986576327
  N   1.22515934543023      1.87878944019500     -1.62774169358125
  N   -0.18167887099630     -1.29711203836028     -0.80985298375281
  H   -0.29478837500727     -0.90521962734871     -1.73698027939492
  H   -0.68397017040207     -2.17309128523314     -0.75864683451082
  C   -1.79236150755290      0.43503057756611     -0.14501204616496
  N   -2.73725051632258      1.03569346451810     -0.50168041240998
