13
Coordinates from ORCA-job run
  C   0.69325394690551      0.49921784818801      0.47461221665988
  C   -0.70791828528314     -0.13704453396263      0.23502985563089
  Cl  0.51783867902009      1.99262860972392      1.43823932466062
  H   -1.10582051213035     -0.37647532539013      1.22613140279174
  C   1.52110189337891     -0.45732761765513      1.21015317732838
  N   2.16384258716004     -1.21657856450675      1.83522415236782
  C   1.30490892659481      0.81190289693389     -0.81762692020723
  N   1.77371297029255      1.01891718879671     -1.87540465370807
  N   -0.51657019894369     -1.35609596196323     -0.51489554388519
  H   -1.24590037645651     -2.02852116652938     -0.31978317935840
  H   -0.48599284270342     -1.18148106177280     -1.51211154534203
  C   -1.59752675312204      0.84782009213534     -0.40447110019755
  N   -2.31593003471275      1.58203759600217     -0.97509718674087
