13
Coordinates from ORCA-job run
  C   0.81452006960707      0.21897014471817      0.08087347401719
  C   -0.73950910695316     -0.00404617850417     -0.10211699154369
  Cl  1.70761322393790     -0.92541669090372     -0.95961477953864
  H   -1.21673688308616      0.75468609808357      0.53008810183382
  C   1.17191614310760      1.59048178425194     -0.27180637011583
  N   1.40313789994227      2.70862263433771     -0.55284104757436
  C   1.13617272197910     -0.05238222636915      1.48157029970157
  N   1.31803480884877     -0.29764431106526      2.61668141646006
  N   -1.23330160968986     -1.29323136740310      0.27795055718120
  H   -1.12897293137574     -1.45988568323907      1.27056825323214
  H   -0.80215799857070     -2.03928916776703     -0.25194622866077
  C   -1.07980311286949      0.28779096905718     -1.49952786321435
  N   -1.34891322487760      0.51234399480294     -2.61987882177833
