13
Coordinates from ORCA-job run
  C   0.82050470941735      0.20170056652099      0.06335770473533
  C   -0.74283958867174      0.01205702271470     -0.07382060374831
  Cl  1.65609675729233     -0.90171434386212     -1.06507274696995
  H   -1.18389137010184      0.74264174272757      0.61526830483024
  C   1.18863895611286      1.58365998195684     -0.23316687377959
  N   1.43322822694356      2.70954420247611     -0.46828137533664
  C   1.18624258047407     -0.14473364630209      1.43639074589521
  N   1.40087812159502     -0.44711123764159      2.55191296986532
  N   -1.24430409138213     -1.28819869530813      0.25448489888962
  H   -0.85054443127704     -2.01027196136789     -0.33420880442549
  H   -1.10214712314162     -1.51292533292299      1.23081464869530
  C   -1.12833762368861      0.38410989925216     -1.44001587049498
  N   -1.43352512357221      0.67124180175643     -2.53666299815607
