13
Coordinates from ORCA-job run
  C   0.88948892695766      0.05798619511725      0.40743375802768
  C   -0.39173190035187     -0.62602943247256     -0.15483716887440
  Cl  1.55361777107563     -0.91872345334938      1.74694206794132
  H   -0.07285768769853     -1.60262574309818     -0.53222724483484
  C   1.88004150979980      0.14584420229845     -0.66634409809033
  N   2.68542083075178      0.17687837876801     -1.52122513123028
  C   0.54357176935084      1.39450741659725      0.89307443861291
  N   0.20733845821899      2.45859221932421      1.26227417507044
  N   -0.87631775457102      0.17919881555126     -1.25114986205949
  H   -1.37087486312377     -0.38119580566266     -1.93185244151295
  H   -1.48420720139909      0.92276583926710     -0.93004940056958
  C   -1.36386203145302     -0.83683878263621      0.93145401672697
  N   -2.19862782755739     -0.97135984970454      1.74750689079255
