13
Coordinates from ORCA-job run
  C   0.79299877918897      0.29347904077934      0.02122775039765
  C   -0.74427646979646     -0.07335088762943     -0.01876211899751
  Cl  1.65342189238655     -0.60410124272944     -1.26056989986137
  H   -1.20776396290708      0.53856600661484      0.76472354909728
  C   0.97431251835973      1.72954416384156     -0.17407767868143
  N   1.06912038745035      2.89232644416672     -0.32087223409826
  C   1.30874220410063     -0.11626301711680      1.32702822703051
  N   1.64831279184510     -0.47655212250673      2.39319826821152
  N   -1.06364550796577     -1.44776424140061      0.22469638685603
  H   -0.63348683143693     -2.06550886314555     -0.45111827781476
  H   -0.82065383545887     -1.73067789690075      1.16542233099606
  C   -1.28051482776492      0.36080328425588     -1.31396434402517
  N   -1.69856713800128      0.70049933177097     -2.35693195911056
