13
Coordinates from ORCA-job run
  C   0.80971419937262      0.24252023700964      0.04843923242862
  C   -0.74499985789442     -0.02552586587548     -0.04843762190133
  Cl  1.66104093323980     -0.73560969346562     -1.17942348278275
  H   -1.19889469721048      0.63163841710878      0.70337747466777
  C   1.09210672293163      1.65949415416597     -0.16576464121145
  N   1.26867259589220      2.81041781098176     -0.32978102146673
  C   1.24423140141409     -0.17153106151387      1.38221902581712
  N   1.51417940179352     -0.53019440630292      2.46871460854864
  N   -1.16257247092735     -1.37105839757624      0.20746818702314
  H   -0.97539175162009     -1.64931677612477      1.16216357318907
  H   -0.74809521415486     -2.02932980609642     -0.43918597682545
  C   -1.20072370328276      0.41361024771673     -1.37250039737882
  N   -1.55926755955391      0.75388513997243     -2.43728896010782
