13
Coordinates from ORCA-job run
  C   0.82235586005253      0.11251240343147      0.33660184317510
  C   -0.62658735849872     -0.50015213928204      0.18590163460231
  Cl  1.97431186701621     -1.24701978908514      0.50934745963173
  H   -0.78447080193485     -1.09599156495903      1.09189831782844
  C   1.14802699042042      0.86890760062933     -0.87013285077883
  N   1.35181484994783      1.44244783673373     -1.87595273620642
  C   0.90047468225629      0.95439898174376      1.52710671270185
  N   0.92015598783065      1.60834241940794      2.50417058496273
  N   -0.83860432624363     -1.32723017920912     -0.96381592501684
  H   -0.24109583664930     -2.14274438441133     -0.95614693047214
  H   -0.72603934992135     -0.81597653663927     -1.83069254978808
  C   -1.57832200259826      0.61739412547000      0.18242725732426
  N   -2.32302056167782      1.52511122616968      0.15828718203588
