13
Coordinates from ORCA-job run
  C   0.81468427717089      0.10460924901124      0.35820480497992
  C   -0.64035470183997     -0.48497384381697      0.17774016272550
  Cl  1.93634059652387     -1.27154244499147      0.58955482510821
  H   -0.83518767179065     -1.05995744458808      1.09000409697705
  C   1.18729903052780      0.83120410571861     -0.85322919702810
  N   1.42598104541916      1.38057890087638     -1.86483384246330
  C   0.87502544785776      0.96795743304327      1.53431246565741
  N   0.88179020300650      1.64000831245972      2.49916375818981
  N   -0.83483660082806     -1.33051532293934     -0.96167310736647
  H   -0.68861135145488     -0.83818627852506     -1.83448355157690
  H   -0.25220630355636     -2.15580257782451     -0.92159408912654
  C   -1.57110906576462      0.64893564827666      0.12545661946140
  N   -2.29981490527143      1.56768426329954      0.06237705446202
