13
Coordinates from ORCA-job run
  C   0.63174796715430      0.53514674229842      0.52347355040963
  C   -0.70462953531329     -0.19477708122682      0.19622721818922
  Cl  0.29670900210407      1.98518419672175      1.51057776780261
  H   -1.13491013363875     -0.48620532771713      1.15942669296356
  C   1.49114006386236     -0.37765729484893      1.27825086187255
  N   2.16572332060314     -1.09920091362734      1.91415917580143
  C   1.28079238157688      0.92691143415537     -0.72826515668996
  N   1.75592617180043      1.21309794600720     -1.76450245106915
  N   -0.38597975498836     -1.37773043412555     -0.56810401858769
  H   -1.06954186252520     -2.10815341423645     -0.42154693424631
  H   -0.32216732586072     -1.17797675131399     -1.55915282097013
  C   -1.62946582873388      0.73775603069355     -0.47091329517642
  N   -2.37434446604097      1.42260486721992     -1.06863059029934
