13
Coordinates from ORCA-job run
  C   0.82382935189516      0.07754895636270      0.34375654581766
  C   -0.65614028023550     -0.45641873409748      0.19557963719416
  Cl  1.89426354254166     -1.33801777736374      0.57887883150534
  H   -0.85935610996473     -1.00812225173084      1.12035530764607
  C   1.20430946332592      0.77053795782773     -0.88482015681522
  N   1.44624979973791      1.29443204249314     -1.90903280213293
  C   0.93717291443712      0.95547391258174      1.50501421196663
  N   0.98573105236078      1.64174082325647      2.45864220021488
  N   -0.90221652686020     -1.31209219562383     -0.92631642713338
  H   -0.75000142430141     -0.84017930659973     -1.80936139804408
  H   -0.35188186205707     -2.15901352482763     -0.88098225749805
  C   -1.54133583124418      0.71322397003598      0.13804831267551
  N   -2.23162408963547      1.66088612768550      0.07123799460342
