13
Coordinates from ORCA-job run
  C   0.82974384148865      0.33612217178017      0.10574566962269
  C   -0.65037014352801     -0.13159136519800      0.00373373805009
  Cl  1.79167861201095     -0.44972497080785     -1.18204987471841
  H   -1.18190048882074      0.38052613415922      0.81394528274249
  C   0.90592018943654      1.78894190509942     -0.05612145598856
  N   0.92662590276943      2.95817095803042     -0.17489468415449
  C   1.35937931360428     -0.05247656351532      1.41361441326825
  N   1.78037365329031     -0.32508515309743      2.47612100475396
  N   -0.71575474979666     -1.55296544213760      0.23976222473272
  H   -1.64386834106213     -1.82392108539693      0.53706713633039
  H   -0.47473081087354     -2.07458192664406     -0.59364790961622
  C   -1.22020533183724      0.32465610516930     -1.27778620716914
  N   -1.70689164668183      0.62092923255867     -2.30548933785376
