13
Coordinates from ORCA-job run
  C   0.61924864032211      0.57087925427646      0.49823206507848
  C   -0.67566180004795     -0.25104505154004      0.22796662860793
  Cl  0.23343958273397      1.97600757202309      1.53090439603688
  H   -1.02774183967541     -0.59321660891236      1.20614409837305
  C   1.58337108169207     -0.28649176625510      1.18862173215076
  N   2.34129758985070     -0.96279654246088      1.77898149469934
  C   1.16781202983330      1.03017609068233     -0.77833479560715
  N   1.56384293565139      1.36825609784427     -1.83213358280285
  N   -0.31378278608385     -1.39207286831170     -0.57960405985211
  H   -0.31779083384693     -1.16869722742357     -1.56745700490483
  H   -0.93390590992840     -2.17329924689290     -0.41486179670453
  C   -1.70430817200231      0.62199058217514     -0.36333115256424
  N   -2.53482051849870      1.26030971479527     -0.89612802251074
