13
Coordinates from ORCA-job run
  C   0.68622407565317      0.48677335649422      0.09068325127671
  C   -0.61755650004107     -0.40690106162177      0.11032839705122
  Cl  0.51974536057096      1.75685160063243     -1.15366212543095
  H   -0.45777447866248     -1.13310001130519      0.91675434260155
  C   0.89713818730690      1.10129746496837      1.39878459604072
  N   1.03308547336370      1.56169606921417      2.47223486711586
  C   1.80949399268343     -0.38339721211915     -0.25564446796834
  N   2.65574795707334     -1.14556699049833     -0.54698921745722
  N   -0.90272090721004     -1.11974336859079     -1.09829901706296
  H   -1.03083394124691     -0.49926195068191     -1.88673703481971
  H   -0.19332635434735     -1.81103980639336     -1.30545874699388
  C   -1.74918743935420      0.44913997145293      0.48492804991514
  N   -2.65103542578945      1.14325193844836      0.77307710573186
