13
Coordinates from ORCA-job run
  C   0.71884211708868      0.54272819304690      0.00313155776025
  C   -0.51188809965646     -0.39794983534644      0.14476279441618
  Cl  0.70723867737547      1.29578361792900     -1.62024854739482
  H   -0.44428387718924     -0.82874623558700      1.15028742054003
  C   0.66449302946811      1.59514463766286      1.01899656576279
  N   0.59436409951223      2.42173232649748      1.85181569034663
  C   1.93965389065360     -0.24859508741180      0.16256344381221
  N   2.92292258886956     -0.86994664850416      0.32867529811558
  N   -0.40555275573279     -1.46559958961787     -0.81887767557005
  H   -0.71814044303807     -1.16675457762349     -1.73413016136862
  H   -0.95508128806199     -2.26457945233722     -0.53094579011611
  C   -1.74910512762658      0.40147815212001      0.07223786504140
  N   -2.76346281166253      0.98630449917172     -0.02826846134547
