16

C	0.0	0.0	0.0
C	-0.689627	0.02846	-1.344244
Br	1.941416	0.0	0.0
H	-0.534887	-0.938395	-1.825668
H	-1.780447	0.167793	-1.08044
N	-0.337689	1.28864	0.760649
O	-0.46518	1.21648	1.975686
O	-0.388964	2.314664	0.092692
C	-0.54769	-1.179398	0.761172
H	-1.647656	-1.041879	0.756781
H	-0.276038	-2.101255	0.242703
H	-0.15931	-1.200278	1.777483
N	-0.244582	1.038625	-2.340769
O	0.873853	0.880037	-2.83826
O	-1.034311	1.921947	-2.664984
H	-3.186841	0.0	0.0
