15

C	0.0	0.0	0.0
C	-0.531545	0.069629	-1.423545
Br	1.949401	0.0	0.0
H	-0.197137	0.975358	-1.914574
H	-1.630913	0.013542	-1.27876
N	-0.296207	1.445908	0.622363
O	-0.283728	2.427187	-0.110397
O	-0.481286	1.463925	1.831883
N	-0.570319	-1.005311	0.743267
H	-1.615638	-0.819523	0.585224
H	-0.320997	-0.897497	1.719355
N	-0.051458	-1.060457	-2.251982
O	-0.429108	-2.195483	-1.974361
O	0.681505	-0.78124	-3.208382
F	-2.790921	0.0	0.0
