15

C	0.0	0.0	0.0
C	-0.558283	-0.126213	-1.403782
Br	1.949914	0.0	0.0
H	-0.208565	0.68483	-2.030044
H	-1.662477	-0.133716	-1.215306
N	-0.264586	1.522728	0.417975
O	-0.235519	2.394132	-0.441934
O	-0.427178	1.7105	1.616499
N	-0.557803	-0.879316	0.900212
H	-1.601674	-0.730302	0.747666
H	-0.27071	-0.626712	1.837073
N	-0.154705	-1.385568	-2.066031
O	-0.561575	-2.444113	-1.592726
O	0.524257	-1.292456	-3.096103
F	-2.799578	0.0	0.0
