15

C	0.0	0.0	0.0
C	-0.516657	-0.05194	-1.438464
Br	1.946537	0.0	0.0
H	-0.196671	0.797753	-2.02994
H	-1.6238	-0.095661	-1.267799
N	-0.370539	1.42845	0.506003
O	-0.713031	1.543987	1.669213
O	-0.238727	2.347647	-0.298444
N	-0.531593	-0.915148	0.917824
H	-0.344231	-1.841683	0.549244
H	-1.567328	-0.717589	0.80116
N	-0.053396	-1.258352	-2.157473
O	0.349535	-1.104075	-3.312603
O	-0.124935	-2.355517	-1.598692
F	-2.754618	0.0	0.0
