15

C	0.0	0.0	0.0
C	-0.507115	0.03347	-1.42844
Br	2.016773	0.0	0.0
H	-0.146796	0.912546	-1.947719
H	-1.608542	0.010468	-1.295819
N	-0.246696	1.472815	0.569451
O	-0.228411	2.424523	-0.200943
O	-0.414726	1.541564	1.779762
N	-0.578237	-0.959074	0.779751
H	-1.630998	-0.777767	0.582074
H	-0.357472	-0.79128	1.75448
N	-0.062278	-1.135681	-2.222031
O	0.596389	-0.897353	-3.240896
O	-0.404508	-2.258563	-1.861168
F	-2.784956	0.0	0.0
