16

C	0.0	0.0	0.0
C	-0.512089	-0.133973	-1.426364
F	1.388378	0.0	0.0
H	-1.602403	-0.078127	-1.336424
H	-0.354715	-0.828185	0.617723
C	-0.390822	1.272991	0.636285
N	-0.581113	2.289274	1.191261
C	-0.11962	-1.500821	-1.978082
H	0.967539	-1.626769	-1.997349
H	-0.556003	-2.30014	-1.373
H	-0.495527	-1.617104	-2.998496
C	0.000221	1.00311	-2.303622
H	-0.331549	1.972849	-1.923576
H	1.093268	1.0056	-2.355725
H	-0.390541	0.894188	-3.319339
Cl	-3.598311	0.0	0.0
