17
Coordinates from ORCA-job run
  C   0.80351699758388     -0.26543391762665      0.48017460135807
  C   -0.67488468361382      0.15498214480447      0.53032176611654
  F   1.43698227579287      0.36627345473072      1.54428387052299
  H   -1.05054895834195     -0.10712975662384      1.52093037091501
  C   0.84398766598228     -1.71872653676181      0.73085658236462
  N   0.85893962501664     -2.88017769988983      0.90399352979025
  C   1.56454388815801      0.06778068681895     -0.78801809044313
  H   1.13437309444748     -0.44109523490731     -1.65117085733379
  H   1.54733272548406      1.14272292344609     -0.95947984093652
  H   2.59675004299493     -0.26253954783723     -0.66361882927772
  C   -1.52980955711283     -0.42667157507501     -0.57703985396817
  H   -1.48579805779755     -1.51706166543857     -0.55367930741045
  H   -1.19925833621983     -0.06991894757290     -1.55127772745023
  H   -2.56930476879778     -0.12601374863811     -0.43552306238155
  N   -0.74157499533616      1.65559135765793      0.49800278543784
  O   -0.97942420418144      2.22460303741045      1.55918512510251
  O   -0.55582275405881      2.20281502550263     -0.58794106240627
