17
Coordinates from ORCA-job run
  C   0.74669350031601     -0.27933325762406     -0.30822702499196
  C   -0.53901490184006      0.49421724403442      0.02611578355960
  F   0.40637531979008     -1.40910005727131     -1.03875426329032
  H   -0.25893800025146      1.41635381515102      0.53954408201872
  C   1.63938115228884      0.53922029439696     -1.14963800382097
  N   2.37316003635982      1.16015315902981     -1.82413840810676
  C   1.48331136981503     -0.72720827326799      0.94235477660332
  H   1.72694774679406      0.12592395465256      1.57831544765787
  H   0.86687166420458     -1.43494935450760      1.49636086812801
  H   2.40833687263300     -1.22648049559124      0.65183478724805
  C   -1.54483051684443     -0.32105749828354      0.81452155733509
  H   -2.49324113268477      0.21529837210493      0.86830851611851
  H   -1.18974460604382     -0.47791342265470      1.83368217664720
  H   -1.72005514840005     -1.28183360052305      0.33394964861018
  N   -1.15625259639111      0.95517703480285     -1.26636130177343
  O   -0.84963260625418      2.08324997595253     -1.64891762950467
  O   -1.89936815349157      0.16928210959843     -1.84695101243847
