17
Coordinates from ORCA-job run
  C   0.66445511095454     -0.52103975175501      0.28851675217967
  C   -0.65138930069980      0.27314305291088      0.36216977616835
  F   0.61778796060453     -1.38673478771130      1.38106445419428
  H   -0.68041672946233      0.72273485547913      1.35620323133414
  C   0.73057325257216     -1.35300734754161     -0.92406642147393
  N   0.80756383201263     -2.03199758021071     -1.87898557445813
  C   1.89998940972291      0.34678120321112      0.41878011759277
  H   2.77405179114720     -0.29708425772209      0.52408119734900
  H   2.03189923758818      0.97547784928579     -0.46275083867043
  H   1.81063054928011      0.98100204273645      1.30242702138022
  C   -1.88449704293744     -0.55548653164948      0.07452225854280
  H   -1.91156571895190     -1.40528724027662      0.75812877745371
  H   -2.78460516012741      0.04295158746016      0.22777368164876
  H   -1.87345587524303     -0.92053870030752     -0.95228302448584
  N   -0.55198758138722      1.42542134766725     -0.58738083551631
  O   -0.35697613025529      2.53815383821806     -0.10097313137015
  O   -0.64105760481785      1.16751042020548     -1.78622744186892
