17
Coordinates from ORCA-job run
  C   0.76837871650152     -0.30293240457800      0.51478276217034
  C   -0.68178140309711      0.20856689660232      0.50254192594147
  F   1.40296107916524      0.31414079587149      1.58652183644292
  H   -1.10795531567426     -0.00769433340491      1.48376550325132
  C   0.70998486321024     -1.74963716922087      0.79793982394081
  N   0.64630100175711     -2.90530376624282      0.99662325116707
  C   1.59127407819420     -0.04802705801972     -0.73280270016170
  H   1.16145458000609     -0.55297664170820     -1.59843566561357
  H   2.59677925713532     -0.43589995325966     -0.56359946728129
  H   1.64511876784290      1.02116862381244     -0.93045044352876
  C   -1.53204867019067     -0.34449058691541     -0.62303419228345
  H   -1.14822710252308     -0.02696734145490     -1.59147360130968
  H   -2.55616597616431      0.01960717689922     -0.52311803592377
  H   -1.55343535909514     -1.43505782304239     -0.57857468236414
  N   -0.65394767354211      1.70941749553834      0.43670758559051
  O   -0.39757209062669      2.21910837876074     -0.65314984480992
  O   -0.89211875289924      2.31597771036232      1.47675594477183
