17
Coordinates from ORCA-job run
  C   0.89272910338167     -0.06071408492997      0.38235561767466
  C   -0.57126574612524      0.38403718305194      0.53483657894861
  F   1.67719917459325      0.94425161849811      0.93685342159976
  H   -0.74144423570073      0.57514570070414      1.59596669815179
  C   1.06170268271819     -1.27082201727084      1.20907013808638
  N   1.17776412676379     -2.24854703592711      1.84926197910989
  C   1.38351024732685     -0.31909982001356     -1.02860865269733
  H   0.82954312875395     -1.13388153551457     -1.49561055068000
  H   2.43784135356703     -0.59463777531542     -0.97886554938692
  H   1.27365535682726      0.58142792025545     -1.63015997597028
  C   -1.58436148516342     -0.58547598129375     -0.03919018753356
  H   -1.45998874728561     -0.68576172802468     -1.11632968390580
  H   -2.59420399516710     -0.22108774149713      0.15735624312397
  H   -1.47871381745331     -1.56384343083037      0.43330505997092
  N   -0.72677554006706      1.73212833540422     -0.11041166187627
  O   -0.79966854622791      2.70179291504941      0.63828312326481
  O   -0.77552306074159      1.76408747765412     -1.33911259788063
