17
Coordinates from ORCA-job run
  C   0.76049728968715     -0.33801200632331      0.50378045838871
  C   -0.69683057917983      0.15309777136380      0.50188543300760
  F   1.36025100610004      0.18923337498887      1.64180182739475
  H   -1.14216560052711     -0.15648599142596      1.44899323351361
  C   0.71780781420331     -1.80475816661157      0.65583719250661
  N   0.66698788859767     -2.97429657867574      0.74952819469751
  C   1.60843444226627      0.03894257737130     -0.69505289103273
  H   1.20823577127393     -0.39327287224884     -1.61261898274401
  H   1.64828009628781      1.12209839227941     -0.79580103703132
  H   2.61615070410250     -0.34716813339126     -0.53562845499720
  C   -1.51151717862566     -0.30672980596300     -0.68982338542038
  H   -1.10664768502324      0.09719067902903     -1.61649484695888
  H   -1.52186558256044     -1.39713088851068     -0.74054633948151
  H   -2.54189730815965      0.03788302016088     -0.58622710447182
  N   -0.69023857508833      1.65401428639972      0.57310576462845
  O   -0.96230765178737      2.16026132253883      1.65757233882961
  O   -0.41617485156706      2.26413301901850     -0.45931140082899
