17
Coordinates from ORCA-job run
  C   0.66516197813865     -0.51926781180033      0.28466460676885
  C   -0.64904252000460      0.27766349095263      0.36139189218671
  F   0.61827977978394     -1.38854198495315      1.37385281736942
  H   -0.66664848403843      0.74187643148878      1.34899869859313
  C   0.72558958579438     -1.34519847565949     -0.93253009544210
  N   0.80062748800707     -2.01577834080487     -1.89352143678568
  C   1.90457851416685      0.34294919842179      0.41541264027069
  H   2.04026594271380      0.97328128179559     -0.46427065064562
  H   2.77506518981593     -0.30604222318746      0.51976748259948
  H   1.81827069432417      0.97643483888888      1.29970554918853
  C   -1.88539174061831     -0.55416465908294      0.09915343025332
  H   -2.78315944845850      0.04944409696502      0.24520561554834
  H   -1.90988240912207     -1.38866792814925      0.80133405015281
  H   -1.88319634272946     -0.94105664699204     -0.91957277244245
  N   -0.55690225898877      1.41766606411615     -0.60522279808814
  O   -0.29100120972254      2.52484155911574     -0.13938750690256
  O   -0.72161475906211      1.15656110888496     -1.79498152262474
