15

C	-0.463333	-0.102693	-1.459871
C	0.0	0.0	0.0
F	-0.183232	1.050782	-2.099261
H	1.094211	0.0	0.0
N	0.376756	-1.188502	-2.171093
O	0.47379	-2.246703	-1.559996
O	0.763276	-0.95356	-3.307008
N	-1.84346	-0.376865	-1.59161
H	-2.101931	-0.438971	-2.569482
H	-2.098611	-1.224835	-1.10196
C	-0.505554	-1.101846	0.814751
N	-0.966951	-1.956595	1.475112
C	-0.480924	1.266915	0.551417
N	-0.865127	2.277308	1.009709
Br	3.298528	0.0	0.0
