15

C	-0.505408	0.024617	-1.444626
C	0.0	0.0	0.0
F	0.018641	1.095637	-2.091402
H	1.094356	0.0	0.0
N	0.071864	-1.19001	-2.218529
O	0.832552	-1.95457	-1.643554
O	-0.324944	-1.276453	-3.37962
N	-1.906606	0.070188	-1.548965
H	-2.184301	-0.053967	-2.515363
H	-2.349297	-0.622778	-0.959367
C	-0.517689	-1.175435	0.696212
N	-0.979431	-2.121307	1.218145
C	-0.458508	1.21919	0.669959
N	-0.819363	2.19595	1.212269
Br	3.324555	0.0	0.0
