15

C	-0.512553	-0.018833	-1.441815
C	0.0	0.0	0.0
F	0.127334	0.997634	-2.122546
H	1.093912	0.0	0.0
N	-0.071787	-1.288725	-2.16266
O	-0.540998	-1.424618	-3.291768
O	0.709564	-2.03988	-1.59712
N	-1.907587	0.031572	-1.54055
H	-2.19563	-0.004698	-2.51035
H	-2.277787	0.85251	-1.079945
C	-0.509925	-1.136767	0.76263
N	-0.933208	-2.032816	1.392091
C	-0.460162	1.249945	0.608971
N	-0.870508	2.259671	1.046806
Br	3.339589	0.0	0.0
