15

C	-0.248484	-0.003977	-1.509673
C	0.0	0.0	0.0
F	-0.064221	-1.305955	-1.960809
H	1.098926	0.0	0.0
N	-1.706726	0.260168	-1.886289
O	-1.915542	0.511997	-3.070365
O	-2.554418	0.151796	-1.006304
N	0.55058	0.94936	-2.12086
H	1.518588	0.8622	-1.80722
H	0.464942	0.923369	-3.127499
C	-0.522299	-1.176748	0.680377
N	-0.926874	-2.127637	1.236214
C	-0.45475	1.241492	0.618405
N	-0.800202	2.242558	1.126443
Br	3.317388	0.0	0.0
