15

C	-0.569241	0.366614	-1.397577
C	0.0	0.0	0.0
F	0.17815	1.402232	-1.85877
H	1.106662	0.0	0.0
N	-0.295627	-0.820872	-2.336075
O	-1.216411	-1.222169	-3.045196
O	0.849537	-1.245536	-2.314269
N	-1.935571	0.689819	-1.492941
H	-2.228729	1.278802	-0.724749
H	-2.51535	-0.131663	-1.582338
C	-0.52939	-1.296204	0.413578
N	-0.996808	-2.334517	0.704636
C	-0.452166	1.035949	0.927862
N	-0.873816	1.889801	1.61688
Br	3.314708	0.0	0.0
