15

C	-0.339575	-0.129821	-1.493784
C	0.0	0.0	0.0
F	-1.617941	-0.549966	-1.696297
H	1.093509	0.0	0.0
N	-0.295859	1.273621	-2.155431
O	-1.031137	1.455093	-3.120708
O	0.556007	2.045933	-1.728883
N	0.570034	-1.008786	-2.085565
H	1.529552	-0.827655	-1.780436
H	0.482688	-1.037101	-3.092936
C	-0.449532	-1.214642	0.681448
N	-0.832751	-2.157726	1.266206
C	-0.571822	1.17478	0.644513
N	-1.06895	2.098048	1.172698
Br	3.328291	0.0	0.0
