15

C	0.0	0.0	0.0
C	-0.283723	-0.034019	-1.524255
Br	1.965729	0.0	0.0
H	-0.020872	0.963893	-1.902528
H	-0.267682	-0.958795	0.448851
H	0.440719	-0.720184	-1.973979
C	-0.697307	1.116277	0.725284
H	-0.443105	1.136503	1.788562
H	-1.778536	0.880106	0.592703
H	-0.456756	2.086919	0.280496
C	-1.675227	-0.429839	-2.003643
H	-1.863016	-1.484138	-1.777574
H	-2.488708	0.094152	-1.480161
H	-1.697609	-0.303658	-3.094849
F	-3.377473	0.0	0.0
