15

C	0.0	0.0	0.0
C	-0.556053	-0.038604	-1.412289
Br	1.967832	0.0	0.0
H	-1.63327	-0.198457	-1.203552
H	-0.262648	-0.939325	0.487526
H	-0.131145	-0.897288	-1.945489
C	-0.544804	1.142222	0.827056
H	-0.223174	1.060332	1.869522
H	-1.639604	1.0003	0.729856
H	-0.223047	2.112616	0.439909
C	-0.362863	1.244103	-2.210395
H	0.677451	1.585242	-2.212228
H	-0.992274	2.035886	-1.801426
H	-0.667706	1.093165	-3.250555
F	-2.989325	0.0	0.0
