13

C	0.0	0.0	0.0
C	-0.67676	-0.033488	-1.321283
Br	1.912061	0.0	0.0
H	-0.458648	-0.918607	-1.912296
H	-0.278661	0.91414	0.514226
H	-1.835497	-0.000411	-0.952001
N	-0.648165	-1.087208	0.747842
O	-0.489237	-2.261038	0.346987
O	-1.728371	-0.628517	1.30429
N	-0.450177	1.151198	-2.105321
O	-0.551046	2.252377	-1.538624
O	-0.214919	1.014777	-3.318216
H	-2.742477	0.0	0.0
