13
Coordinates from ORCA-job run
  C   -0.81231894657362      0.42427021146258     -0.10504596555952
  C   0.57341678458440     -0.10404900902530     -0.53703281900488
  H   -0.69082942533459      1.41913451192635      0.34168150811752
  H   0.43658806112778     -1.08187883445341     -1.00649669361950
  H   0.95498910085530      0.57482384262867     -1.30493418883706
  C   -1.41734249101101     -0.44797645914222      0.90944678365705
  N   -1.85986802688988     -1.16044196181585      1.73067270655595
  C   -1.71008414742096      0.55673886193852     -1.25865128368599
  N   -2.39112851442673      0.66635749690662     -2.20831073614345
  C   1.53963426022479     -0.19386574004376      0.63717228991748
  H   1.67463860741403      0.78067533054839      1.11362668442139
  H   2.51806430819019     -0.53623611417070      0.29526318700835
  H   1.18424042926031     -0.89755213675990      1.39260852717266
