15

C	-0.513905	-0.000562	-1.423408
C	0.0	0.0	0.0
Cl	-2.19258	0.505529	-1.591776
H	1.087635	0.0	0.0
H	0.104012	0.698807	-1.988278
N	-0.284146	-1.355269	-2.073229
O	0.608076	-2.034297	-1.581002
O	-0.942514	-1.620647	-3.068546
N	-0.526692	-1.108751	0.833885
O	-1.471706	-1.766178	0.392365
O	0.024368	-1.269577	1.915224
N	-0.39652	1.305375	0.624148
O	-0.025777	2.291222	-0.003325
O	-1.032195	1.302834	1.670951
Cl	3.124347	0.0	0.0
