15

C	-0.423438	0.036841	-1.448829
C	0.0	0.0	0.0
Cl	-2.134747	0.372465	-1.745774
H	1.090579	0.0	0.0
H	0.146655	0.835651	-1.922992
N	-0.015467	-1.226867	-2.173609
O	0.449332	-2.143984	-1.510534
O	-0.157908	-1.20053	-3.389461
N	-0.542875	-1.116993	0.811691
O	-1.566434	-1.673287	0.419408
O	0.073402	-1.37042	1.839684
N	-0.426319	1.289156	0.635248
O	-1.055533	1.249349	1.686446
O	-0.086225	2.298793	0.027624
Cl	3.116853	0.0	0.0
