15

C	-0.461497	-0.005035	-1.442025
C	0.0	0.0	0.0
Cl	0.198118	1.3193	-2.391406
H	1.089696	0.0	0.0
H	-0.130454	-0.935458	-1.897148
N	-1.961083	0.013736	-1.60647
O	-2.412849	-0.650929	-2.53067
O	-2.599457	0.720832	-0.834386
N	-0.432666	-1.262542	0.66922
O	-1.257941	-1.968212	0.08209
O	0.087374	-1.508617	1.747781
N	-0.491288	1.152196	0.8225
O	-1.230457	0.919875	1.771347
O	-0.086924	2.249766	0.464887
Cl	3.120354	0.0	0.0
