15

C	-0.629162	-0.001598	-1.373673
C	0.0	0.0	0.0
Cl	-0.100319	-1.429152	-2.262246
H	1.086111	0.0	0.0
H	-1.714962	-0.00288	-1.322098
N	-0.251367	1.22754	-2.163377
O	0.677128	1.909167	-1.759123
O	-0.932381	1.424493	-3.16428
N	-0.513174	-1.218702	0.721301
O	-1.741624	-1.30414	0.802349
O	0.300213	-2.016491	1.163994
N	-0.519542	1.14384	0.810819
O	-1.314935	1.917562	0.277176
O	-0.119807	1.200328	1.966424
Cl	3.181066	0.0	0.0
