15

C	-0.448442	-0.014629	-1.442565
C	0.0	0.0	0.0
Cl	-2.155511	0.347487	-1.710129
H	1.08758	0.0	0.0
H	0.13077	0.749856	-1.960667
N	-0.076924	-1.319201	-2.119258
O	0.518837	-2.153673	-1.451152
O	-0.359403	-1.398171	-3.308507
N	-0.537794	-1.09175	0.847367
O	-1.51985	-1.7101	0.439979
O	0.04239	-1.270006	1.911529
N	-0.422398	1.311394	0.591961
O	-0.061626	2.296601	-0.041885
O	-1.072685	1.312221	1.63052
Cl	3.118828	0.0	0.0
