15

C	-0.632009	-0.000932	-1.372346
C	0.0	0.0	0.0
Cl	-0.113312	-1.430965	-2.261252
H	1.086182	0.0	0.0
H	-1.718009	0.004094	-1.31789
N	-0.25165	1.22963	-2.160793
O	0.675517	1.91278	-1.752005
O	-0.930385	1.425882	-3.163657
N	-0.514291	-1.218533	0.720974
O	-1.742085	-1.287882	0.825564
O	0.2984	-2.030958	1.137587
N	-0.519364	1.142848	0.814308
O	-0.123174	1.193074	1.970986
O	-1.310904	1.919713	0.282726
Cl	3.179371	0.0	0.0
