15

C	-0.462608	0.000328	-1.437095
C	0.0	0.0	0.0
Cl	0.269074	1.310521	-2.330559
H	1.0895	0.0	0.0
H	-0.141257	-0.943779	-1.8777
N	-1.982776	0.004638	-1.575292
O	-2.503388	0.660268	-2.46178
O	-2.556571	-0.743658	-0.79107
N	-0.409319	-1.26518	0.699143
O	-0.111522	-2.291611	0.101127
O	-0.957731	-1.189018	1.789012
N	-0.492823	1.169294	0.772532
O	-1.437546	1.806673	0.30272
O	0.087422	1.4062	1.824452
Cl	3.123651	0.0	0.0
