15
Coordinates from ORCA-job run
  C   -0.83286211339722     -0.21166727536970     -0.21777221513870
  C   0.66052485101306      0.13996618726286     -0.12312059838446
  Cl  -1.24546568612927     -0.47500244193550     -1.94415722944907
  H   0.82648871634629      1.03831036351764     -0.73015614196656
  H   -1.00227524788434     -1.17124603037952      0.27792430969873
  C   -1.74442329386497      0.85745608211381      0.35395180803729
  H   -1.55585349997364      0.98490638135257      1.42213582143652
  H   -2.78930642556249      0.57612442308249      0.21721525694280
  H   -1.57696956095419      1.81168509389944     -0.15081112477603
  C   1.58938348003429     -0.97943271597329     -0.60339293759960
  H   1.42132463640333     -1.88852562313726     -0.02141944880662
  H   1.40773400185889     -1.19631085110370     -1.65538531676303
  H   2.63286743947277     -0.68399971995703     -0.48321508928842
  C   0.97727523060568      0.47718958825554      1.26813352567211
  N   1.23055747203183      0.71854653837162      2.38906938038503
