15
Coordinates from ORCA-job run
  C   -0.75730655101579      0.19666387346111     -0.70404335984550
  C   0.75864565485715      0.15485066510887     -0.46923189345277
  Cl  -1.14948837185777      1.65841261681553     -1.66450367912304
  H   1.24283652802145      0.29879071447448     -1.44107625705802
  H   -1.01326432570243     -0.65163197774528     -1.34414790978815
  C   -1.58916573926835      0.18126101555692      0.56301792198994
  H   -2.65059045541146      0.21737358712697      0.31474154125117
  H   -1.35307613684236      1.04382141309285      1.18886517307510
  H   -1.40454950639569     -0.73251980070113      1.13262968441236
  C   1.21508972411821     -1.18522369857972      0.12015763757113
  H   2.30475223811552     -1.22400583169350      0.16329059629198
  H   0.86771697825314     -2.00851087616785     -0.50879591172247
  H   0.83336637028285     -1.32856989359089      1.13145124534814
  C   1.17830460331114      1.26077527083843      0.39523160205874
  N   1.51572898953441      2.11851292200322      1.12241360899139
