15
Coordinates from ORCA-job run
  C   -0.71220819209886      0.70563282647228      0.04162438176157
  C   0.64103468680978      0.17202343108187     -0.45517580493293
  Cl  -0.55865553311695      1.33424167505412      1.71175391103774
  H   0.47172630650015     -0.15248057889350     -1.49076876661925
  H   -0.97954916232061      1.57157857273726     -0.56831156958615
  C   -1.81871794305194     -0.33141092215042     -0.01681484549173
  H   -1.63582064173409     -1.14827445707257      0.68171528684536
  H   -1.89736681975850     -0.73899801171356     -1.02903079038975
  H   -2.77352983389417      0.12630170683631      0.24479698835731
  C   1.19821185975391     -1.00906814140782      0.34370096736686
  H   1.35069337974501     -0.73154452685763      1.38661705913410
  H   2.15699309055568     -1.32035403511874     -0.07386296736265
  H   0.51709874427309     -1.85979155680735      0.29896218050717
  C   1.62217991985842      1.25923713552222     -0.51344117360238
  N   2.41791013847908      2.12090688231753     -0.56376485702526
