15
Coordinates from ORCA-job run
  C   -0.68508973785010      0.72084963411858     -0.13486774832448
  C   0.67903982206145      0.07485292873323     -0.42542877820945
  Cl  -0.63083424902579      1.62130725778852      1.41252659962972
  H   0.57441507806718     -0.41694175756634     -1.40192837117805
  H   -0.87218432611862      1.47659259558185     -0.90115462277000
  C   -1.82427490724913     -0.28149384718234     -0.10563411345297
  H   -2.77732407856321      0.23913238398095     -0.00447502381178
  H   -1.84216792471272     -0.85618792199814     -1.03635439916654
  H   -1.72726690523262     -0.96935088090469      0.73464269798600
  C   1.12849210222025     -0.96659458002567      0.60262525644635
  H   0.41727902877062     -1.79211094027646      0.65066097117144
  H   2.10056845471148     -1.37289087556431      0.31895115068148
  H   1.21831502866067     -0.51827061414981      1.59198430472772
  C   1.70421325358900      1.10996082500042     -0.58696945361420
  N   2.53481936067154      1.92914579246422     -0.71757847011522
