15
Coordinates from ORCA-job run
  C   -0.83532869856792     -0.19261456732526     -0.22645504919370
  C   0.66499072217299      0.12314562503635     -0.11718833469636
  Cl  -1.23467620285444     -0.45465945236162     -1.95631686369478
  H   0.85982772340514      1.01152173142090     -0.73015392000075
  H   -1.03395858976030     -1.14524306288127      0.27187423073912
  C   -1.72691565216149      0.90136715674635      0.32970803268585
  H   -1.54808269755400      1.02851576055143      1.39954081128907
  H   -1.52970191497619      1.84897339952591     -0.17678720249298
  H   -2.77666552767526      0.64561046407492      0.18140051721627
  C   1.57131986255967     -1.02298184171291     -0.57747884399396
  H   2.62038838545787     -0.74980632731031     -0.45315494665018
  H   1.39238735395546     -1.24871724412792     -1.62801093536339
  H   1.37839538698459     -1.92058543442375      0.01437020241045
  C   0.97519481308597      0.46407893566959      1.27461481566361
  N   1.22282503592789      0.70939485711759      2.39603748608173
