13
Coordinates from ORCA-job run
  C   1.06776451381127     -0.22429166599268      0.19828556172376
  C   -0.31533650816895      0.25746542717122     -0.25979189723284
  F   1.61222842778341     -1.00566800351390     -0.80235632675030
  H   -0.16371664609807      0.88830286689758     -1.14282438065668
  H   0.97574156237924     -0.84360332689900      1.09600113440909
  C   1.97140059660181      0.90243762575240      0.46893730188025
  N   2.68919004053740      1.80748584198518      0.67685067962306
  C   -0.90008562210238      1.07937198419550      0.80099764752178
  N   -1.37692256363745      1.70617494907340      1.67178427659089
  C   -1.22192099303975     -0.92490825858458     -0.61127411463839
  H   -0.76992414820499     -1.51335889503604     -1.40898249404982
  H   -2.19489347468834     -0.56545127706655     -0.94785572719977
  H   -1.37452518517322     -1.56495726798254      0.26022833877897
