13
Coordinates from ORCA-job run
  C   1.02533024418210      0.55179765315401      0.21711818455295
  C   -0.32828630579188      0.25058102825303     -0.43972941255489
  F   0.84957522047586      0.72167196125737      1.57388923852839
  H   -0.14454554802651      0.10110681444583     -1.51068764395877
  H   1.45143432614393      1.47707324859175     -0.18134075871606
  C   1.96640510946813     -0.55429332062129     -0.01614531794882
  N   2.70638205470213     -1.43988532608247     -0.22947920427820
  C   -1.18769128126964      1.42862368139711     -0.29214462317965
  N   -1.87964273041527      2.36825597480977     -0.16614375698805
  C   -0.99183278052923     -0.99549987387705      0.15334060166053
  H   -1.15288821767418     -0.86545733613645      1.22316906374684
  H   -1.95566053397687     -1.17063031291369     -0.32546051495990
  H   -0.36057955728859     -1.87134419227792     -0.00738585590438
