13
Coordinates from ORCA-job run
  C   1.06947703389770     -0.22021766022396      0.19801760978560
  C   -0.31619560327852      0.24689399547545     -0.26699598501576
  F   1.60289567055162     -1.04252986029816     -0.77515322674905
  H   -0.17042616452512      0.83991900671038     -1.17688693743356
  H   0.98388485032931     -0.80276736680911      1.12057133816750
  C   1.97849834270982      0.91353363458468      0.41569773989387
  N   2.69936340347030      1.82495756041449      0.58088779948215
  C   -0.88954805448030      1.11514557462984      0.76246032359268
  N   -1.36030575159493      1.78224714701539      1.60620411001374
  C   -1.23010559966106     -0.94548559607584     -0.56082526133412
  H   -0.78486374544399     -1.57164268850988     -1.33354121305708
  H   -2.20287051204659     -0.59611248957021     -0.90888987805821
  H   -1.38180386992824     -1.54494125734305      0.33945358071223
