13

C	-0.623272	0.001182	-1.369977
C	0.0	0.0	0.0
Cl	-0.057473	1.350786	-2.380369
H	1.091887	0.0	0.0
H	-1.710568	0.050108	-1.339761
H	-0.326216	0.924033	0.490539
N	-0.35041	-1.280944	-2.11971
O	0.66592	-1.906561	-1.854206
O	-1.190195	-1.592767	-2.966079
N	-0.520125	-1.190628	0.695375
H	-0.872628	-0.928296	1.606809
H	0.279792	-1.795912	0.849478
H	2.976881	0.0	0.0
