13

C	-0.593692	0.097801	-1.391312
C	0.0	0.0	0.0
Cl	-0.045034	1.522513	-2.270196
H	1.094251	0.0	0.0
H	-1.6815	0.141468	-1.340511
H	-0.36069	-0.941817	0.422287
N	-0.30299	-1.167611	-2.175125
O	0.416928	-1.148467	-3.160042
O	-0.868166	-2.162451	-1.719898
N	-0.529908	1.132116	0.781918
H	0.20419	1.834711	0.785863
H	-0.614622	0.826796	1.74434
H	2.958555	0.0	0.0
