15

C	-0.270348	-0.041964	-1.517397
C	0.0	0.0	0.0
Cl	-0.26629	1.761134	-2.088605
H	1.109461	0.0	0.0
N	0.739306	-0.793937	-2.114798
H	1.643148	-0.583181	-1.672367
H	0.754942	-0.725923	-3.120843
C	-1.614298	-0.496294	-1.901139
N	-2.681514	-0.846447	-2.249105
N	-0.360005	-1.256783	0.683238
O	-0.567497	-2.263101	0.00117
O	-0.319883	-1.229257	1.915885
C	-0.549455	1.115344	0.727902
N	-0.961141	2.029613	1.343608
H	2.46992	0.0	0.0
