15

C	-0.251138	0.009063	-1.506992
C	0.0	0.0	0.0
Cl	-2.022803	0.066525	-1.874279
H	1.094316	0.0	0.0
N	0.38201	1.165349	-2.107042
H	-0.019159	1.999855	-1.688525
H	1.365127	1.114584	-1.81906
C	0.300194	-1.177885	-2.178913
N	0.761122	-2.053691	-2.810883
N	-0.455843	-1.161487	0.742526
O	-0.591927	-2.220583	0.120591
O	-0.550532	-1.042625	1.968209
C	-0.446662	1.224207	0.617181
N	-0.723973	2.273205	1.072617
H	2.405202	0.0	0.0
