15

C	-0.450263	-0.031356	-1.456746
C	0.0	0.0	0.0
Cl	0.478572	-1.367759	-2.337183
H	1.109845	0.0	0.0
N	-1.860647	-0.151704	-1.597028
H	-2.144545	-1.007138	-1.131168
H	-2.116803	-0.194089	-2.576984
C	0.000571	1.199325	-2.12437
N	0.31024	2.168109	-2.7126
N	-0.433216	-1.110395	0.794458
O	-0.14077	-1.055495	2.002659
O	-0.932449	-2.114772	0.237958
C	-0.362182	1.241172	0.643439
N	-0.594229	2.283302	1.138577
H	2.3023	0.0	0.0
