15

C	-0.421014	-0.177189	-1.457836
C	0.0	0.0	0.0
Cl	0.289792	-1.634233	-2.225777
H	1.108212	0.0	0.0
N	-1.860128	-0.248839	-1.598757
H	-2.260172	0.585155	-1.17646
H	-2.100274	-0.253509	-2.585716
C	0.161473	0.956201	-2.214839
N	0.531814	1.856385	-2.876074
N	-0.408736	-1.03106	0.93159
O	-0.376006	-0.712871	2.131087
O	-0.603358	-2.178005	0.514464
C	-0.453968	1.287376	0.468775
N	-0.829024	2.361456	0.774551
H	2.349243	0.0	0.0
