15

C	-0.470438	0.202532	-1.420091
C	0.0	0.0	0.0
Cl	-2.374458	0.047588	-1.462872
H	1.110113	0.0	0.0
N	-0.045675	1.461018	-1.882184
H	-0.304951	2.210909	-1.252474
H	-0.364112	1.647928	-2.823233
C	-0.028095	-0.822925	-2.370987
N	0.283493	-1.523782	-3.261973
N	-0.348342	-1.261227	0.593615
O	-0.491402	-2.231264	-0.165971
O	-0.29714	-1.327756	1.831877
C	-0.388161	1.108457	0.835023
N	-0.629444	2.099956	1.42252
H	2.31191	0.0	0.0
