15

C	-0.277473	-0.20549	-1.498425
C	0.0	0.0	0.0
Cl	-0.152007	1.513102	-2.268299
H	1.109367	0.0	0.0
N	0.686801	-1.087082	-1.988836
H	1.605185	-0.846118	-1.595973
H	0.691079	-1.155546	-2.996389
C	-1.646956	-0.613348	-1.836217
N	-2.740708	-0.915667	-2.141767
N	-0.370624	-1.169365	0.822289
O	-0.190817	-1.038145	2.035018
O	-0.738366	-2.205497	0.264399
C	-0.541034	1.190584	0.604216
N	-0.941502	2.169829	1.119942
H	2.468516	0.0	0.0
