17

C	0.0	0.0	0.0
C	-0.378562	-0.411251	-1.466365
Br	1.930699	0.0	0.0
H	0.563989	-0.604399	-1.987163
H	-0.364381	0.982368	0.269472
N	-0.414356	-0.881956	1.139411
O	-0.381326	-2.097645	0.984896
O	-0.643374	-0.310571	2.199262
C	-1.027121	0.808585	-2.12208
H	-1.172771	0.621646	-3.192539
H	-0.390803	1.698047	-2.023612
H	-1.975879	0.948615	-1.603546
C	-1.24423	-1.655548	-1.661104
H	-2.159254	-1.49385	-1.093341
H	-0.731379	-2.562601	-1.341949
H	-1.460073	-1.741298	-2.734308
F	-2.521475	0.0	0.0
