17

C	0.0	0.0	0.0
C	-0.52076	-0.1501	-1.427095
Br	1.926154	0.0	0.0
H	-1.548292	-0.495474	-1.214417
H	-0.369084	0.894805	0.485619
N	-0.423811	-1.123811	0.908346
O	-0.559299	-2.239597	0.421099
O	-0.516258	-0.853739	2.100802
C	0.25805	-1.078596	-2.348739
H	1.196614	-0.637606	-2.698861
H	0.477076	-2.032216	-1.868117
H	-0.361362	-1.283275	-3.228444
C	-0.68697	1.248607	-2.011759
H	0.235187	1.842866	-1.971431
H	-0.998421	1.184523	-3.060009
H	-1.483782	1.732295	-1.445062
F	-2.624481	0.0	0.0
