17

C	0.0	0.0	0.0
C	-0.514243	-0.088916	-1.431235
Br	1.925738	0.0	0.0
H	-1.590872	-0.273481	-1.210157
H	-0.35987	0.892399	0.497186
N	-0.448434	-1.123565	0.895688
O	-0.649407	-2.224603	0.401656
O	-0.502968	-0.862809	2.092588
C	0.112539	-1.150238	-2.322153
H	0.046105	-2.136276	-1.867683
H	-0.43779	-1.176213	-3.26775
H	1.16048	-0.943336	-2.560197
C	-0.411392	1.29403	-2.062774
H	-0.970647	2.014286	-1.461859
H	-0.859154	1.278603	-3.060597
H	0.625538	1.634811	-2.169388
F	-2.64059	0.0	0.0
