11

C	-0.019269	9.2e-05	-0.033035
C	-0.517243	0.001852	-1.474962
Br	1.92858	-0.000853	0.0897
H	-1.625412	0.002221	-1.328208
H	-0.39333	0.88443	0.475802
H	-0.394144	-0.884974	0.473932
C	-0.11927	-1.197548	-2.209674
N	0.189384	-2.170902	-2.78961
C	-0.118231	1.202459	-2.207156
N	0.190759	2.176745	-2.785346
Cl	-3.252416	0.000836	0.10044
