11

C	-0.037886	-0.005454	-0.036767
C	-0.419084	-0.343837	-1.495899
Br	1.932401	0.031732	0.148156
H	0.506775	-0.470582	-2.071645
H	-0.403195	0.969874	0.258679
H	-0.40818	-0.747771	0.658672
C	-1.135168	0.747338	-2.166315
N	-1.536595	1.636846	-2.818885
C	-1.120013	-1.626976	-1.618009
N	-1.508599	-2.7189	-1.804702
Cl	-2.947294	0.055916	0.26217
