14
Coordinates from ORCA-job run
  C   0.71419352972717      0.02711686829893      0.86101775704307
  C   -0.69277620682443      0.00599863349307      0.30201594474040
  Br  0.93862662091693     -1.40750200132041      2.10738868020837
  H   -1.41589544707735      0.00364333451662      1.11685827562796
  H   0.85755999344209      0.97051486295113      1.38937624804257
  N   1.77009965071053      0.02329781858339     -0.23932994344032
  O   2.72757377709031     -0.72007348158406     -0.15101996327375
  O   1.54982463602119      0.86119811945065     -1.10588742931170
  N   -0.98720803274231     -1.19215350478796     -0.54126179049173
  O   -2.15898047470861     -1.55241669659405     -0.54327420428470
  O   -0.05379021829751     -1.68311681446960     -1.16574582703632
  N   -1.00190156939498      1.25423592092748     -0.50513326800349
  O   -0.86486435652438      2.28998601224297      0.12938280969023
  O   -1.38146190233866      1.11827092829186     -1.65538728951058
