14
Coordinates from ORCA-job run
  C   0.84985012108417      0.46668554019605      0.33047595775275
  C   -0.46673762298587      0.16174171320423     -0.35993068786485
  Br  0.76397934759513      0.46648822117189      2.23532875831674
  H   -0.39813848813248      0.36046893091595     -1.42754339515600
  H   1.16905264554723      1.46182427937965      0.01491621425383
  N   1.90742121677009     -0.48553145755838     -0.22200990602594
  O   2.78260655976499     -0.89343658721070      0.51667319550147
  O   1.79391377476496     -0.69249612773343     -1.42686013298513
  N   -1.52640647802651      1.08280093995633      0.18590886357981
  O   -1.34904468275643      2.25818289763398     -0.11221643074287
  O   -2.41712127951778      0.60857692747675      0.87293460470128
  N   -0.92221124175879     -1.25815755963858     -0.22396002704774
  O   -0.28965269397313     -1.99660991715475      0.52182942406929
  O   -1.89851117837558     -1.54253780063901     -0.90654643835264
