14
Coordinates from ORCA-job run
  C   0.64432470697619     -0.18114671101669      0.74009464681725
  C   -0.33656347528438     -0.31045823119859     -0.39737867710286
  Br  1.13093837250916     -1.92483414382871      1.38550843351214
  H   0.03471558529008     -0.88923238891254     -1.23819254210180
  H   0.24201273117091      0.40534522620781      1.56184815283021
  N   1.88457967455405      0.52177986119419      0.25234338841134
  O   2.13602364899486      0.42968150625007     -0.94516061381885
  O   2.53797230568976      1.10454470216073      1.10447823472727
  N   -0.73841042837814      1.04755985131206     -0.91553695388059
  O   -0.43239361549464      2.02184814470932     -0.23693411639111
  O   -1.36640378675530      1.03581057900926     -1.96632280773571
  N   -1.60529898321665     -0.94135855543631      0.09783183199121
  O   -1.99814817809853     -1.93411535450097     -0.50166267015803
  O   -2.13134855795739     -0.38642448594963      1.05808369289954
