14
Coordinates from ORCA-job run
  C   0.79575890557886     -0.35311650464754      0.50931723758222
  C   -0.56568757162498      0.08383409302545      0.00074443593524
  Br  1.72721442401129     -1.51870095986003     -0.67477174601782
  H   -0.90285394641669      0.97412582411267      0.53115116479631
  H   0.67080349257704     -0.86257902455072      1.46455898405273
  N   1.59637237161760      0.91266094551529      0.84391125043326
  O   1.02328309930219      1.63625806610968      1.65103838162992
  O   2.69236430580704      1.08401416404016      0.34480046007040
  N   -1.62781208339465     -0.95606307848915      0.19512883243261
  O   -2.76692636516779     -0.55623260574019     -0.01455371766983
  O   -1.28592566314480     -2.07988096776128      0.54578920360878
  N   -0.49191386361847      0.44964586761758     -1.45826792074668
  O   -1.07802826733013     -0.24560754587560     -2.27206369208553
  O   0.21135116180350      1.43064172650369     -1.66778287402161
