14
Coordinates from ORCA-job run
  C   0.69662663147582      0.01441866901218      0.87572858088878
  C   -0.69877415594021      0.01089389177338      0.28800449189788
  Br  0.88224804699739     -1.43187346453204      2.11469663292980
  H   -1.43890591322138      0.00907097378025      1.08738649853665
  H   0.83814160921261      0.95257794829027      1.41374422262491
  N   1.77456609357137      0.00829489754235     -0.20364423724941
  O   2.72269497195375     -0.74528549066893     -0.10156837126890
  O   1.57995071975887      0.85427818536643     -1.06842846474739
  N   -0.98709077191098     -1.17845963324772     -0.56958548584090
  O   -0.04713493732150     -1.67039410728677     -1.18333986535567
  O   -2.16097922145318     -1.53148894550018     -0.59259787032765
  N   -0.97961973928967      1.26781799824630     -0.51578072036502
  O   -1.34216937590630      1.14346601812339     -1.67285252577335
  O   -0.84255395792659      2.29768305910109      0.12823711405028
