14
Coordinates from ORCA-job run
  C   0.81088751094620      0.07169610133125      0.75431114174934
  C   -0.65681569378123      0.03075901942006      0.35759414543469
  Br  1.17269515312335     -0.99394338692245      2.30410589694128
  H   -1.28752129924482     -0.21131787570107      1.21242810647024
  H   1.08649949950947      1.09992147347889      0.99086342732179
  N   1.71927886157907     -0.29378441656575     -0.41719811240164
  O   1.26663699433337      0.00339427734879     -1.51661180563573
  O   2.81905632153719     -0.75407860070373     -0.16854422791857
  N   -0.94591204801542     -1.04942024406952     -0.67180666845379
  O   -1.63065223189441     -0.76706594399237     -1.63795321278003
  O   -0.46816348309745     -2.13514744497235     -0.37562557993728
  N   -1.16224757975420      1.35000396365800     -0.15855863667678
  O   -2.38192026494602      1.46911975854168     -0.13662867938932
  O   -0.34182174029509      2.17986331914858     -0.53537579472419
