14
Coordinates from ORCA-job run
  C   0.63501683925382     -0.12592915663466      0.75915063143734
  C   -0.30330205333313     -0.33839945545581     -0.40162477324552
  Br  1.22674569759900     -1.82229745624282      1.44142525970985
  H   0.13012287840381     -0.90049935353450     -1.22379899286082
  H   0.17045273180357      0.44094930464528      1.56161410692570
  N   1.83493035024605      0.65762112514982      0.29345065339761
  O   2.12622464256496      0.56583215231191     -0.89502784165695
  O   2.42038748135737      1.29888921779335      1.15298286636024
  N   -0.78486608817625      0.98094954256753     -0.94970633926515
  O   -0.56899333517509      1.98260623693132     -0.27617169741179
  O   -1.37902774309429      0.91230625719869     -2.01792804401631
  N   -1.53742851477301     -1.05104835245037      0.07013343479793
  O   -1.84030279661085     -2.07960739951907     -0.52117069791463
  O   -2.12896009006597     -0.52037266276068      1.00567143374250
