14
Coordinates from ORCA-job run
  C   0.69803822569090      0.13265388530061      0.71641072053478
  C   -0.39786502782491      0.24741540632896     -0.32707066894232
  Br  0.35192743121840     -1.17002980769602      2.06238818598847
  H   -0.02188039811773      0.74278951647076     -1.22204735562554
  H   0.82920875795047      1.10006895364381      1.20063493644091
  N   2.01957047568419     -0.11735869862459     -0.02206845910222
  O   2.27357832781876      0.75421604132399     -0.84630007324891
  O   2.70000681130947     -1.08347411356093      0.26655791708963
  N   -1.57461507516701      1.04998579983980      0.14116011067796
  O   -2.37562225751867      1.33059899874997     -0.74243000854642
  O   -1.63380836241078      1.35988793673988      1.32579362996633
  N   -0.86746076123639     -1.11855727164810     -0.75216574980831
  O   0.00013234464542     -1.76173279409955     -1.33039472051090
  O   -2.00221049204211     -1.46746385276857     -0.46946846491347
