14
Coordinates from ORCA-job run
  C   0.67704525241604     -0.29845397934930      0.67048565596623
  C   -0.34894940950273     -0.24266047657838     -0.43275327023838
  Br  1.21206104688671     -2.11924656136487      0.97319118085643
  H   -0.00835796640522     -0.65953383956599     -1.37607000534885
  H   0.30052611921139      0.12321539694889      1.59865209581593
  N   1.88585180714743      0.50576868847624      0.26871415095972
  O   2.09119605581377      0.62745159969827     -0.93505138412641
  O   2.56150765267565      0.94906791105850      1.18499974887429
  N   -0.78543633836265      1.17771543052864     -0.68774179993161
  O   -0.47425648833007      2.01967556644663      0.14769374247411
  O   -1.44265267411381      1.34338910872986     -1.70723443375305
  N   -1.59019758826962     -0.97221575431140     -0.00612110421087
  O   -2.00415576867351     -1.84308620254465     -0.76081668209212
  O   -2.07518170049337     -0.61108688817245      1.06205210475459
