14
Coordinates from ORCA-job run
  C   0.70763793475182     -0.01302380771751      0.86737810356765
  C   -0.69488963052256      0.01166614617484      0.29696049444053
  Br  0.89217738693233     -1.48775861298093      2.07253142598217
  H   -1.42507842630878     -0.00050365924962      1.10531783776696
  H   0.86546911811600      0.91175745885367      1.42370851829814
  N   1.77218162696630     -0.00716588243959     -0.22493826110503
  O   2.70880100362267     -0.77860311278294     -0.15635203533978
  O   1.57968202444216      0.86503403635890     -1.06395750453427
  N   -1.00676664119043     -1.15416957447263     -0.58424143932422
  O   -0.07877899347010     -1.64521676457312     -1.21679330889729
  O   -2.18568075216324     -1.49001784542225     -0.60553585036302
  N   -0.97154841749047      1.28951431680767     -0.47471968394602
  O   -1.34128834477696      1.19603723021611     -1.63240998682874
  O   -0.82191788890876      2.30245007122739      0.19305169028291
