14
Coordinates from ORCA-job run
  C   0.61021416755596     -0.14028053201204      0.77677697001436
  C   -0.32081594924551     -0.33134218498092     -0.39347263148082
  Br  1.06035729688945     -1.84507271422439      1.54077689036858
  H   0.08400671769736     -0.95803223965745     -1.18289123772091
  H   0.17575504023296      0.49357005560994      1.54528959174821
  N   1.87408851993529      0.53100990960007      0.30429233062872
  O   2.17801113700630      0.36808448002351     -0.87329437526910
  O   2.49100776416552      1.16233551312588      1.14895548678502
  N   -0.69303896401412      0.99575404884988     -1.00444019988206
  O   -1.27469044124007      0.92618469513506     -2.07942166682362
  O   -0.41176670606016      2.00636230373498     -0.36955295047345
  N   -1.61298240491714     -0.93043763882099      0.08077154194034
  O   -1.98240120812888     -1.95614269894423     -0.47670277241944
  O   -2.17874496987695     -0.31999299743930      0.98291302258419
