14
Coordinates from ORCA-job run
  C   0.70064832578607     -0.17120178668150      0.68943559876473
  C   -0.33765981731522     -0.31401466050064     -0.39422590813863
  Br  1.35233400225934     -1.90480762179593      1.20271818931093
  H   0.02010567571444     -0.82024624306219     -1.28609694620200
  H   0.30897260813446      0.33808196717419      1.56599357407350
  N   1.85321853346616      0.64960996234462      0.17157171761829
  O   2.03331754134742      0.64282723262133     -1.04222708262111
  O   2.51660106148849      1.23146830309397      1.01654986969923
  N   -0.86638148059602      1.03488396578135     -0.81108858794125
  O   -0.59842499836419      1.99080241259022     -0.09141093404021
  O   -1.54779530628074      1.03277178178009     -1.82816494897903
  N   -1.52501181224381     -1.06216968457565      0.13941277446855
  O   -1.88130163273914     -2.05073514961930     -0.48912974576213
  O   -2.02862270065725     -0.59727047915055      1.15766242974914
