14
Coordinates from ORCA-job run
  C   0.76625663652903      0.48939163587662      0.47225489564882
  C   -0.39086036875326      0.14464032097438     -0.44725056209592
  Br  0.31783902341732      0.53904595462039      2.32494691373784
  H   -0.12180509286442      0.31467584447018     -1.48774897440507
  H   1.12908870203343      1.48074188417678      0.19406246847894
  N   1.91998006214345     -0.46041532322039      0.16036214138594
  O   2.03889606956846     -0.70593214264381     -1.03667363252949
  O   2.64421315421488     -0.83055390409316      1.06398661038689
  N   -1.54497667113496      1.06339953372433     -0.14144794204760
  O   -1.32613849393357      2.23267105510734     -0.43605980711945
  O   -2.54514424006207      0.59435730471607      0.37800941638783
  N   -0.84932238728757     -1.27799619065825     -0.35764040654687
  O   -0.36321614098253     -1.98563401711838      0.51672221299644
  O   -1.67481025288818     -1.59639195593210     -1.20452333427829
