14
Coordinates from ORCA-job run
  C   0.86074502916910     -0.38148231185243      0.36266718251857
  C   -0.56300804066130      0.05964424166718      0.07768827881166
  Br  1.67158473072252     -1.34960436452209     -1.06329986121451
  H   -0.85594021960497      0.86157401738352      0.75504331001828
  H   0.86531111201309     -1.01159288238472      1.25181445489108
  N   1.66325329487480      0.86405145394821      0.76284912762655
  O   2.68610961660857      1.14146952306598      0.16583996808481
  O   1.17367773792609      1.45579695029646      1.71872531330584
  N   -1.56682938693344     -1.03881315934685      0.25827164082182
  O   -1.15613287529336     -2.18280393779110      0.41822929999091
  O   -2.73283005618484     -0.66285559122554      0.23721073902610
  N   -0.67615886340199      0.60900036660587     -1.31987896251741
  O   -1.33859265275743     -0.00206931756836     -2.14274230621116
  O   -0.02918942647686      1.63668501172386     -1.48141818515255
