14
Coordinates from ORCA-job run
  C   0.60065551677070     -0.10819163202019      0.78945293932059
  C   -0.29250988895354     -0.34783676528304     -0.40120268658307
  Br  1.13253982310942     -1.78837344231227      1.55621359040984
  H   0.16539864530545     -0.94590248878971     -1.18381738599082
  H   0.11353054545157      0.49485169062976      1.55111509600460
  N   1.83309420068546      0.63729366747284      0.34702237187032
  O   2.39350208847944      1.30002523357672      1.20696455016137
  O   2.17227964226185      0.49644101649272     -0.82376537781571
  N   -0.72784283205478      0.95823432107057     -1.01635614726784
  O   -1.28142853852903      0.85969527085520     -2.10377667903365
  O   -0.51912746227691      1.98058701481486     -0.37229943502082
  N   -1.55761942951961     -1.02243202467502      0.04288360309436
  O   -1.85655608963322     -2.06406041776890     -0.52717146236059
  O   -2.17591622109680     -0.45033144406355      0.93573702321141
