14
Coordinates from ORCA-job run
  C   0.55305549962721      0.13870826851662      0.95282643961601
  C   -0.74854695592451      0.00000436680954      0.18233893152078
  Br  0.69949592754331     -1.13968117112803      2.38130348633807
  H   -1.59138112426612     -0.05570862405506      0.87084644098448
  H   0.59542460920549      1.13140658985624      1.39805227040227
  N   1.78138616362931      0.03313575984758      0.08442511942539
  O   2.67528394550525      0.82911866255359      0.33272228185176
  O   1.78420513783403     -0.85576767887972     -0.75705446507556
  N   -0.85453643290497     -1.22140835959127     -0.71148659922628
  O   -0.98433052969169     -2.27533924461352     -0.10872023842414
  O   -0.82903779115340     -1.03992035802061     -1.91811223539353
  N   -0.96991332282825      1.20005403486772     -0.68760401411533
  O   0.02711806526381      1.81631433614545     -1.05193227799297
  O   -2.13822319183947      1.43908341769146     -0.96660513991095
