14
Coordinates from ORCA-job run
  C   0.68533598079763      0.12681751059261      0.86415998184702
  C   -0.71506884355492      0.05928639820786      0.28021882787373
  Br  0.93800941248864     -1.11468561077924      2.31015698202260
  H   -1.45842703340428      0.08525992790821      1.07665678467210
  H   0.85460354050944      1.12695325735887      1.25975332937360
  N   1.77457153238297     -0.09288430042238     -0.15548609221218
  O   1.60150598267593     -1.00125794576475     -0.95742065568948
  O   2.74735901686347      0.64076135786660     -0.05685817628945
  N   -1.02379971347475     -1.17751052999025     -0.54245694622916
  O   -1.13965856626179     -2.20097773947833      0.11322504483379
  O   -1.15167643166751     -1.03447964335204     -1.74771632422304
  N   -0.97121397011490      1.24574666863453     -0.59876393671191
  O   0.00653891402093      1.78029701671569     -1.11342857983760
  O   -2.14807982126087      1.55767363250262     -0.73104023943002
