14
Coordinates from ORCA-job run
  C   0.70768630391045     -0.13736997478644      0.68971005499679
  C   -0.37005552107490     -0.33301120126608     -0.34617019584236
  Br  1.25537371020391     -1.83972190300073      1.39373174600822
  H   -0.07331023552578     -0.96332439113102     -1.17951621778336
  H   0.37856422909428      0.49918544744446      1.50677221013254
  N   1.89748891386514      0.53156371819947      0.05156992129211
  O   2.62108732977039      1.16568793838724      0.80457519839374
  O   2.04299183589882      0.36378317406045     -1.15524246565713
  N   -0.81995499617335      0.99160207947615     -0.90828831620478
  O   -0.45817359152114      2.00459513886540     -0.31966446333773
  O   -1.53807672428051      0.91777524111471     -1.89702352201669
  N   -1.58805128921054     -0.92926402426292      0.29767394544288
  O   -2.02865977797103     -1.95676635838652     -0.20163443754183
  O   -2.02891018698573     -0.31473488471415      1.26450654211760
