14
Coordinates from ORCA-job run
  C   0.77595634584227     -0.40264980692937      0.53459106762209
  C   -0.58079641156335      0.14172695684617      0.12689692079935
  Br  1.30033339200805     -1.99061870851567     -0.38121198189418
  H   -0.90227786432102      0.92710373620927      0.80791191597338
  H   0.73541688146560     -0.63440859459339      1.60063497876339
  N   1.79681563856848      0.72574728527603      0.41013738792307
  O   2.93075685329783      0.46399925421084      0.05860544481370
  O   1.35975298789440      1.81847712544703      0.75972575579596
  N   -1.59850222045336     -0.96456500314791      0.22803430022107
  O   -2.08697977118501     -1.40637643124387     -0.79972978963199
  O   -1.80656610154225     -1.32942313349700      1.37926717181782
  N   -0.62238706485430      0.73271627309291     -1.24812324281793
  O   0.36823105189437      0.60819614605222     -1.95853621863367
  O   -1.66875371705172      1.30907490079272     -1.51820371075206
