14
Coordinates from ORCA-job run
  C   0.69279846328705      0.00683401824442      0.87883319640751
  C   -0.70015366954464      0.00812666921083      0.28507854940379
  Br  0.87313959566836     -1.44996206822520      2.10616637505349
  H   -1.44315178074379      0.00065991247550      1.08178577116586
  H   0.83136561362943      0.94025777769704      1.42584398083698
  N   1.77568975158129      0.01073994677971     -0.19542920412018
  O   2.72263635577163     -0.74477715729720     -0.09704444617442
  O   1.58557291118494      0.86593606001920     -1.05216536795504
  N   -0.98459494908931     -1.17414499876652     -0.58352145773270
  O   -0.04151705160986     -1.65959196199539     -1.19779504722724
  O   -2.15793983386594     -1.52806321323510     -0.61460867301451
  N   -0.97743852059044      1.27101124737519     -0.51016556962809
  O   -1.32850503896345      1.15629895939581     -1.67178820184297
  O   -0.84790184671528      2.29567480832172      0.14381009482750
