14
Coordinates from ORCA-job run
  C   0.70743727692071      0.12436548479328      0.84720164023515
  C   -0.70653603270584      0.08636976883677      0.29392995736601
  Br  0.95367819787214     -1.09653257929198      2.31158974370181
  H   -1.43122563716020      0.15112146412447      1.10519498337590
  H   0.91423037997540      1.12663909162702      1.21882620397247
  N   1.76727605154235     -0.14786312741505     -0.19027499070443
  O   2.75771280800002      0.56668179085448     -0.13590624732597
  O   1.55548524605915     -1.07447853487704     -0.96155137285779
  N   -1.06876026701110     -1.15741006268828     -0.49500626574158
  O   -1.20769669660446     -1.03873293913537     -1.70174518577664
  O   -1.21041548834929     -2.16084968959000      0.18647662427622
  N   -0.94749541709858      1.26063110031435     -0.60559778670783
  O   0.03408701074689      1.75661977881897     -1.15067965744970
  O   -2.11777743218720      1.60243845362839     -0.72145764636362
