14
Coordinates from ORCA-job run
  C   0.68343848756705      0.12281311046935      0.73165216978370
  C   -0.38465205890095      0.25334520658178     -0.33871290593109
  Br  0.27727327728060     -1.16279408828084      2.07739321091020
  H   0.02326618035351      0.73425377836042     -1.22753237705406
  H   0.82285083967335      1.09058433545557      1.21286815481262
  N   2.01681994535014     -0.15962985828401      0.02738233180005
  O   2.67159680137812     -1.13553812671866      0.34141251024352
  O   2.30777386123369      0.69933202762337     -0.79793898410779
  N   -1.55490683753001      1.08359695489218      0.09590913269660
  O   -2.32888145466620      1.37370733169717     -0.80853934146735
  O   -1.63551412425039      1.40380232247603      1.27650986449653
  N   -0.87288316724900     -1.10555632777300     -0.76584133063065
  O   -2.02076072637332     -1.42931618276706     -0.50742341337516
  O   -0.00542102386658     -1.77060048373232     -1.31913902217711
