14
Coordinates from ORCA-job run
  C   0.77991202233408     -0.26881885292295      0.58027649519640
  C   -0.56738410885615      0.06277676553944     -0.03471476688391
  Br  1.80479376577150     -1.51755093165312     -0.42897976287465
  H   -0.95840773495962      0.99046113586246      0.38261898853317
  H   0.62299187032391     -0.67956298537196      1.57740666102347
  N   1.52294398182142      1.05289514908073      0.81526726928728
  O   2.63728616701375      1.21010116322471      0.35352827841144
  O   0.88785925018523      1.83588080732308      1.51315714696664
  N   -1.60496193869697     -0.98925881904908      0.21930298732605
  O   -1.24659265365112     -2.05545087360647      0.70671466933849
  O   -2.74357176886873     -0.65657023617782     -0.08757659785366
  N   -0.43175310391498      0.27750335109044     -1.51895754383956
  O   0.25000045276526      1.25661229434806     -1.79736579066528
  O   -0.95411620126758     -0.51901796768753     -2.28167803396587
