14
Coordinates from ORCA-job run
  C   0.68827599207506     -0.27471292608890      0.69900292058887
  C   -0.38182634358182     -0.30463920605147     -0.36384116505836
  Br  1.18722913753196     -2.06202508297285      1.18105742241038
  H   -0.10540210241911     -0.87267228717547     -1.24819582187967
  H   0.36668349552287      0.26582026011120      1.58510578711360
  N   1.88035459121476      0.45139838767998      0.12782631867862
  O   2.29655136711456      1.39934052845123      0.78549268000771
  O   2.31232519171140      0.04025478516235     -0.94328747943898
  N   -0.69363412737411      1.10605280324883     -0.80349193825837
  O   -0.56573184958147      1.34311170099468     -1.99909713603857
  O   -1.03894152782259      1.87800556673141      0.08581837842716
  N   -1.66481148250038     -0.86544881378633      0.17766039085971
  O   -1.89671845766564     -0.69345174847473      1.36866684172842
  O   -2.38535388422549     -1.41103396782993     -0.65271719914053
