14
Coordinates from ORCA-job run
  C   0.75546190978758     -0.17549534973728      0.62779033513902
  C   -0.39390404801046     -0.31327041196129     -0.33815940365330
  Br  1.35109557392614     -1.91459904714161      1.18801377863049
  H   -0.15794865465043     -0.89153587596031     -1.22684680204838
  H   0.48558019292717      0.41018451395149      1.50259310748333
  N   1.89667479212356      0.53502632945362     -0.05273721401252
  O   1.95458962697962      0.44123275745614     -1.27486250515591
  O   2.67321336871122      1.12498073151077      0.68321869504176
  N   -0.88267307513524      1.04060169947762     -0.78643914516250
  O   -0.47900710318981      2.01831386191736     -0.16616699677829
  O   -1.67028549308908      1.02286861989776     -1.72347633112800
  N   -1.56272159276611     -0.95187730914894      0.35437070337780
  O   -2.03830447621506     -1.94947763334990     -0.17268829422396
  O   -1.93277102139910     -0.39795288636544      1.38539007249044
