14
Coordinates from ORCA-job run
  C   0.70297438446100      0.01013174017783      0.87138037380816
  C   -0.69651476552984      0.01498865280136      0.29330020219358
  Br  0.88865365706895     -1.43408158506051      2.11229116715031
  H   -1.43121608723391      0.01736114512337      1.09767331708983
  H   0.85406642065291      0.94893459138056      1.40573459728441
  N   1.77298048095569     -0.00494476014350     -0.21564435046307
  O   2.71225695063678     -0.77071717688545     -0.12508913679613
  O   1.58121277542197      0.84682714876125     -1.07548425232868
  N   -0.99847363059451     -1.17188293547783     -0.56352400485874
  O   -2.17585634334567     -1.51260219105057     -0.58415304785127
  O   -0.06457597156190     -1.67381451526407     -1.17835264937310
  N   -0.97488072962932      1.27393121272318     -0.50847541508935
  O   -0.83374937605500      2.30232940916809      0.13697206752562
  O   -1.33787776524715      1.15253926374628     -1.66562886829157
