14
Coordinates from ORCA-job run
  C   0.70312515373606      0.14648689009359      0.70846504895909
  C   -0.38528161136242      0.24428613327951     -0.34464178149893
  Br  0.29193011033749     -1.04356238717595      2.13785884026790
  H   0.01564310630197      0.65994449011917     -1.26883603180372
  H   0.88162729500521      1.13664055868060      1.12707450221347
  N   2.01065471548945     -0.21773016940222     -0.00652581513916
  O   2.64164498916466     -1.19554324092597      0.34761445486112
  O   2.30837472572486      0.58405994586030     -0.88526191918382
  N   -1.52210458270142      1.13184672728489      0.06441615926489
  O   -2.31408823249249      1.38152072796532     -0.83649750153945
  O   -1.56047803054008      1.53335635056653      1.22210039804467
  N   -0.91952762707561     -1.12257053638097     -0.67993039253284
  O   -0.08542802546753     -1.84012317771134     -1.21903159054909
  O   -2.06609198612015     -1.40161231225345     -0.36880437136414
