14
Coordinates from ORCA-job run
  C   0.77462415453831     -0.35506474875736      0.61192949253367
  C   -0.58868110690309      0.07951480344673      0.09731711126817
  Br  1.50491018958558     -1.92591892581225     -0.17999152954675
  H   -1.01095356523898      0.83877055224476      0.75401783592355
  H   0.67795077494322     -0.53825208059604      1.68159926585841
  N   1.68653587378608      0.86448001476377      0.49053303368964
  O   1.23349213767330      1.85043089554434      1.06717378548154
  O   2.73575555727318      0.78311788677890     -0.12189121368674
  N   -1.54090556447432     -1.08755498606142      0.11446054642347
  O   -1.63057299925652     -1.63461189118359      1.20573958184146
  O   -2.14432399043517     -1.35580252112010     -0.91299998331688
  N   -0.56260031956364      0.67922330785213     -1.27240901458351
  O   0.15198545015282      0.14405284861695     -2.11133996681889
  O   -1.28921659208077      1.65761484428318     -1.42413894506715
