17
Coordinates from ORCA-job run
  C   0.68897642189665     -0.38145461836195     -0.25286781774084
  C   -0.64096468021891      0.20307634727560      0.24150585911553
  Cl  0.53553839437225     -0.99258563248255     -1.92855968004299
  H   -0.40502846669740      0.55331369406545      1.26900484476903
  N   1.68100585531181      0.67375352295025     -0.29340583686900
  H   2.56656617533798      0.30465386561077     -0.62072412315028
  H   1.81067714057488      1.04452912242407      0.64252371202910
  N   0.99446853831734     -1.55079070785907      0.56903257915470
  H   1.75276400888834     -2.08074571860626      0.15456803320004
  H   1.29645809478873     -1.22827271248533      1.48343047080739
  N   -1.65689658191712     -0.83412007502469      0.22087852324253
  H   -2.48210824778785     -0.51495232538026      0.71224057174103
  H   -1.29725412756395     -1.66451042788825      0.67507120425929
  C   -1.11325545979636      1.39882391534532     -0.56750538954055
  H   -2.02717259738587      1.80384115331722     -0.12307662197223
  H   -1.34306087120183      1.07890044201173     -1.58402961140343
  H   -0.35971359691871      2.18454015508794     -0.59908671759931
