17
Coordinates from ORCA-job run
  C   0.78092490798168     -0.31475972272096     -0.17125966121620
  C   -0.54596028654366      0.21204892820695      0.39381645973946
  Cl  0.43043811242031     -0.94607249895730     -1.88966361481237
  H   -0.26539374562446      0.60158312949378      1.38074054601415
  N   1.72829499776236      0.76454006350675     -0.35367223609624
  H   2.24393439052428      0.85487707835739      0.51538307985493
  H   2.38357063024311      0.54319641576331     -1.09227167549078
  N   1.26255927530403     -1.33686396886134      0.67889135342073
  H   2.04250155851126     -1.83382172146098      0.26839590982103
  H   0.50571355754012     -1.96957788758729      0.91312737078434
  N   -1.43269196111982     -0.92905502519328      0.62855831877191
  H   -1.87991041268591     -1.18548515126532     -0.24525625248246
  H   -2.16335690726650     -0.66585631865254      1.27810762909093
  C   -1.15428054056852      1.34146394067277     -0.42513869251698
  H   -0.42069675204303      2.12542376158369     -0.61064388427497
  H   -1.51507848356687      0.97007145285908     -1.38637597091307
  H   -2.00356834086838      1.76728752425528      0.11626132030558
