17
Coordinates from ORCA-job run
  C   0.81055697037623     -0.37335110117264     -0.25240744351006
  C   -0.52658115176362      0.15866287540540      0.29718758935221
  Cl  0.49681375071875     -1.04471110761365     -1.91209805202623
  H   -0.27589499941230      0.51920637008385      1.30634015571069
  N   1.74229206051488      0.70909282366791     -0.40104686919727
  H   2.64501085035374      0.32425403026654     -0.65712899521895
  H   1.83622358475702      1.19969022650159      0.48243976270902
  N   1.35973452731817     -1.47048260003381      0.51147196398560
  H   1.67096255640527     -1.10102003303215      1.40473131694020
  H   0.61048209094117     -2.13101546218860      0.69625212147438
  N   -1.43077758186554     -0.97464715056982      0.48409404016255
  H   -2.19605621978406     -0.70160870546317      1.08847524349936
  H   -1.83038375341257     -1.23023848196368     -0.41256535965354
  C   -1.11149146814627      1.31495543213871     -0.50614043721441
  H   -2.00015582648566      1.70237166448847      0.00049759619449
  H   -0.39313536468857      2.12579150385171     -0.63012146965056
  H   -1.40560002582666      0.97204971563335     -1.49998116355747
