17
Coordinates from ORCA-job run
  C   0.85462529282850     -0.16637582770979      0.07651666901056
  C   -0.54834698007518      0.42845855508100      0.26635100571211
  Cl  1.93626179513834      1.25834414907504     -0.60127351977495
  H   -0.42879927070204      1.19402897982191      1.05028310336052
  N   1.38165279935103     -0.55810889794873      1.34331434671000
  H   1.72887931726827      0.23721628639360      1.86315271914040
  H   2.11927378010580     -1.24120977346445      1.23017163478294
  N   0.87288778050355     -1.26705275928541     -0.80699281148624
  H   1.76852871045135     -1.37493424021307     -1.26210275840281
  H   0.13197236391144     -1.22524728952030     -1.48962250089805
  N   -1.41129812689695     -0.68191924515702      0.66303159374808
  H   -2.30123662752724     -0.31487997876946      0.97998396000192
  H   -0.97507529450378     -1.16783942510640      1.43876723130381
  C   -1.15185905046462      1.09588997641320     -0.96031558455277
  H   -2.16017339888987      1.44152032481583     -0.71582228852641
  H   -1.24922605849933      0.38878584140323     -1.78701773633923
  H   -0.56906703199925      1.95432332417084     -1.28842506378988
