17
Coordinates from ORCA-job run
  C   0.93111884822268      0.07559191611531     -0.07601579209251
  C   -0.47543412878621      0.47141178642009      0.39929871725758
  Cl  1.76710219957619      1.50297724861614     -0.78202146444304
  H   -0.32475363882794      1.14427058254515      1.24845380327304
  N   1.68694227840689     -0.32172799096822      1.08612823138750
  H   2.58274223858125     -0.70693795529816      0.80966921274852
  H   1.14172969140613     -1.03647318954739      1.55772860268479
  N   0.79918671361780     -0.89525153676780     -1.15708208382118
  H   1.68263733859477     -0.99130847502305     -1.64465363705101
  H   0.57795815825662     -1.78868485100637     -0.72968143065234
  N   -1.07879431836774     -0.77381435153237      0.90719255375453
  H   -1.70386702923064     -0.56463689948102      1.67511487285279
  H   -1.63929585431079     -1.19213896796165      0.17263758555504
  C   -1.32352590426425      1.14680541101712     -0.66758984743716
  H   -0.91672105475763      2.11322005925364     -0.96489543180480
  H   -1.37449415556590      0.50969426507817     -1.55278567024426
  H   -2.33353138255122      1.30600294854041     -0.28049822196748
