17
Coordinates from ORCA-job run
  C   0.71638498154376     -0.39510095156278     -0.07691874373172
  C   -0.67179731074903      0.17875359739348      0.23346921649335
  Cl  0.71737925898815     -1.09647917747238     -1.77067594915775
  H   -0.57572890074060      0.48731335710632      1.28986619175644
  N   1.71630660266944      0.61709353407179      0.07306436990260
  H   1.58331523341159      1.36712845945486     -0.59420037265769
  H   2.63345246847334      0.21642011523899     -0.08736681149573
  N   0.95798539164823     -1.51976286638561      0.80607648090096
  H   1.27006225549008     -1.14926020500649      1.69786681897708
  H   1.68078516358305     -2.12096469324351      0.43035131356547
  N   -1.67312854917114     -0.85488028508056      0.03030745529231
  H   -2.54476539128006     -0.56416053932127      0.45602498450464
  H   -1.35705579346326     -1.69952303384632      0.49355328449784
  C   -1.03032418191423      1.40387881462285     -0.59269748446119
  H   -0.98566009958041      1.16649922248420     -1.65667147578752
  H   -0.38273009334288      2.25455506531821     -0.36865524418605
  H   -2.05348103556602      1.71148958622822     -0.36239403441303
