17
Coordinates from ORCA-job run
  C   0.79708958025091     -0.11113918143383      0.00007333069781
  C   -0.55016081389344      0.53695780889148      0.38413221421131
  Cl  1.88499895936516      1.25358551682070     -0.67929674741567
  H   -0.34363434424397      1.28277089071566      1.16301030809043
  N   1.39432368003077     -0.69724408632210      1.15162710519585
  H   2.32683736937581     -1.03266385985293      0.93923879103487
  H   1.46253830002284     -0.02183287655615      1.90363342769944
  N   0.62012066179438     -1.11161656255582     -1.02139126901809
  H   0.95589024945299     -2.00887025883599     -0.69995441517282
  H   1.06957120630230     -0.86170408353778     -1.88876318357397
  N   -1.46124260829404     -0.45685167722444      0.93515989430186
  H   -1.69116092044526     -1.10917720618692      0.19215593286885
  H   -0.98705674645603     -0.98948032676656      1.65537803259973
  C   -1.23188662682121      1.21408949516263     -0.79215682954297
  H   -2.23471671338858      1.51192295212547     -0.48325690918716
  H   -0.68969072100016      2.09330161973867     -1.13617032030225
  H   -1.32082051205245      0.50895183581791     -1.62241936248722
