17
Coordinates from ORCA-job run
  C   0.88482727810818     -0.30621486240089      0.20863034870684
  C   -0.60975995154137      0.01943964068558      0.39584893087756
  Cl  1.78820942025077      0.50210609782349      1.60850481535411
  H   -0.87099138909403     -0.30664774859102      1.40798514719108
  N   1.19974313941895     -1.71111650764898      0.29961525052719
  H   1.15642137548371     -2.00360448459544      1.26780301886883
  H   0.46078140678866     -2.19235152456808     -0.20674445623849
  N   1.32334240726205      0.14654035070213     -1.06253195661399
  H   1.35539863947967      1.15544300837585     -1.12221112452140
  H   2.23959326622933     -0.24061869094600     -1.25051650235755
  N   -1.32766603273350     -0.84988443278572     -0.53917703377860
  H   -2.32128273691330     -0.81771491303511     -0.34578532690001
  H   -1.17612840416585     -0.51062963687871     -1.48263460332444
  C   -0.94877321933910      1.49971844092022      0.23991967980542
  H   -2.00728044178895      1.65918777990056      0.46149904886599
  H   -0.36473293154294      2.13230664003524      0.91035941562066
  H   -0.78170182590227      1.82304084300689     -0.79156465208322
