17
Coordinates from ORCA-job run
  C   0.86289074747633     -0.34938965728525      0.21816705233712
  C   -0.54027824883359      0.24446353989104      0.43989865227145
  Cl  1.26884504328517     -1.17803585393699      1.87389613090551
  H   -0.46991156188481      0.87668089020201      1.33795345049296
  N   0.84048902794867     -1.24756481430557     -0.85447056807354
  H   0.04671947929881     -1.87077170520179     -0.77775119190246
  H   1.71553423910639     -1.74595750140908     -0.94060848164311
  N   1.94385077766936      0.56987819151770      0.02777343772669
  H   1.98561132088040      1.25615083346075      0.76967002392079
  H   1.84529001597324      1.01955929971410     -0.87327680617101
  N   -1.49010875638380     -0.85606326906942      0.58875657546654
  H   -1.36579708569958     -1.29551950839371      1.49297936061756
  H   -2.43794665453167     -0.50338903230718      0.54026773937442
  C   -0.96539493181636      1.10511672858202     -0.74171091275738
  H   -1.95145839156264      1.53818917054452     -0.54982825751458
  H   -1.01605777261519      0.50359250226763     -1.64964241056463
  H   -0.27427724831073      1.93406018572924     -0.90007379448633
