17
Coordinates from ORCA-job run
  C   0.78211160728691     -0.34287318930355      0.40042706406777
  C   -0.60064835475987      0.29401066511369      0.58802505108404
  Cl  1.26764785598856     -1.13909557913881      1.92913403631490
  H   -0.50439812436101      0.96682851884142      1.44531575024999
  N   0.68655618126439     -1.40306018988433     -0.60144757168328
  H   1.47295803727584     -2.03584562605784     -0.51391414691123
  H   0.72494829353658     -0.98603716214839     -1.52541926435769
  N   1.76463316000395      0.70333455240892      0.17006667647965
  H   2.69812519023901      0.31519834393692      0.24631604562002
  H   1.65450200070352      1.06821977961346     -0.76962607860812
  N   -1.55550171484950     -0.74775019758606      0.92765196200299
  H   -1.53453118678269     -1.45745863243017      0.20470404722216
  H   -2.48776691001002     -0.35694547922516      0.98092127047208
  C   -0.99642552198226      1.12157650057469     -0.64159755715816
  H   -1.06644911276163      0.49408229640364     -1.53549141460422
  H   -0.31680879472996      1.95661819008597     -0.82884953525691
  H   -1.98795260606180      1.55019720879559     -0.47521633493398
