17
Coordinates from ORCA-job run
  C   0.81413517915476     -0.44818933237745      0.34685721552683
  C   -0.52529009371649      0.27932494799944      0.57097730808662
  Cl  1.25278052084582     -1.28666867745117      1.87391771471744
  H   -0.35591970646938      0.97804239286907      1.39991371063259
  N   0.63680254570629     -1.46387490727822     -0.66810123016190
  H   1.48039606671989     -2.02585015811448     -0.70306657342177
  H   0.53561595140050     -1.01318478903399     -1.57210692224822
  N   1.94513259306968      0.41308759986793      0.04928647437844
  H   1.77235845330030      0.92068049164211     -0.81060362217535
  H   2.09193209785893      1.08249513288802      0.79687295059266
  N   -1.53266566311533     -0.68203973827416      0.99217320570177
  H   -1.51239738163326     -1.46870410588213      0.35304720240698
  H   -2.45193945458363     -0.25865750722515      0.96081264684174
  C   -0.93815381385035      1.08601104788664     -0.66661693900255
  H   -0.19416338477506      1.82637156111410     -0.97242041185044
  H   -1.16058983506989      0.42602726439946     -1.50977531929802
  H   -1.85603407484278      1.63512877696997     -0.44116741072680
