17
Coordinates from ORCA-job run
  C   0.82383341861667     -0.30594393470399      0.00979666834295
  C   -0.57425372046427      0.18090507569403      0.39567583343005
  Cl  0.59428200819717     -1.05106440377266     -1.81403063830115
  H   -0.43116007676665      0.52778685987899      1.42569549654271
  N   1.76374994669173      0.74104764824644     -0.06434955463367
  H   2.71191654575885      0.38795076877694     -0.05836662342974
  H   1.62648154463101      1.30546054046279     -0.89094389114396
  N   1.23196353984730     -1.32673263887386      0.87096765202675
  H   2.03537493241974     -1.83242544049195      0.52202110837452
  H   0.45091776164129     -1.95473139077409      1.02264613215726
  N   -1.46320569445650     -0.97572341682121      0.45666409316790
  H   -1.75347527194766     -1.23109535651488     -0.48062640648267
  H   -2.29033907187826     -0.74382529807326      0.99200776140946
  C   -1.07712893062630      1.34782438827414     -0.44456048601782
  H   -0.41616482821169      2.21400670369717     -0.36518628930814
  H   -2.06171091782578      1.65378515037150     -0.08233144919401
  H   -1.17108118562664      1.06277474462390     -1.49407940694045
