17
Coordinates from ORCA-job run
  C   0.76415878852810     -0.33860887563326     -0.21552109810314
  C   -0.59013026813946      0.23353828909435      0.27329671533242
  Cl  0.55829205151367     -0.90021724423071     -1.92845280285242
  H   -0.38672435912977      0.54596313203667      1.31019298004523
  N   1.75394586629566      0.69402756378554     -0.19401212738137
  H   2.67297719832639      0.27284115740234     -0.26150522848059
  H   1.68912775047764      1.23159357078552      0.66244267846379
  N   1.22608971425818     -1.51607542763563      0.50141629165811
  H   1.26862433174119     -1.30484709662961      1.49359457005530
  H   0.61328204175196     -2.30831986664747      0.35416779532114
  N   -1.68065266107543     -0.72257921822457      0.33973754080721
  H   -1.88947833318858     -1.06861160782328     -0.58978317626407
  H   -1.44308560847737     -1.51209777464993      0.92651809430642
  C   -1.04677050285272      1.45100882553131     -0.51730709974718
  H   -1.92009074301331      1.88407994004338     -0.02728419619301
  H   -1.33202150344560      1.15775104603523     -1.52974699324841
  H   -0.25954376357056      2.19955358676011     -0.59775394371942
