17
Coordinates from ORCA-job run
  C   0.67881229372134     -0.39614044270702     -0.04287052651705
  C   -0.68111985127184      0.22677604900725      0.33723977375000
  Cl  0.51689902552758     -1.16350923367302     -1.71747258236165
  H   -0.52732134659121      0.54692533655282      1.37679942596224
  N   1.71677977023916      0.57948750192976     -0.01117612550841
  H   2.61469065894345      0.14993683158116     -0.20105385275863
  H   1.56353495630634      1.31437255432165     -0.69000750996367
  N   0.94392792780810     -1.50381397628489      0.84981852372729
  H   1.64474952226811     -2.12236035998244      0.46001064377363
  H   1.29573454101813     -1.11960513679807      1.72098580079028
  N   -1.78370297433527     -0.71493427099500      0.33336200580517
  H   -2.01490071501860     -0.94936768588019     -0.62568636037730
  H   -1.46830461921654     -1.56984000733894      0.77920865874189
  C   -1.04322163772579      1.45006407136052     -0.48993039424549
  H   -2.03752943760162      1.78552752901600     -0.19259828567093
  H   -1.06825599813158      1.20894658715768     -1.55600137729409
  H   -0.34877211593977      2.27653465273274     -0.32862781785328
