17
Coordinates from ORCA-job run
  C   0.84702610096479     -0.39358023601228     -0.03607934916873
  C   -0.54364648316708      0.17202235195243      0.31018309362181
  Cl  0.67255811770156     -1.15931007973303     -1.74691106276480
  H   -0.40123417801820      0.59203906562409      1.31413960343223
  N   1.92437552527383      0.54382516999460     -0.17829662294636
  H   2.07260200500470      1.00854092857433      0.70968380963873
  H   1.74652398158845      1.21805024392468     -0.90909817309869
  N   1.20979045018011     -1.32862445948019      0.94503400647714
  H   2.06495845053572     -1.80591523559439      0.69407914518237
  H   0.44620422987560     -1.97057636167841      1.11502215624620
  N   -1.47413194097921     -0.94697950571414      0.45523829070859
  H   -2.30122013002279     -0.64382559051642      0.95482833682884
  H   -1.76464786508367     -1.26180667908538     -0.46409574526288
  C   -1.02392534453133      1.28082966141564     -0.61880094413895
  H   -0.32716486780298      2.12181290009929     -0.65366841336974
  H   -1.16826649511330      0.90615366057536     -1.63370146291043
  H   -1.98080155640620      1.66534416565381     -0.25655666847533
