17
Coordinates from ORCA-job run
  C   0.71167055422748     -0.33231562377049      0.38916918888508
  C   -0.66600732624137      0.35558453297554      0.49731008205243
  Cl  1.04194268103359     -1.18227737013817      1.94151241203922
  H   -0.58668938928872      1.04343116335500      1.34371518378294
  N   0.64871767663729     -1.37554502517821     -0.62550336404861
  H   1.45585720113837     -1.98442608276850     -0.55265383213731
  H   0.66719840533816     -0.94171278394844     -1.54242711189610
  N   1.75331029601644      0.67138388547298      0.26969937034074
  H   1.70295216085474      1.09673438304414     -0.64907543127587
  H   2.66551744978307      0.23871994559993      0.36504454723512
  N   -1.76818986805574     -0.55680429635847      0.75012201006182
  H   -1.67912585293393     -1.33948221981643      0.10997215907824
  H   -1.68432179208764     -0.93511359995008      1.68562862450026
  C   -0.98426538390172      1.15864998369689     -0.76212162463200
  H   -0.24089517832316      1.92928212591506     -0.97632098375369
  H   -1.09175732821901      0.50399779538238     -1.63242215664176
  H   -1.94591430597786      1.64989318648687     -0.61364907359052
