17
Coordinates from ORCA-job run
  C   0.72879748414242     -0.28266671507135      0.19321892390898
  C   -0.72246770479562      0.18892506206189      0.42857708829752
  Cl  1.83561260623809      0.75167711582830      1.27028346340224
  H   -0.97429102289815     -0.03564451086298      1.47366954358637
  N   0.84070008116295     -1.66342768279342      0.52586917280727
  H   1.79244138077579     -1.98755355819749      0.40082431269846
  H   0.56025478227901     -1.83603113419490      1.48401837204603
  N   1.13038900421890     -0.05743155866840     -1.17729804872769
  H   2.01463012844244      0.42265514873952     -1.24408894832183
  H   1.17518817846860     -0.94075401027064     -1.66721042999724
  N   -1.64133514386676     -0.54276614849121     -0.43027853754274
  H   -1.46460658126526     -0.27152181077548     -1.39154723339671
  H   -1.47274373249704     -1.53834509329951     -0.35126419190674
  C   -0.90753921958603      1.67551215789189      0.17691107532120
  H   -1.97592811790445      1.89653757486654      0.18485127365735
  H   -0.50501473642001      1.93309926681371     -0.80548259014057
  H   -0.41308738649486      2.28773589642353      0.92894675430809
