17
Coordinates from ORCA-job run
  C   0.74647177195781     -0.43248639131995      0.34015000291848
  C   -0.59352637483125      0.33055634244605      0.48353498610628
  Cl  1.03735397036164     -1.29576491429120      1.90399750214894
  H   -0.45314984997758      1.03349745248676      1.31312679255842
  N   0.61862473110706     -1.43734197904262     -0.68367067707112
  H   1.48016776021903     -1.97120288363512     -0.72111123706993
  H   0.49346792485238     -0.98529532515431     -1.58333689102831
  N   1.92610349095634      0.39028481220906      0.14806485016730
  H   1.85896652589892      0.87891185616002     -0.73691773287359
  H   2.01605713681655      1.07371630818060      0.89208960796415
  N   -1.74024128398923     -0.50522821847866      0.80199728030912
  H   -1.73332755109603     -1.29742503665650      0.16720386254129
  H   -1.63093265449938     -0.88445345527770      1.73446838812027
  C   -0.92356729608007      1.12453248163940     -0.77903771661609
  H   -1.18415927396941      0.45567826822212     -1.60462480124244
  H   -1.80336969042377      1.73604274872750     -0.57864621651286
  H   -0.11393933730299      1.78497793378455     -1.09628800041990
