17
Coordinates from ORCA-job run
  C   0.82907151619205     -0.16709927038298      0.38369971067648
  C   -0.68907420835092      0.14922032333521      0.34651790622806
  Cl  1.53257213347298      0.75939109170183      1.77320049105058
  H   -1.05922195746400     -0.09121416864069      1.35030413274387
  N   1.15969645001460     -1.55214157720627      0.67217108767776
  H   0.83659381445354     -2.14544563614465     -0.08272266269797
  H   0.74834746922644     -1.85881873446945      1.54674392310392
  N   1.46419857836162      0.27645351702124     -0.82030407740551
  H   0.95658441469080     -0.07407414106991     -1.62407707439856
  H   2.41097856602454     -0.08446954904968     -0.84640787607616
  N   -1.44009173312095     -0.67477006756406     -0.59276039790956
  H   -1.25275877450043     -1.66213448498343     -0.48623029426687
  H   -1.28700110862262     -0.39641052191188     -1.55349848716801
  C   -0.99268388360190      1.60869037552952      0.04399941334371
  H   -2.07262844354094      1.76061488817730      0.08327421719975
  H   -0.63407309615163      1.87707227511704     -0.95233262881455
  H   -0.51050973708319      2.27313568054087      0.75842261671306
