17
Coordinates from ORCA-job run
  C   0.82650226143387     -0.30126341432843      0.24942026939411
  C   -0.56928201371915      0.33034372010285      0.48927792236949
  Cl  1.25259289785218     -1.15550470225826      1.86137550474705
  H   -0.45548585113364      1.01643117811878      1.33776844440070
  N   0.92130460821520     -1.33159183734131     -0.74481199587121
  H   0.28119484279962     -2.08968746146434     -0.55166554819467
  H   0.73618490983512     -0.93314170932242     -1.65734773194012
  N   1.77404405263141      0.69176068855588     -0.08298773503405
  H   2.69045221229173      0.27374749283053     -0.18713170722139
  H   1.80884769669322      1.42385014517353      0.61468439677584
  N   -1.62214698739682     -0.60476666955852      0.83984394334981
  H   -1.34742331620082     -1.18396668418877      1.62275821598825
  H   -1.84266739285639     -1.20319197161864      0.05282608023240
  C   -1.01872893458324      1.12452330217443     -0.73117965064022
  H   -1.16102474252237      0.46265156511185     -1.59168515379597
  H   -1.97977572435863      1.59138244405259     -0.51137218535627
  H   -0.29458851898131      1.88842391396025     -1.00877306920373
