17
Coordinates from ORCA-job run
  C   0.90069522405809     -0.06287164796520      0.04092738054922
  C   -0.50821970971893      0.50113039333017      0.35370474677381
  Cl  1.91634357504066      1.35270254120484     -0.58016081111865
  H   -0.36433081338926      1.28777852977645      1.10603908273531
  N   1.44805757454007     -0.62259316927588      1.22808756992303
  H   2.35248177178906     -1.02874743272614      1.02023717504673
  H   1.55051260932219      0.07987272327248      1.95027013630388
  N   0.99107635027835     -1.07852949020819     -0.97472477839359
  H   0.40047793552545     -1.85811578785429     -0.70976316465959
  H   0.70872534643511     -0.72127229504265     -1.87733040450904
  N   -1.37856186714698     -0.51464088853027      0.93317617173545
  H   -0.85508571393535     -1.08044814133385      1.59053255937391
  H   -1.74248601761429     -1.12147434528408      0.20780708744826
  C   -1.21098973608732      1.10885463333842     -0.84807875189628
  H   -2.19863125327080      1.45291569201957     -0.53759763562409
  H   -1.35311478054736      0.35849425994303     -1.63261256433024
  H   -0.65995049527871      1.94794442533560     -1.26851379935811
