17
Coordinates from ORCA-job run
  C   0.78230458893986     -0.32986274158992      0.39056853212121
  C   -0.67890251291129      0.18485292872045      0.43577221085200
  Cl  1.66578692552442      0.44095550610415      1.75925320902884
  H   -1.00984668635398      0.03874824356705      1.46784703895100
  N   0.78133842834596     -1.75161562034190      0.64387886465504
  H   1.74661973616404     -2.05494404074585      0.71944950577790
  H   0.38384394770137     -2.22210281932634     -0.16207930870290
  N   1.54622590918707     -0.00529140683776     -0.80217688776592
  H   1.62983150951217      0.99727870100911     -0.92303675533394
  H   1.08066900351859     -0.39274261632393     -1.61645581799893
  N   -1.59253238076942     -0.57192666712053     -0.40857176531677
  H   -1.67472679446967     -1.53341310734689     -0.10830285756567
  H   -1.33653481511523     -0.53173597536672     -1.38733344446619
  C   -0.79728573107444      1.65671363513694      0.07188118767846
  H   -1.82314806975310      1.98235671581255      0.24555514598786
  H   -0.57788142030471      1.81409624803287     -0.98868490520282
  H   -0.12476163814163      2.27963301661672      0.66243604730082
