17
Coordinates from ORCA-job run
  C   0.81388206207808     -0.27932456297574      0.41257110711439
  C   -0.60816007779698      0.32993093746316      0.50331649310356
  Cl  1.15975602824930     -1.02230047108775      2.02850202845477
  H   -0.58592846137017      1.00237779331199      1.36555120659593
  N   0.99271688252248     -1.35596845077258     -0.54288564923918
  H   0.35224799314459     -2.11990564587359     -0.36379223156176
  H   0.84229143184722     -1.00651207667174     -1.48271598113960
  N   1.77966842947636      0.76957709803473      0.22516521348834
  H   1.62967085535868      1.21429246655112     -0.67319209473246
  H   2.70473760482556      0.35318027090731      0.21651374530870
  N   -1.67388815199908     -0.63272949857741      0.72752737068893
  H   -1.48037943085736     -1.20066023877278      1.54280489754198
  H   -1.78325024414759     -1.24248709194858     -0.07412805735477
  C   -0.95399099821873      1.14382366123054     -0.73874370186095
  H   -0.88452500144926      0.53965188985479     -1.64994291006755
  H   -0.31934669676329      2.02418856467541     -0.84727585511787
  H   -1.98650222489985      1.48286535465115     -0.64927558122245
