17
Coordinates from ORCA-job run
  C   0.77478666754808     -0.37091012681758      0.28196406013523
  C   -0.68602811070603      0.13638679701998      0.38099129344531
  Cl  1.72607395422465      0.47675137923572      1.62259092319175
  H   -1.03562721136040     -0.12927534429765      1.38733517653565
  N   0.78486677314924     -1.78371422577565      0.44204113792766
  H   0.42694066734279     -2.05201634875394      1.35053055170714
  H   1.73259215739538     -2.12575287821000      0.33722799835789
  N   1.48704476484535     -0.08771758541170     -0.93629723297123
  H   1.60671998968287      0.90746367229493     -1.06835457178869
  H   0.97110173632068     -0.48127323964363     -1.71459990897373
  N   -1.55421547024803     -0.53057041289413     -0.58154276680353
  H   -1.43715207720860     -0.12380168199696     -1.50222581479624
  H   -1.31702352187464     -1.51409037147836     -0.63347912014490
  C   -0.83190847687329      1.63765373410015      0.20169058849513
  H   -0.28733988187665      2.19952299104761      0.95813148972771
  H   -0.47154304348774      1.94494740453544     -0.78547969779569
  H   -1.89028891687368      1.89539623704577      0.26147589375053
