17
Coordinates from ORCA-job run
  C   0.82838244678380     -0.30090796389940      0.24408239732668
  C   -0.56637205122684      0.32932577459226      0.49306239267216
  Cl  1.26544704661232     -1.15662243056932      1.85195176033643
  H   -0.44792161445090      1.01460115637861      1.34164228860024
  N   0.91811643188641     -1.32940790365345     -0.75238271353282
  H   0.72970944228102     -0.92887842195231     -1.66330786619090
  H   0.27820861608123     -2.08740295162621     -0.55829348845829
  N   1.77297786253337      0.69370737356831     -0.09309380716140
  H   1.81237492079295      1.42418139143207      0.60599964541132
  H   2.68879077667975      0.27587000037406     -0.20342946317059
  N   -1.61653829540089     -0.60667503059870      0.84971209515096
  H   -1.84125472437997     -1.20532501634817      0.06404692198745
  H   -1.33678968229211     -1.18595623412935      1.63079408035097
  C   -1.02456359129124      1.12384397469835     -0.72401789641588
  H   -1.17343832930899      0.46158664685743     -1.58318697262490
  H   -1.98395445575427      1.59074814999115     -0.49723986626323
  H   -0.30217479954564      1.88731148488467     -1.00733950801820
