14

C	0.0	0.0	0.0
C	-0.27053	-0.018552	-1.513918
F	1.35159	0.0	0.0
H	0.357716	0.774886	-1.920875
H	-0.429648	-0.804117	0.582451
N	-0.377689	1.312429	0.619141
O	-0.412953	2.29269	-0.120108
O	-0.458898	1.317167	1.841121
C	-1.568123	0.082568	-2.18242
N	-2.226882	0.183521	-3.157344
N	0.369466	-1.298459	-2.0247
O	0.204352	-2.318014	-1.363929
O	0.986078	-1.215309	-3.081824
Cl	-3.018478	0.0	0.0
