14

C	0.0	0.0	0.0
C	-0.268122	0.031712	-1.512144
F	1.351866	0.0	0.0
H	0.364225	0.833986	-1.893806
H	-0.424346	-0.827148	0.554151
N	-0.387559	1.286414	0.664208
O	-0.530993	1.24116	1.880395
O	-0.381016	2.297082	-0.036375
C	-1.563827	0.1606	-2.180862
N	-2.215094	0.296766	-3.156174
N	0.366048	-1.235837	-2.064895
O	0.213762	-2.273107	-1.428646
O	0.964219	-1.123129	-3.128541
Cl	-3.010817	0.0	0.0
