14

C	0.0	0.0	0.0
C	-0.611822	-0.031742	-1.385626
F	1.344606	0.0	0.0
H	-1.714446	0.087767	-1.227335
H	-0.39408	-0.829368	0.587233
N	-0.400281	1.256508	0.752316
O	-0.91006	2.183766	0.13956
O	-0.09949	1.237506	1.942336
C	-0.326769	-1.309177	-2.022451
N	-0.060518	-2.351681	-2.493539
N	-0.143405	1.04931	-2.324359
O	-0.766652	1.116562	-3.377479
O	0.803921	1.756743	-1.997579
Cl	-3.397474	0.0	0.0
