14

C	0.0	0.0	0.0
C	-0.422797	0.615214	-1.345855
F	1.354496	0.0	0.0
H	0.525565	0.86762	-1.841065
H	-0.403552	-0.990599	0.15686
N	-0.324251	0.825728	1.214238
O	-0.442705	0.197952	2.259013
O	-0.250705	2.045269	1.100541
C	-1.244314	1.816282	-1.401503
N	-1.711548	2.871683	-1.620452
N	-0.97248	-0.461789	-2.266751
O	-0.531709	-1.591903	-2.088171
O	-1.675364	-0.099548	-3.195407
Cl	-2.944007	0.0	0.0
