14

C	0.0	0.0	0.0
C	-0.272903	-0.006534	-1.512518
F	1.351789	0.0	0.0
H	0.361145	0.784288	-1.915693
H	-0.421624	-0.814853	0.573112
N	-0.398171	1.297906	0.63524
O	-0.367276	2.297464	-0.078865
O	-0.575684	1.269066	1.846073
C	-1.573544	0.116785	-2.174054
N	-2.221641	0.254203	-3.15222
N	0.351473	-1.288043	-2.045831
O	0.940298	-1.202901	-3.118452
O	0.199753	-2.31149	-1.387826
Cl	-3.025848	0.0	0.0
