17

C	-0.398236	-0.074178	-1.477071
C	0.0	0.0	0.0
F	-1.735035	-0.32328	-1.595421
H	1.095085	0.0	0.0
N	-0.169969	1.309351	-2.092455
O	0.958137	1.54351	-2.503472
O	-1.123363	2.082466	-2.091918
N	0.317553	-1.010113	-2.271066
H	1.313346	-0.84335	-2.133638
H	0.104139	-1.937765	-1.919742
C	-0.448643	-1.248665	0.611449
N	-0.815481	-2.256182	1.091956
C	-0.52648	1.21534	0.760581
H	-1.609851	1.313829	0.667692
H	-0.26034	1.118487	1.814443
H	-0.049185	2.120394	0.382763
Cl	3.273321	0.0	0.0
