17

C	-0.489007	0.009131	-1.443098
C	0.0	0.0	0.0
F	-1.868788	0.294174	-1.455123
H	1.09268	0.0	0.0
N	0.080588	1.175755	-2.254438
O	-0.295335	1.209854	-3.425349
O	0.836305	1.972445	-1.715611
N	-0.166532	-1.13882	-2.160329
H	-0.379156	-1.990444	-1.663139
H	-0.559389	-1.118385	-3.090452
C	-0.46215	-1.254542	0.593144
N	-0.864879	-2.256841	1.055927
C	-0.512857	1.17777	0.834794
H	-0.144285	2.111063	0.414886
H	-1.602944	1.193144	0.87711
H	-0.114506	1.085449	1.846128
Cl	3.311483	0.0	0.0
