17

C	-0.531239	-0.005443	-1.421765
C	0.0	0.0	0.0
F	-0.027412	1.053975	-2.11824
H	1.092535	0.0	0.0
N	0.007345	-1.228273	-2.214239
O	0.791745	-1.994169	-1.674269
O	-0.43971	-1.32872	-3.358309
N	-1.940212	0.04075	-1.501552
H	-2.356964	-0.641927	-0.880873
H	-2.230495	-0.132397	-2.456738
C	-0.516537	-1.173991	0.697467
N	-1.029988	-2.078029	1.245659
C	-0.434477	1.280353	0.726462
H	-1.518505	1.351207	0.828264
H	-0.066121	2.141959	0.169796
H	0.030304	1.291298	1.713437
Cl	3.306083	0.0	0.0
