17

C	-0.313904	-0.010645	-1.498461
C	0.0	0.0	0.0
F	-0.631739	-1.301021	-1.916586
H	1.096218	0.0	0.0
N	-1.649585	0.724155	-1.762527
O	-2.641981	0.238504	-1.23335
O	-1.635291	1.739998	-2.455128
N	0.697981	0.564677	-2.223768
H	0.46089	1.210644	-2.952305
H	1.61124	0.621314	-1.784392
C	-0.543218	-1.138299	0.72457
N	-0.989069	-2.016673	1.363837
C	-0.395245	1.325661	0.659211
H	-1.477577	1.42072	0.770371
H	0.072262	1.383458	1.643666
H	-0.013567	2.154654	0.058024
Cl	3.299678	0.0	0.0
