17

C	-0.468275	-0.004755	-1.438191
C	0.0	0.0	0.0
Cl	-2.17694	-0.263288	-1.608158
H	1.09057	0.0	0.0
N	-0.081846	1.387094	-2.021482
O	-0.963574	2.097219	-2.472497
O	1.11221	1.630123	-1.959254
N	0.305732	-0.986451	-2.353649
O	1.450213	-1.225296	-2.026289
O	-0.26514	-1.379734	-3.358981
N	-0.414344	-1.321892	0.62397
O	-0.675321	-1.302343	1.828552
O	-0.32361	-2.337149	-0.069861
N	-0.508112	1.132054	0.665602
H	-0.020837	1.291689	1.537268
H	-1.502959	1.059349	0.846565
Br	2.740554	0.0	0.0
