17

C	-0.4292	-0.021889	-1.460657
C	0.0	0.0	0.0
Cl	0.165549	1.431771	-2.230359
H	1.094822	0.0	0.0
N	0.096474	-1.215901	-2.280468
O	-0.75151	-1.947955	-2.785928
O	1.30375	-1.2982	-2.384747
N	-1.954115	-0.127569	-1.628692
O	-2.534879	-0.716373	-0.713669
O	-2.505842	0.534609	-2.49916
N	-0.356696	-1.272568	0.661133
O	-0.806011	-1.240277	1.810352
O	-0.024207	-2.306008	0.091991
N	-0.594845	1.142423	0.638329
H	0.166182	1.724126	0.987278
H	-1.124338	0.801911	1.433281
Br	3.169793	0.0	0.0
