17

C	-0.436702	-0.001748	-1.461501
C	0.0	0.0	0.0
Cl	0.637429	0.984752	-2.42474
H	1.087914	0.0	0.0
N	-0.445032	-1.403594	-2.068588
O	0.537126	-2.081398	-1.800739
O	-1.36701	-1.694215	-2.823473
N	-1.877526	0.494829	-1.661134
O	-2.687517	-0.093616	-0.953839
O	-2.09783	1.433557	-2.409491
N	-0.348781	-1.307956	0.731571
O	-1.488975	-1.43612	1.183102
O	0.583875	-2.080103	0.939941
N	-0.525119	1.150534	0.633564
H	0.029549	1.398386	1.444739
H	-1.493977	1.018974	0.902714
Br	2.75108	0.0	0.0
