17

C	-0.44612	-0.010757	-1.461929
C	0.0	0.0	0.0
Cl	0.06459	1.456678	-2.254685
H	1.091074	0.0	0.0
N	0.153526	-1.141734	-2.298695
O	-0.518849	-1.578276	-3.223292
O	1.303731	-1.440907	-2.030429
N	-1.964141	-0.120833	-1.517283
O	-2.420528	-1.255696	-1.405889
O	-2.604176	0.926673	-1.493455
N	-0.399557	-1.304117	0.671902
O	-0.677444	-1.231505	1.872729
O	-0.284133	-2.353762	0.038761
N	-0.491781	1.13741	0.675598
H	-1.421851	0.988136	1.050867
H	0.12354	1.375509	1.443436
Br	2.747333	0.0	0.0
