14

C	-0.018952	0.022704	-0.070864
C	-0.213329	0.278801	-1.584684
Br	1.984575	-0.058707	0.232801
H	0.484496	-0.386416	-2.10021
H	0.096559	1.310027	-1.790248
C	-0.412388	1.204425	0.725301
N	-0.67933	2.158468	1.359279
N	-0.613542	-1.20477	0.327667
H	-1.666076	-0.965795	0.293922
H	-0.391302	-1.362972	1.306439
N	-1.559435	0.036273	-2.071069
H	-1.649061	-0.966637	-2.187871
H	-2.235233	0.234434	-1.313729
F	-2.944962	-0.185097	0.196276
