14

C	-0.026408	0.018915	-0.070194
C	-0.220223	0.185771	-1.596597
Br	1.977191	-0.033788	0.240021
H	0.08393	1.205334	-1.86063
H	0.482643	-0.503674	-2.071863
C	-0.427636	1.242629	0.65577
N	-0.699334	2.230869	1.232796
N	-0.61484	-1.186591	0.398257
H	-0.394006	-1.285954	1.385088
H	-1.668946	-0.955378	0.349465
N	-1.563938	-0.092595	-2.069529
H	-2.242214	0.14692	-1.326626
H	-1.648176	-1.101244	-2.125411
F	-2.951543	-0.189853	0.20552
