18
Coordinates from ORCA-job run
  C   -0.77504539026283      0.18149303470554      0.14699905388162
  C   0.74045403143744      0.10088501936740      0.40415951855496
  Cl  -1.32744245970349      1.57993212925334      1.25988069900076
  H   0.89263268700852      0.02351871221436      1.48032572384520
  C   -1.52817521344176     -1.04497670771517      0.62803612964211
  H   -1.26484472676815     -1.28854428689585      1.65636294982026
  H   -1.29332241875866     -1.89559312275464     -0.01349877858597
  H   -2.60202249905796     -0.85291516026879      0.58188136198926
  N   -1.05548352732643      0.43009684803794     -1.21116061665059
  H   -2.04935154692824      0.40572031730920     -1.39838887018808
  H   -0.67232689539301      1.30473623859985     -1.54269138274149
  C   1.56167348342211      1.22270579033241     -0.19671239843779
  H   2.60756711477827      1.11113975550797      0.09529504619551
  H   1.20384265086334      2.18466538925795      0.17081650277865
  H   1.51767265764180      1.19550995876377     -1.28459743741575
  N   1.23264794559549     -1.21968993703617     -0.13072700989802
  O   1.26013992427764     -2.15556465689022      0.66947890474415
  O   1.55438418261594     -1.28311932178888     -1.31345939653481
