18
Coordinates from ORCA-job run
  C   -0.84278784257235      0.20879617738255      0.20974049271710
  C   0.69028472037197      0.11403301305284      0.44690930280498
  Cl  -1.39248965778626      1.49157842468198      1.35274989603681
  H   0.87246070042766     -0.02054155349901      1.51319941556746
  C   -1.53481734497594     -1.08952638406917      0.58591731340705
  H   -2.61211263799758     -0.93179959774465      0.55701538912831
  H   -1.23949175349302     -1.42224055796247      1.58211705427559
  H   -1.28172346484284     -1.87170842253112     -0.13510243140170
  N   -1.26484202306031      0.61091506714450     -1.10599881900636
  H   -0.91097080578989     -0.05256502793716     -1.78701793804221
  H   -0.91152417796795      1.53149536991810     -1.33703800791480
  C   1.49993305042379      1.26276635972772     -0.11807870929830
  H   1.41082620967885      1.30130801162729     -1.20316629722225
  H   1.15458848102953      2.20425856364982      0.31028552310163
  H   2.55474777074872      1.13814223711418      0.13521867676024
  N   1.16112521044432     -1.16544455123533     -0.17599307837732
  O   1.52945833662735     -2.06458347165581      0.57657834248396
  O   1.11533522873394     -1.24188365766425     -1.40533612502019
