16

C	-0.259976	0.055229	-1.48682
C	0.0	0.0	0.0
Br	-2.192464	0.354858	-1.905007
H	1.094115	0.0	0.0
H	-0.052848	-0.918825	-1.922886
C	0.597409	1.135391	-2.112622
H	0.274169	2.128624	-1.791841
H	1.609622	0.947812	-1.731407
H	0.566926	1.092157	-3.202974
N	-0.505957	-1.303532	0.554789
O	-1.066634	-1.324128	1.646734
O	-0.284304	-2.311086	-0.123239
N	-0.430915	1.107831	0.779522
H	0.348935	1.73058	0.92703
H	-1.226705	1.593064	0.388193
F	2.592372	0.0	0.0
