16

C	-0.621788	-0.003632	-1.393128
C	0.0	0.0	0.0
Br	0.023957	-1.434749	-2.569837
H	1.090235	0.0	0.0
H	-0.238834	0.905246	-1.855236
C	-2.140128	-0.009651	-1.393618
H	-2.531008	0.114702	-2.405701
H	-2.495416	0.819019	-0.775327
H	-2.528936	-0.947286	-0.990039
N	-0.504765	-1.185004	0.774509
O	-1.340883	-1.002592	1.672883
O	-0.081818	-2.293963	0.458782
N	-0.384393	1.242588	0.63697
H	-1.153098	1.085284	1.276767
H	0.425088	1.539952	1.169901
F	2.565703	0.0	0.0
