16

C	-0.311008	0.046719	-1.469904
C	0.0	0.0	0.0
Br	-2.270961	0.22607	-1.808715
H	1.094779	0.0	0.0
H	-0.057056	-0.911727	-1.917866
C	0.454873	1.185241	-2.106821
H	0.092518	2.141997	-1.729986
H	0.379634	1.162471	-3.195911
H	1.491598	1.046181	-1.778168
N	-0.451682	-1.31047	0.584517
O	-0.245862	-2.334807	-0.065347
O	-0.963652	-1.302368	1.708055
N	-0.459034	1.13308	0.728795
H	-1.413294	1.008922	1.04133
H	0.134438	1.252669	1.538105
F	2.575779	0.0	0.0
