15

C	-0.497889	0.050893	-1.445453
C	0.0	0.0	0.0
Cl	0.035493	-1.451323	-2.254186
H	1.092123	0.0	0.0
H	0.03179	0.865	-1.937466
C	-2.002312	0.192527	-1.573423
H	-2.289095	0.200398	-2.626672
H	-2.50861	-0.643072	-1.085265
H	-2.330443	1.130944	-1.121333
C	-0.542111	-1.1265	0.743808
N	-0.974479	-2.057045	1.31554
N	-0.361139	1.282722	0.703216
O	-0.612803	1.234619	1.902777
O	-0.312763	2.306943	0.024802
Br	3.326465	0.0	0.0
