15

C	-0.386475	0.025222	-1.479609
C	0.0	0.0	0.0
Cl	-2.17094	0.142887	-1.670398
H	1.093632	0.0	0.0
H	-0.115896	-0.96317	-1.856955
C	0.321402	1.090955	-2.289779
H	0.151657	0.905419	-3.35179
H	-0.040831	2.085634	-2.038841
H	1.389127	1.039481	-2.06784
C	-0.515378	-1.182335	0.672184
N	-0.88285	-2.172016	1.186464
N	-0.45984	1.234066	0.712241
O	-1.324358	1.123899	1.58086
O	0.06708	2.286502	0.35979
Br	3.362449	0.0	0.0
