15

C	-0.497099	0.03473	-1.446205
C	0.0	0.0	0.0
Cl	0.039046	-1.474727	-2.23975
H	1.092121	0.0	0.0
H	0.031279	0.844694	-1.946316
C	-2.001553	0.171783	-1.577174
H	-2.506356	-0.661317	-1.08315
H	-2.332851	1.112859	-1.13278
H	-2.286821	0.170595	-2.630856
C	-0.541547	-1.119266	0.754772
N	-0.974626	-2.041792	1.338722
N	-0.365082	1.289452	0.688493
O	-0.622598	1.254114	1.887183
O	-0.318866	2.305944	-0.001001
Br	3.325649	0.0	0.0
