13

C	-0.487985	0.036301	-1.427811
C	0.0	0.0	0.0
F	-1.846669	0.229972	-1.482619
H	1.093769	0.0	0.0
H	-0.335298	0.923931	0.478413
N	0.116627	1.271594	-2.109586
O	-0.172475	2.333815	-1.574635
O	0.787675	1.103892	-3.11795
C	-0.159579	-1.158035	-2.209484
N	0.041232	-2.13981	-2.821509
C	-0.544925	-1.153725	0.698861
N	-1.001292	-2.074936	1.265376
Br	3.371679	0.0	0.0
