13

C	-0.488838	0.117597	-1.423266
C	0.0	0.0	0.0
F	-1.847785	0.314088	-1.465756
H	1.093822	0.0	0.0
H	-0.336035	0.894135	0.531124
N	0.116711	1.390215	-2.031369
O	0.805158	1.280395	-3.036203
O	-0.186507	2.420245	-1.443297
C	-0.160775	-1.029344	-2.27276
N	0.063059	-1.964757	-2.946634
C	-0.54524	-1.192018	0.631351
N	-1.01004	-2.140766	1.14278
Br	3.37263	0.0	0.0
