13

C	-0.335293	0.212782	-1.465921
C	0.0	0.0	0.0
F	0.199655	-0.761014	-2.228785
H	1.094056	0.0	0.0
H	-0.364308	0.834206	0.59923
N	-1.861948	0.177235	-1.73266
O	-2.554564	0.755944	-0.9047
O	-2.234397	-0.397102	-2.744869
C	0.095341	1.537	-1.942082
N	0.363474	2.615119	-2.324899
C	-0.549656	-1.261369	0.471755
N	-1.009183	-2.276151	0.842721
Br	3.376635	0.0	0.0
