13

C	-0.457512	0.30434	-1.410452
C	0.0	0.0	0.0
F	-0.083737	-0.661538	-2.271823
H	1.101465	0.0	0.0
H	-0.335361	0.79932	0.664336
N	-2.002224	0.355798	-1.433502
O	-2.496091	1.26317	-0.77582
O	-2.587833	-0.510255	-2.063541
C	-0.002582	1.616635	-1.885646
N	0.325429	2.668528	-2.291539
C	-0.535519	-1.279373	0.442245
N	-0.99069	-2.299214	0.804391
Br	3.378508	0.0	0.0
