13

C	-0.456342	-0.456353	-1.369465
C	0.0	0.0	0.0
F	-0.008507	-1.71561	-1.59392
H	1.100807	0.0	0.0
H	-0.340869	-0.748448	0.720411
N	-1.995477	-0.550469	-1.369939
O	-2.623039	0.331557	-1.944961
O	-2.456105	-1.490178	-0.735454
C	-0.058976	0.425169	-2.4703
N	0.24763	1.117383	-3.367854
C	-0.534992	1.311534	0.330841
N	-0.977101	2.364719	0.603098
Br	3.376322	0.0	0.0
