13

C	-0.470462	0.232772	-1.422632
C	0.0	0.0	0.0
F	-0.059747	1.427032	-1.892018
H	1.10353	0.0	0.0
H	-0.331243	-0.987456	0.325284
N	0.132943	-0.8666	-2.315224
O	-0.156455	-2.006956	-1.97641
O	0.796181	-0.510213	-3.271673
C	-1.931553	0.130121	-1.584646
N	-3.100757	0.089553	-1.690373
C	-0.541139	1.02944	0.873337
N	-1.012496	1.856893	1.55916
Br	3.393371	0.0	0.0
