12

C	0.0	0.0	0.0
C	-0.533188	-0.16476	-1.406539
Cl	1.782239	0.0	0.0
H	-1.633681	-0.159159	-1.3288
H	-0.34819	-0.824104	0.621699
H	-0.165557	0.599656	-2.085681
C	-0.42633	1.278696	0.570538
N	-0.643877	2.309333	1.086327
N	-0.128821	-1.476049	-1.971587
O	0.079714	-1.520831	-3.182857
O	-0.072735	-2.435655	-1.20801
Br	-3.577298	0.0	0.0
