12

C	0.0	0.0	0.0
C	-0.527667	-0.138248	-1.410646
Cl	1.782328	0.0	0.0
H	-1.629933	-0.140953	-1.345116
H	-0.347551	-0.840481	0.598962
H	-0.157391	0.641656	-2.073264
C	-0.435044	1.257562	0.607277
N	-0.656266	2.287477	1.125969
N	-0.108685	-1.436583	-1.997469
O	-0.068134	-2.414131	-1.254041
O	0.124437	-1.454756	-3.205095
Br	-3.559734	0.0	0.0
