12

C	0.0	0.0	0.0
C	-0.537381	0.020601	-1.41659
Cl	1.782649	0.0	0.0
H	-1.632315	0.131076	-1.350811
H	-0.346258	-0.927328	0.459241
H	-0.271769	-0.896635	-1.938269
C	-0.41865	1.116778	0.853077
N	-0.616176	1.987668	1.614668
N	0.006667	1.133867	-2.232143
O	0.142767	2.228415	-1.693567
O	0.24436	0.890151	-3.416519
Br	-3.576731	0.0	0.0
