12

C	0.0	0.0	0.0
C	-0.485979	-0.021592	-1.438886
Cl	1.782541	0.0	0.0
H	-1.577845	0.105654	-1.43202
H	-0.358032	-0.909048	0.48377
H	-0.196538	-0.956135	-1.914747
C	-0.426327	1.15657	0.792885
N	-0.661649	2.085683	1.470608
N	0.126587	1.057109	-2.257983
O	0.545665	0.742888	-3.372638
O	0.146979	2.190581	-1.788679
Br	-3.521106	0.0	0.0
