12

C	0.0	0.0	0.0
C	-0.534651	-0.025689	-1.417284
Cl	1.782601	0.0	0.0
H	-1.631027	0.076893	-1.352246
H	-0.347261	-0.913287	0.485616
H	-0.260619	-0.954994	-1.912664
C	-0.4251	1.139693	0.817533
N	-0.618609	2.031487	1.556182
N	-0.002357	1.068742	-2.265165
O	0.13459	2.177774	-1.755428
O	0.225043	0.795086	-3.444905
Br	-3.566395	0.0	0.0
