12

C	0.0	0.0	0.0
C	-0.525118	0.009666	-1.421441
Cl	1.782543	0.0	0.0
H	-1.621015	0.117727	-1.373596
H	-0.352301	-0.924174	0.460889
H	-0.245762	-0.908025	-1.934813
C	-0.424464	1.120351	0.844813
N	-0.599781	1.989828	1.61466
N	0.027162	1.121634	-2.236068
O	0.31997	0.865002	-3.406048
O	0.116186	2.227869	-1.708724
Br	-3.553075	0.0	0.0
