18

C	-0.489004	0.112032	-1.452394
C	0.0	0.0	0.0
Br	0.07064	-1.629936	-2.408371
H	1.097841	0.0	0.0
N	-1.897815	0.240423	-1.463041
H	-2.284842	-0.493755	-0.878859
H	-2.279416	0.195718	-2.39873
C	0.223885	1.20353	-2.215423
H	1.303261	1.057488	-2.129324
H	-0.068761	1.200879	-3.269252
H	-0.042884	2.170742	-1.780861
N	-0.632513	-1.159339	0.634704
H	-0.514314	-1.005366	1.627913
H	-0.105696	-1.990199	0.388095
N	-0.39887	1.181047	0.760874
H	0.361654	1.848886	0.750245
H	-1.238435	1.591165	0.368089
Cl	3.509314	0.0	0.0
