18

C	-0.459651	-0.020846	-1.467954
C	0.0	0.0	0.0
Br	-0.011932	1.726986	-2.303843
H	1.102336	0.0	0.0
N	0.268123	-1.020853	-2.226918
H	1.264411	-0.828976	-2.107213
H	0.096607	-1.891464	-1.726008
C	-1.954753	-0.218549	-1.622351
H	-2.219696	-0.193273	-2.679727
H	-2.215648	-1.199382	-1.214397
H	-2.504168	0.550183	-1.077383
N	-0.399509	-1.286574	0.576546
H	0.338289	-1.605097	1.192791
H	-1.240852	-1.138369	1.123179
N	-0.594988	1.095711	0.770782
H	-0.384179	1.966159	0.293311
H	-0.084171	1.135435	1.64833
Cl	3.482619	0.0	0.0
