14

C	0.0	0.0	0.0
C	-0.575629	-0.096849	-1.410936
Cl	1.761626	0.0	0.0
H	-0.312193	0.849659	-1.892443
H	-1.665073	-0.124977	-1.273515
C	-0.438502	1.229403	0.660672
N	-0.654391	2.28979	1.116817
N	-0.426498	-1.187982	0.87448
O	-0.814623	-2.192314	0.297183
O	-0.290198	-1.043535	2.081202
N	-0.003829	-1.199986	-2.172693
H	-0.584503	-2.015221	-2.039509
H	-0.025038	-0.955333	-3.152363
Cl	-3.635097	0.0	0.0
