14

C	0.0	0.0	0.0
C	-0.481631	0.10995	-1.476136
Cl	1.771872	0.0	0.0
H	0.166628	-0.569535	-2.034161
H	-0.232047	1.132474	-1.779757
C	-0.478717	1.072995	0.857526
N	-0.746655	2.037626	1.473031
N	-0.422458	-1.350835	0.580376
O	-0.816429	-1.369647	1.737448
O	-0.287986	-2.308925	-0.169711
N	-1.841926	-0.18588	-1.767661
H	-2.548606	0.323228	-1.234898
H	-2.052137	-1.163876	-1.624712
Cl	-4.46789	0.0	0.0
