14

C	0.0	0.0	0.0
C	-0.503508	-0.495496	-1.375455
Cl	1.784582	0.0	0.0
H	-0.119752	-1.512521	-1.484595
H	0.010594	0.134481	-2.108652
C	-0.459153	1.348258	0.298782
N	-0.768543	2.472529	0.443408
N	-0.429411	-0.939905	1.12925
O	-0.466202	-2.12976	0.848685
O	-0.642919	-0.432673	2.221773
N	-1.909659	-0.461795	-1.605039
H	-2.320079	0.459885	-1.524862
H	-2.464255	-1.036483	-0.981253
Cl	-4.609861	0.0	0.0
