12

C	0.0	0.0	0.0
C	-0.576658	0.217876	-1.394262
Br	1.952821	0.0	0.0
H	-1.618667	0.515892	-1.234844
H	-0.323437	-0.968846	0.380261
H	-0.035348	1.036037	-1.87971
C	-0.372935	1.062946	0.932621
N	-0.598003	1.928753	1.693995
N	-0.488693	-1.025106	-2.155868
H	-1.425956	-1.401757	-2.251577
H	-0.12033	-0.852085	-3.081466
Br	-3.777803	0.0	0.0
