12

C	0.0	0.0	0.0
C	-0.443243	0.111936	-1.459526
Br	1.957445	0.0	0.0
H	-0.037728	1.046874	-1.867052
H	-0.353161	-0.933915	0.432399
H	-1.532306	0.176447	-1.425419
C	-0.391383	1.153109	0.804647
N	-0.580926	2.119476	1.44546
N	-0.021956	-1.076675	-2.193378
H	-0.765203	-1.375086	-2.807028
H	0.80391	-0.893508	-2.745524
Br	-3.617697	0.0	0.0
