12

C	0.0	0.0	0.0
C	-0.551057	0.144893	-1.409894
Br	1.957458	0.0	0.0
H	-1.637177	0.086625	-1.277485
H	-0.31991	-0.944466	0.442579
H	-0.223658	-0.729643	-1.98882
C	-0.388111	1.10925	0.868903
N	-0.608212	2.019065	1.577395
N	-0.178818	1.423306	-1.990657
H	-0.96106	1.808217	-2.500426
H	0.614511	1.335151	-2.60997
Br	-3.793543	0.0	0.0
