12

C	0.0	0.0	0.0
C	-0.478949	-0.481838	-1.401338
Br	1.952928	0.0	0.0
H	-0.224104	-1.544785	-1.464608
H	-0.335505	-0.662653	0.798807
H	0.139887	0.041491	-2.13636
C	-0.423486	1.369163	0.266512
N	-0.716025	2.495316	0.428813
N	-1.858045	-0.283454	-1.723135
H	-2.526644	-0.703317	-1.081206
H	-2.107819	0.696996	-1.748095
Br	-4.712871	0.0	0.0
