12

C	0.0	0.0	0.0
C	-0.475495	-0.072856	-1.480308
Br	1.950954	0.0	0.0
H	0.115609	0.66491	-2.031366
H	-0.33249	-0.864056	0.577361
H	-0.180829	-1.060988	-1.849046
C	-0.431964	1.238091	0.63671
N	-0.697736	2.299531	1.065824
N	-1.86455	0.15553	-1.731477
H	-2.156449	1.088423	-1.469006
H	-2.505866	-0.460105	-1.238301
Br	-4.717325	0.0	0.0
