12

C	0.0	0.0	0.0
C	-0.495349	0.162574	-1.448444
Br	1.952881	0.0	0.0
H	0.07292	0.973416	-1.914412
H	-0.344429	-0.940584	0.429615
H	-1.546594	0.447659	-1.379473
C	-0.382736	1.120136	0.857416
N	-0.567831	2.059067	1.539035
N	-0.405736	-1.040425	-2.252794
H	-1.134572	-1.676535	-1.95034
H	0.494292	-1.490044	-2.132546
Br	-3.608985	0.0	0.0
