13
Coordinates from ORCA-job run
  C   -0.87970576023427      0.02416347408571      0.02637312818954
  C   0.63501376496007      0.08367689276573     -0.17021948784693
  Cl  -1.62372446562728      0.13322638467078     -1.63442539789851
  H   0.92386182100303      1.00720175949372     -0.67685720582467
  H   -1.14767550726686     -0.96232817776410      0.40188970033034
  N   -1.28095561993886      1.03033309928661      0.93189136395616
  H   -2.23566227120585      0.90258756966345      1.23862063418723
  H   -1.17624933217848      1.95951305479330      0.54426380401542
  N   1.07619989371424     -1.04112450385279     -1.07941753617890
  O   0.73047936692681     -2.16721875111672     -0.74377481869116
  O   1.73846053335715     -0.72853412836614     -2.06042680463089
  C   1.33182252182963     -0.06006883741569      1.10322367788990
  N   1.90813505466068     -0.18242783624385      2.11885894250247
