13
Coordinates from ORCA-job run
  C   -0.89363138929681      0.31282238171809     -0.25729822567730
  C   0.57818652385975      0.06853241503329     -0.59619506690329
  Cl  -1.25341279292079      2.03135848214937     -0.76622780991273
  H   0.75961214501350      0.28268497694741     -1.65119396308455
  H   -1.50179127042147     -0.31011774747886     -0.91058502447488
  N   -1.14220106751385     -0.00068033285932      1.09212473372576
  H   -0.67352924071209      0.62559240346957      1.73565976096887
  H   -2.12935384148225     -0.03358734388677      1.30451025813238
  N   0.83252613996883     -1.41715800196134     -0.41913862896560
  O   1.60642272249393     -1.78005293914073      0.45396468673861
  O   0.20020259302516     -2.12873982846348     -1.19105534461934
  C   1.46892670462705      0.84556829178025      0.25435400357946
  N   2.14804277335905      1.50377724269251      0.95008062049262
