13
Coordinates from ORCA-job run
  C   -0.85564863578403      0.31033985608474     -0.36585021234508
  C   0.65620785069745      0.11898464099690     -0.49920222740828
  Cl  -1.18899535066852      2.05050146365702     -0.81669491969829
  H   0.98276581817160      0.40497912971547     -1.50085047271388
  H   -1.34369953068837     -0.28131490595651     -1.13810694378175
  N   -1.28830483687831     -0.09440219085799      0.91085949322138
  H   -0.93648479437488      0.49856542424899      1.65292128866544
  H   -2.29476340271075     -0.15944247452328      0.97361132051391
  N   0.92637595795256     -1.36989713510050     -0.37895450368524
  O   0.43575462098974     -2.04193971588541     -1.27873892277032
  O   1.57484785585585     -1.77347065588497      0.57464337792804
  C   1.39069824839369      0.85595166895820      0.51950141500566
  N   1.94224619904397      1.48014489454733      1.34686130706841
