13
Coordinates from ORCA-job run
  C   -0.83399747304486      0.33611334905746     -0.39247099316074
  C   0.67384370794030      0.09342929867948     -0.48123781686287
  Cl  -1.09508356459702      2.08373604030614     -0.86301825007713
  H   1.03774170010243      0.35977132315884     -1.47541091153460
  H   -1.31978220251056     -0.24392703067698     -1.17493071537877
  N   -1.31625166002322     -0.04501048524871      0.87353860186638
  H   -0.96677636019215      0.54099255254504      1.62219612200054
  H   -2.32547519402501     -0.07874272969667      0.90759128604071
  N   0.89031849125469     -1.40242515180256     -0.34181700678465
  O   0.40236262983126     -2.06578707178962     -1.24949007209166
  O   1.49810372567981     -1.81887387004954      0.63292261161499
  C   1.40355529990804      0.81442501435919      0.55225766970990
  N   1.95244089967629      1.42729876115791      1.38986947465789
