13
Coordinates from ORCA-job run
  C   -0.87564471323709      0.45143573876685     -0.43697453885982
  C   0.63005962324956      0.12073480471654     -0.47174915961593
  Cl  -0.99041432655114      2.18361173328263     -0.88058884127182
  H   1.05655536177480      0.36576299684179     -1.44933714195972
  H   -1.36042649289213     -0.11172340528319     -1.23184890703714
  N   -1.54566574037885      0.20197499184414      0.78890730899409
  H   -1.08011104506162      0.60502473904810      1.59143431205887
  H   -1.73650732850467     -0.78102561952422      0.92058833607273
  N   0.83624196149503     -1.38057927061889     -0.31411032607989
  O   -0.07949129693213     -2.09861722062793     -0.70302305562830
  O   1.91242692567568     -1.75090858168830      0.13332174247431
  C   1.35533483322282      0.80796263574672      0.58744608420796
  N   1.87564223813974      1.38634645749577      1.46693418664466
