13
Coordinates from ORCA-job run
  C   -0.67873084771717      0.62790927462275      0.18872697799044
  C   0.45333363264979     -0.05424106997261     -0.59212829599050
  Cl  -0.00668389360630      1.08268850485780      1.82855990028999
  H   0.01237570386128     -0.50859795930586     -1.48471209699860
  H   -0.87304548135665      1.58640097469262     -0.29333841331348
  N   -1.85764859518620     -0.14653408532163      0.19452593034748
  H   -1.72494228958500     -1.03530991069893      0.65853064059173
  H   -2.62542055598868      0.35738029989146      0.61738450905497
  N   1.04013785630043     -1.20730666968247      0.19715220560432
  O   0.23102259174976     -2.06764339459150      0.53042534186890
  O   2.23924154998420     -1.20455849395812      0.42945972121116
  C   1.49864727378649      0.88822711986207     -0.96371298532974
  N   2.29171305510806      1.68058540960441     -1.31187343532667
