13
Coordinates from ORCA-job run
  C   -0.86302479366670      0.10660690600068     -0.13999300228180
  C   0.66073612360537      0.03427495572068     -0.03906553826412
  Cl  -1.25366312501543      0.39860537672502     -1.89720507091753
  H   1.11683057004061      0.95848099291109     -0.40071481351609
  H   -1.27841819882381     -0.87311927861410      0.09142226338011
  N   -1.35232229292306      1.08217675261616      0.75494969123217
  H   -2.35490654827144      1.02327228668184      0.86763314117003
  H   -1.10072546800048      2.02183815362813      0.47550089813388
  N   1.18052218429807     -1.06305574750623     -0.93986036437400
  O   0.68627198621833     -2.17124288471544     -0.77273014864105
  O   2.04489250885629     -0.74910797803207     -1.74799379071784
  C   1.07889225399988     -0.26095986978364      1.32682360987936
  N   1.43291479968238     -0.50576966563212      2.41923312491689
