13
Coordinates from ORCA-job run
  C   -0.66296945985453      0.66947631982760      0.05139999557074
  C   0.50553161915222     -0.13591164504448     -0.53391998628591
  Cl  -0.13198985048553      1.27531819969193      1.69452708154462
  H   0.13190360068849     -0.66797222504406     -1.41428379850339
  H   -0.76261818584883      1.57594550675665     -0.54622587784735
  N   -1.87264608329694     -0.05497292287980      0.01935262496996
  H   -2.65254296150015      0.52029270378288      0.30768792303973
  H   -1.82779000454634     -0.89177610738446      0.58553404723151
  N   0.95694528129352     -1.21725040062372      0.42709839176160
  O   2.12747911697168     -1.23609347654815      0.77538786161927
  O   0.07855626271554     -2.00417360294501      0.76615698972349
  C   1.62603405036550      0.72074848670746     -0.89402543648743
  N   2.48410661434538      1.44436916370317     -1.23768981633683
