13
Coordinates from ORCA-job run
  C   -0.87906523405358      0.44160880082513     -0.43531936411323
  C   0.63181011524763      0.13305541986093     -0.47132349233344
  Cl  -1.02101594831254      2.17498745236335     -0.86640870360747
  H   1.05179958441563      0.38298754192918     -1.45042893395462
  H   -1.35401215470056     -0.12322655591509     -1.23476995434632
  N   -1.54422802000745      0.17068904296212      0.78826133353515
  H   -1.73305611207366     -0.81416337490727      0.90760049945036
  H   -1.08167954872243      0.56602683307593      1.59619132293543
  N   0.85052884640947     -1.36581703355868     -0.31370227845314
  O   -0.02466810666500     -2.08837755210931     -0.77968578498609
  O   1.89263615949146     -1.73078944590523      0.21211147700393
  C   1.34795793012736      0.83183222468552      0.58630471600459
  N   1.86199248884366      1.42118664669343      1.46216916286483
