13
Coordinates from ORCA-job run
  C   -0.88072307764768      0.05312570340665     -0.03218632447321
  C   0.62851825312596      0.05007181874068     -0.29713873917061
  Cl  -1.70893301049745     -0.10724930182155     -1.59492316731331
  H   0.87266837609459      0.82606292977936     -1.02314436889006
  H   -1.13797533158813     -0.84002712700689      0.54567817206078
  N   -1.21695885204070      1.32361512981569      0.56608135825387
  H   -2.20857315528102      1.50203461166557      0.47065714161807
  H   -0.99182860833910      1.30641486550058      1.55507147423718
  N   1.04123197518019     -1.26938816944151     -0.89789511227702
  O   0.76272844488900     -2.26877720681894     -0.24428614250533
  O   1.59978760317639     -1.22834063368378     -1.98713193203464
  C   1.35300983395532      0.24149769388381      0.95376987030414
  N   1.88804754897263      0.41095968598032      1.98544777019015
