13
Coordinates from ORCA-job run
  C   -0.80391359052878      0.58962454814212      0.09986164268065
  C   0.52571510242149     -0.00507770374495     -0.44848532108922
  Cl  -0.43982929545491      1.31328785570928      1.69370965340886
  H   0.28812738850120     -0.58692934500345     -1.34391008034971
  H   -1.06024737992391      1.41769969587501     -0.56442496385391
  N   -1.91519768576725     -0.29167653536140      0.18856334224760
  H   -1.66882924018996     -1.17392336046840      0.61684684464979
  H   -2.34316344200141     -0.44152217353243     -0.71506324678986
  N   1.10317590065224     -0.99935785536122      0.52978009668790
  O   0.41808467848163     -2.00530320253633      0.70185068804626
  O   2.16387534302034     -0.73635637494659      1.07685820077778
  C   1.49978091148801      1.02851849321398     -0.76329175608278
  N   2.23342130930129      1.89201595801439     -1.07129510033336
