13
Coordinates from ORCA-job run
  C   -0.94016065606633      0.13868760093389     -0.12128097416869
  C   0.59623101907883      0.01206917450743     -0.20532453171373
  Cl  -1.52267162106201      0.35071649225154     -1.79524847831099
  H   1.02458428040512      0.87355426606804     -0.72164669596452
  H   -1.33578906903208     -0.81039871464059      0.24225879124228
  N   -1.40698347956589      1.20070826840842      0.70434787485486
  H   -1.31022416821405      0.98663244932677      1.68769771791396
  H   -0.98031904203760      2.09093893394594      0.48519272009440
  N   0.97533088059228     -1.20080852894982     -1.01995073650755
  O   1.68688473959700     -1.01076096080369     -1.99818870320140
  O   0.51669866896712     -2.26888784812088     -0.63019423948252
  C   1.15060144431325     -0.13352040453365      1.13515285514863
  N   1.54581700302437     -0.22793072839338      2.23718440009528
