13
Coordinates from ORCA-job run
  C   -0.85349480901568      0.14865713828350     -0.15814308721634
  C   0.66227504108868      0.01059445111905     -0.01727517040786
  Cl  -1.17710333838607      0.56728929252132     -1.90365187771378
  H   1.16406678354250      0.93716451402829     -0.30484325314033
  H   -1.31262647439250     -0.82661488362362     -0.00335185994518
  N   -1.33442220549014      1.08418926285077      0.78302821718306
  H   -2.34190097236420      1.06051335399209      0.86020016925829
  H   -1.03613418499386      2.02845661129402      0.57337996958622
  N   1.16904769756603     -1.04749441937416     -0.97086529022047
  O   2.07099320635808     -0.71807286416763     -1.73023357636758
  O   0.62770196860370     -2.14327413057029     -0.89055734756617
  C   1.02558781084280     -0.38643221016466      1.33856904617401
  N   1.33500947664068     -0.71397611618867      2.42274406037613
