13
Coordinates from ORCA-job run
  C   -0.83832630511919      0.47799298663528     -0.32672139902121
  C   0.63826658924113      0.10814192545425     -0.50238881487734
  Cl  -1.02019207844718      2.17718536214101     -0.86936967781840
  H   0.95510453357443      0.34884878646352     -1.51720451495765
  H   -1.41025874141880     -0.10868791038993     -1.05668414473367
  N   -1.22673882001043      0.35828567654711      1.03929782918218
  H   -2.22968422099172      0.41480388431196      1.15048135397979
  H   -0.87255293140745     -0.48949357649248      1.46425951748885
  N   0.74785011100346     -1.39836857351129     -0.38939914468035
  O   0.69082455039516     -2.01450019883639     -1.44749816978812
  O   0.82077606945495     -1.87861369741596      0.73797520145277
  C   1.50437898643580      0.74781337255752      0.47825259595515
  N   2.24055225728986      1.25459196253539      1.23899936781802
