13
Coordinates from ORCA-job run
  C   -0.73032480855737      0.67163599242430      0.13501341672384
  C   0.44172171377000     -0.11698450424629     -0.51728666260996
  Cl  -0.05352040344928      1.56661998589487      1.52765903760862
  H   0.01607109886266     -0.79121322148093     -1.26629960215420
  H   -1.03296724481861      1.42375229942658     -0.59648581152687
  N   -1.87152455414524     -0.08006991708495      0.52436030631069
  H   -2.46045797475895     -0.30033570580731     -0.26711145826789
  H   -1.62145971566410     -0.92058548379149      1.02724023910140
  N   1.10191914750263     -1.01784933621517      0.49839655179322
  O   0.38543293377687     -1.92065125119727      0.92490893393523
  O   2.25467288745164     -0.78314951408785      0.82941100127798
  C   1.42111195414510      0.76445702576642     -1.13431120320563
  N   2.14932496588465      1.50237363039908     -1.68549474898645
