13
Coordinates from ORCA-job run
  C   -0.77896633577051      0.51863459940135     -0.11952095548878
  C   0.61925961842799     -0.04087969898648     -0.41755769529172
  Cl  -0.71917586644980      1.25917808323410      1.55224883983126
  H   0.54392682282244     -0.65896513799518     -1.31758299187037
  H   -0.93463856040897      1.37054604505486     -0.78200374223867
  N   -1.78942496561534     -0.44120532430766     -0.33737214095844
  H   -1.69457627558550     -1.23748449473577      0.27897000142013
  H   -2.70956726092957     -0.03327244207459     -0.24153541889950
  N   1.07359067233952     -0.98253618066365      0.67949977312753
  O   0.31928356271033     -1.92659295539034      0.89285891626974
  O   2.12937495097326     -0.74939602860501      1.24764352157208
  C   1.59627437369493      1.02106922934115     -0.60983078433449
  N   2.34363926379122      1.89990430572724     -0.82681732313877
