13
Coordinates from ORCA-job run
  C   -0.71830356176268      0.62425049661007      0.14666578354944
  C   0.54435963999987      0.03039013248770     -0.49767062591106
  Cl  -0.34775896861521      1.40801390820908      1.69837916278333
  H   0.28225943919227     -0.32343105505939     -1.49866692760517
  H   -1.04130233953008      1.43963586562604     -0.51371925626013
  N   -1.66634397283317     -0.42985090601499      0.37160214097231
  H   -2.51880663326552     -0.06002034146676      0.77158186166954
  H   -1.88265012793721     -0.92254335921207     -0.48713655538533
  N   0.97630727774949     -1.20709870916207      0.25142993306363
  O   1.66272948837580     -1.04779961375200      1.25102556037481
  O   0.56638272234386     -2.26666953150135     -0.20949565393851
  C   1.63783282876700      0.98606703844776     -0.58423894547277
  N   2.50529420751556      1.76805607478799     -0.70175647784009
