13
Coordinates from ORCA-job run
  C   -0.66801858680135      0.64650341408937      0.15935585706027
  C   0.49689269849892     -0.05120161524396     -0.55705630361379
  Cl  -0.11230745303198      1.01292092389946      1.86378823352692
  H   0.11193169823402     -0.45534004435356     -1.49837522111285
  H   -0.78741399307505      1.62924846541439     -0.29756496318465
  N   -1.87149703425610     -0.07987824248224      0.04195651078837
  H   -2.65122155372508      0.43886255368979      0.42308119160343
  H   -1.80909331771690     -0.98901834261382      0.48071955995905
  N   0.97706761425189     -1.25430461785175      0.22964037082193
  O   0.11278403002282     -2.09246522002286      0.46708661333926
  O   2.15374927843424     -1.30805274132916      0.55258318257146
  C   1.60165736758511      0.86274453557467     -0.80817665176330
  N   2.44546925157945      1.63998093122968     -1.05703837999610
