16

C	-0.558864	-0.004684	-1.410713
C	0.0	0.0	0.0
Cl	0.176551	-1.413885	-2.340373
H	1.090974	0.0	0.0
H	-0.317947	0.954379	0.439211
N	-1.99845	-0.128283	-1.389318
H	-2.338029	-0.156211	-2.344719
H	-2.268017	-0.999148	-0.946966
N	-0.135217	1.173391	-2.122369
H	-0.618934	1.968386	-1.718854
H	-0.371584	1.099585	-3.105156
C	-0.491772	-1.147216	0.877396
H	-1.558808	-1.076274	1.111556
H	-0.292326	-2.110574	0.40213
H	0.058127	-1.134887	1.820449
Br	3.843656	0.0	0.0
