16

C	-0.330477	-0.024525	-1.482695
C	0.0	0.0	0.0
Cl	-2.133485	-0.697099	-1.626974
H	1.096052	0.0	0.0
H	-0.319577	-0.953489	0.429281
N	-0.222165	1.234255	-2.089377
H	-0.387097	1.153984	-3.083464
H	-0.827372	1.925006	-1.671695
N	0.459933	-0.949339	-2.255178
H	1.432948	-0.691628	-2.07716
H	0.330496	-1.880459	-1.876519
C	-0.56843	1.167303	0.787556
H	-0.119374	2.107758	0.460307
H	-0.329107	1.053318	1.847233
H	-1.657151	1.230323	0.689332
Br	3.662301	0.0	0.0
