16

C	-0.414807	0.305176	-1.437648
C	0.0	0.0	0.0
Cl	-0.207211	-1.280599	-2.433777
H	1.092539	0.0	0.0
H	-0.304337	0.88908	0.568557
N	-1.800728	0.667426	-1.681525
H	-1.984517	1.496748	-1.125354
H	-2.404564	-0.081774	-1.362661
N	0.395318	1.350076	-1.920543
H	0.24201	1.495435	-2.90915
H	1.378237	1.179671	-1.718762
C	-0.57472	-1.251715	0.639938
H	-0.168475	-2.151055	0.178203
H	-1.668169	-1.289726	0.567089
H	-0.310499	-1.269613	1.700743
Br	3.667492	0.0	0.0
