13
Coordinates from ORCA-job run
  C   -0.80325954018762      0.20934054245145     -0.47918908222140
  C   0.47299719158952      0.68988615436973      0.18565971052289
  Br  -2.08954904938231      1.78758090283705     -0.53479058150711
  H   0.24510447844553      0.96795726170673      1.22068134215440
  H   -0.65085004934731      0.00821650053228     -1.53981179146214
  H   0.80443249467256      1.60165230201613     -0.31579897211273
  N   -1.34461589566906     -0.92986952163116      0.15146293747918
  H   -2.17102499236316     -1.27583979104745     -0.31685871370050
  H   -1.56331614403156     -0.75019250494975      1.12348196164036
  C   1.56536024610737     -0.37616918930346      0.13886140015452
  H   1.78857644368324     -0.65896093534970     -0.89338333642610
  H   2.48686406935594      0.00255502327870      0.58717837544629
  H   1.26128074712686     -1.27615674491054      0.67250675003235
