13
Coordinates from ORCA-job run
  C   -0.82113079138231      0.27950280323915     -0.12018647340298
  C   0.45579239124308     -0.48078309258429      0.18479369981443
  Br  -1.09235694103149      1.72530992769964      1.18735913537825
  H   0.35584884196337     -0.91764017140536      1.18189296283616
  H   -0.72279667391693      0.82327054809048     -1.06790264480559
  H   0.49981254894085     -1.31465722943673     -0.52923868879852
  N   -1.96134937751312     -0.59969871594665     -0.03740296985765
  H   -1.80908415453486     -1.40438658139944     -0.63494104078330
  H   -2.80468252411411     -0.12695000979104     -0.33787903921473
  C   1.72870694790994      0.34724604977561      0.06695990366195
  H   1.75420014246798      1.13999564860919      0.81503164662192
  H   1.80837238912607      0.80973045308207     -0.92057497635782
  H   2.60866720084152     -0.28293962993263      0.21208848490787
