13
Coordinates from ORCA-job run
  C   -0.96724294398104      0.42104149126311     -0.36001101100488
  C   0.52420599540000      0.25237651288750     -0.64969104496801
  Br  -1.22997129769602      1.99228444182691      0.79707685118145
  H   0.59800011606133     -0.52907514708116     -1.41814521811664
  H   -1.48839400344801      0.68138739822406     -1.28340863771758
  H   0.90126648952037      1.17541653756689     -1.09972099320263
  N   -1.65790468473714     -0.69412685108738      0.23578432595798
  H   -1.19983058013604     -0.99423546636060      1.08666880391230
  H   -1.68405943362212     -1.46877817077913     -0.41755537374639
  C   1.38002081430965     -0.13332278139388      0.55039243571427
  H   1.07216311844898     -1.09164739207991      0.97496424859453
  H   1.32666477186741      0.62395040664802      1.33367923012047
  H   2.42508163801264     -0.23527097963442      0.25096638327513
