17
Coordinates from ORCA-job run
  C   -0.82732012801844      0.21745532439467      0.25232182169890
  C   0.70017598896204      0.05495000143698      0.38737703436591
  Cl  -1.32157662160587      1.70932772074147      1.19069210086889
  H   0.93221188857533     -0.15255108883232      1.43377611970563
  N   -1.41894488826104     -0.96844527356452      0.79428961458886
  H   -2.42800654056389     -0.91539478616098      0.71486908082559
  H   -1.18012242225862     -1.09032274714121      1.77221396154648
  N   -1.22151446808168      0.44669766251550     -1.10963719402981
  H   -1.34067997051294     -0.44228702513358     -1.57945145333228
  H   -2.07638144232572      0.98218613085211     -1.16391347820619
  N   1.41573041545671      1.34477208802737      0.11419835383278
  O   1.54135440483024      1.69269631451649     -1.05553160597187
  O   1.84699016736667      1.95160558831888      1.09426300758801
  C   1.24080344654645     -1.01375274689460     -0.54183896795158
  H   0.74755277438560     -1.96377845386800     -0.33874940197553
  H   1.07423726116623     -0.72037122745076     -1.57742868765213
  H   2.31549013433892     -1.13178748175751     -0.38845030590164
