17
Coordinates from ORCA-job run
  C   -0.84415163790754      0.13752320617770      0.00666489430307
  C   0.66529966931433     -0.17477953340127      0.13905199925634
  Cl  -0.94600881747089      1.68249704359619     -1.02157192935060
  H   0.74001638656639     -1.06812558008577      0.76782627149913
  N   -1.48525610794859      0.29995180891086      1.23221946705976
  H   -0.96212628588209      0.52678121742619      2.05740338722729
  H   -2.41762716278609     -0.05109496054083      1.33911989710004
  N   -1.43316665693016     -0.89643202737980     -0.82601222885639
  H   -1.71451111173061     -1.66372925499250     -0.22559448586389
  H   -2.24985016346432     -0.53316994621370     -1.30054387582881
  N   1.36523357302598      0.89030992885651      0.95830103867660
  O   0.98632656360095      1.03601431788452      2.12102642573084
  O   2.26096203576326      1.53387796452348      0.42638030112915
  C   1.37888457013778     -0.38652472544373     -1.17664836550652
  H   2.39982476960903     -0.72344105508506     -0.99760709589631
  H   0.84071652768812     -1.14276206689916     -1.74444480930034
  H   1.41543384841445      0.53210366266637     -1.75557089137938
