17
Coordinates from ORCA-job run
  C   -0.85343818940824     -0.03028144427167     -0.07239044151078
  C   0.64642917864423      0.01427041406846      0.25357084088412
  Cl  -1.09877977311099     -0.25581138099501     -1.87544721602565
  H   0.70848709790549     -0.11182820344211      1.33705842415460
  N   -1.51309149447100      1.12531829635722      0.43332482440191
  H   -1.20470148038228      1.96146332532500     -0.04797162572021
  H   -2.51454730182200      1.02806005149080      0.31547994338861
  N   -1.34982514733282     -1.24648643400835      0.53984681616258
  H   -2.16193030558107     -1.59019565668728      0.04436256383075
  H   -1.60668998147976     -1.03548262970904      1.49822453862975
  N   1.27770689315839      1.35509064751258      0.01277957833689
  O   0.80441638623015      2.09385819469835     -0.85010034561081
  O   2.28177162163386      1.59543868985071      0.67683579087913
  C   1.49432661055555     -1.03306437318602     -0.44387547053367
  H   2.48148888881710     -1.06843824973907      0.01850419622972
  H   1.00705904911349     -2.00121921945917     -0.33796343181287
  H   1.60231794752991     -0.80069202780540     -1.50323898568408
