14

C	0.0	0.0	0.0
C	-0.523389	0.186829	-1.429411
Cl	1.774451	0.0	0.0
H	-1.608237	0.319773	-1.295062
H	-0.29524	0.881052	0.578652
N	-0.51353	-1.249182	0.502786
H	-1.535433	-1.152971	0.484903
H	-0.233304	-1.358641	1.470554
N	-0.179996	-0.966141	-2.262594
H	-0.925993	-1.095694	-2.937212
H	-0.198347	-1.769068	-1.640056
C	0.008331	1.420396	-2.023141
N	0.395692	2.414459	-2.51401
Br	-3.738165	0.0	0.0
