14

C	0.0	0.0	0.0
C	-0.571849	0.319935	-1.370661
Cl	1.844107	0.0	0.0
H	-1.660048	0.363453	-1.169872
H	-0.255737	0.794911	0.700156
N	-0.517218	-1.226181	0.420048
H	-0.381955	-1.948671	-0.271295
H	-0.24188	-1.497582	1.350656
N	-0.308832	-0.774684	-2.297934
H	0.571131	-0.632943	-2.778481
H	-1.056236	-0.826361	-2.977941
C	-0.119878	1.627234	-1.868875
N	0.223658	2.650173	-2.334999
Br	-3.916624	0.0	0.0
