14

C	0.0	0.0	0.0
C	-0.573798	0.338504	-1.36646
Cl	1.848532	0.0	0.0
H	-1.662234	0.379795	-1.166631
H	-0.253788	0.78613	0.710548
N	-0.515288	-1.231841	0.404064
H	-0.39826	-1.938591	-0.306964
H	-0.217562	-1.528546	1.319079
N	-0.310342	-0.740846	-2.309903
H	-1.055584	-0.780176	-2.99252
H	0.571653	-0.594108	-2.784543
C	-0.122807	1.654936	-1.841264
N	0.221377	2.689166	-2.279948
Br	-3.923216	0.0	0.0
