14

C	0.0	0.0	0.0
C	-0.497499	0.437435	-1.392663
Cl	1.780419	0.0	0.0
H	-1.590445	0.504116	-1.289731
H	-0.288398	0.766136	0.728586
N	-0.506342	-1.319407	0.269257
H	-1.528722	-1.222945	0.255607
H	-0.245977	-1.584405	1.213019
N	-0.19071	-0.480317	-2.478829
H	-0.704139	-1.333611	-2.288426
H	0.79526	-0.717374	-2.432284
C	0.003101	1.779463	-1.711811
N	0.399667	2.857484	-1.953583
Br	-3.695172	0.0	0.0
