14

C	0.0	0.0	0.0
C	-0.5778	0.338142	-1.365664
Cl	1.847604	0.0	0.0
H	-1.664233	0.388946	-1.159071
H	-0.252619	0.787392	0.709823
N	-0.51524	-1.230654	0.405439
H	-0.223164	-1.524076	1.323116
H	-0.399441	-1.939117	-0.303929
N	-0.331278	-0.748224	-2.306087
H	-1.093487	-0.79626	-2.968439
H	0.538201	-0.603499	-2.803715
C	-0.118176	1.647964	-1.848903
N	0.231124	2.680914	-2.286931
Br	-3.923424	0.0	0.0
