17

C	0.0	0.0	0.0
C	-0.624707	0.119163	-1.383426
Cl	1.790184	0.0	0.0
H	-1.713638	0.216676	-1.095891
H	-0.305056	-0.986216	0.351402
C	-0.500962	1.035799	0.990796
H	-0.121665	0.803029	1.988618
H	-1.593611	0.941186	0.940526
H	-0.176581	2.037853	0.711849
C	-0.371849	-1.085202	-2.261586
H	0.690306	-1.302025	-2.380731
H	-0.804601	-0.935587	-3.252866
H	-0.87487	-1.935904	-1.797231
N	-0.171861	1.365149	-2.05691
O	0.66541	1.28447	-2.962856
O	-0.65777	2.430666	-1.67304
F	-2.92905	0.0	0.0
