17

C	0.0	0.0	0.0
C	-0.622911	0.054806	-1.387183
Cl	1.790032	0.0	0.0
H	-1.704093	0.240702	-1.110592
H	-0.305615	-0.968284	0.396107
C	-0.486022	1.073831	0.958038
H	-0.11537	0.858213	1.964686
H	-0.135796	2.059535	0.652972
H	-1.57968	1.00078	0.913366
C	-0.489686	-1.246307	-2.144498
H	-0.892414	-1.153187	-3.154171
H	-1.089865	-1.983211	-1.606205
H	0.546133	-1.58597	-2.21659
N	-0.08082	1.195248	-2.170959
O	0.552947	0.962441	-3.205665
O	-0.296364	2.333324	-1.749623
F	-2.900871	0.0	0.0
