13
Coordinates from ORCA-job run
  C   -0.41128536391563      0.14960029170996     -0.13168751025064
  C   1.04074671032690     -0.33324582931985     -0.27754984975144
  Cl  -1.09877247108799      0.38765596184579     -1.77056803459061
  H   1.03618425201567     -1.27200848090257     -0.83871061651460
  H   1.44478406670176     -0.53417910306322      0.72018626025257
  C   -1.24767435607156     -0.88589903363658      0.61201652152876
  H   -1.22455271443234     -1.83248134604056      0.06896736787495
  H   -0.84761664234971     -1.03369303670410      1.61811852155782
  H   -2.28197528024164     -0.55070145136409      0.68965267110679
  C   -0.44342563297484      1.43199569774447      0.57305403590641
  N   -0.46525527581921      2.43497805930783      1.18467882048691
  C   1.90029257875918      0.63310669009508     -0.95507677300203
  N   2.59955012908943      1.40587158032785     -1.49408141460488
