13
Coordinates from ORCA-job run
  C   -0.56003595070853      0.18747616922221     -0.26166155552309
  C   0.81384795569427      0.03072337000562     -0.93855113541506
  Cl  -1.79029554948621      0.09385976222755     -1.56725018679506
  H   0.83304331740569     -0.92841044595579     -1.46394548883036
  H   0.95293113985153      0.82182459178007     -1.67966625507851
  C   -0.82920333870287     -0.91045174433301      0.75890586867063
  H   -1.82958300767330     -0.79717039033536      1.17711903582000
  H   -0.09718054321099     -0.85443254697173      1.56757465465458
  H   -0.75781528679437     -1.88539178896574      0.27263535612419
  C   -0.66017520767159      1.50801410548692      0.36172960848259
  N   -0.72306468495334      2.55850579299040      0.88439318037663
  C   1.89639154238974      0.07444203334619      0.04140468937088
  N   2.75013961385998      0.10101109150267      0.84631222814256
