13
Coordinates from ORCA-job run
  C   -0.45428899159874      0.31035223822794     -0.19288457039786
  C   1.07700401223996      0.47133724144784     -0.24121013635794
  Cl  -1.06579990283686      0.16622948551753     -1.87331745112486
  H   1.44074099151706      0.68046220975419      0.77017688580457
  H   1.33539797727433      1.32306752034690     -0.87502666823678
  C   -0.88773456813899     -0.91288382193395      0.60481542618983
  H   -0.51260996298771     -0.83777794902841      1.62890135040495
  H   -0.48960971237293     -1.81585638342120      0.13997041747213
  H   -1.97565542376230     -0.97740298421089      0.63037730021255
  C   -1.01441367721970      1.53006306066166      0.39303844835311
  N   -1.43628600239808      2.50341929627201      0.89815961975915
  C   1.73179012394194     -0.73197968837929     -0.74632086736421
  N   2.25046513634201     -1.70903022525433     -1.13767975471464
