13
Coordinates from ORCA-job run
  C   -0.47370594651158      0.28076383897461     -0.19031261519809
  C   1.04669297690889      0.49558888007076     -0.31229025182239
  Cl  -1.14534063064115      0.01345991693208     -1.83224533744739
  H   1.44219362791155      0.77616866196494      0.66948786232473
  H   1.24550558036487      1.31838841470709     -1.00332631117828
  C   -0.82621175726168     -0.90779080118317      0.69469316944160
  H   -1.90879755877390     -1.01104883023381      0.76990152441195
  H   -0.41364541379395     -0.75805851384540      1.69585274103562
  H   -0.41153417452992     -1.82136624787941      0.26654727864372
  C   -1.05882180166384      1.51159764457501      0.34564032267751
  N   -1.50128900991559      2.49703592781748      0.80749114450088
  C   1.72868144659965     -0.70927982121790     -0.77639435803927
  N   2.27627266130666     -1.68345907068228     -1.13404516935060
