13
Coordinates from ORCA-job run
  C   -0.41543415071892      0.17229718755501     -0.08422073760621
  C   1.01226865549305     -0.31378629468426     -0.38133808160007
  Cl  -1.20056076756967      0.61505098853828     -1.63406142640776
  H   1.47610100215635     -0.63170996711354      0.55828947761020
  H   0.94905974191635     -1.18357724894459     -1.04149677441920
  C   -1.22722941952660     -0.93067769577398      0.58620730631225
  H   -0.76687497842836     -1.20432703985664      1.53875080921550
  H   -1.26216697049097     -1.80577257141830     -0.06535389037016
  H   -2.24596845931562     -0.59026718567067      0.77179714816358
  C   -0.37063667435384      1.36144501603392      0.76791357170090
  N   -0.32591595862581      2.28218656305859      1.49652179051929
  C   1.84776638419815      0.70797209004976     -1.00562597434484
  N   2.52859159526589      1.52116615822642     -1.50738321877347
