13
Coordinates from ORCA-job run
  C   -0.41759121176634      0.16264658428505     -0.08937535671782
  C   1.02223745883022     -0.29446130189302     -0.37323929146079
  Cl  -1.19514346242927      0.59238492271975     -1.64714246965759
  H   1.48078115901415     -0.61256559400948      0.56880861181596
  H   0.98280977173728     -1.15888537289749     -1.04203260364058
  C   -1.21447012414745     -0.95705766809362      0.57093735358771
  H   -2.24171315555372     -0.63696329535695      0.74599561202515
  H   -1.22505831930785     -1.83198790430195     -0.08181190363569
  H   -0.75890003440941     -1.22266519685585      1.52814267909536
  C   -0.40599949841786      1.35182717521651      0.76377461478945
  N   -0.38976290685655      2.27527781129481      1.49002736402138
  C   1.84607172365869      0.74881830749525     -0.97710924226463
  N   2.51773859964811      1.58263153239700     -1.45697536795790
