13
Coordinates from ORCA-job run
  C   -0.41545068927283      0.15925009460718     -0.10191345316022
  C   1.02163572086512     -0.32886783625814     -0.34488322401106
  Cl  -1.18235438667522      0.48161206281149     -1.69060775910207
  H   1.47345561910633     -0.58203876119529      0.61981930618949
  H   0.97749262681188     -1.23893058984761     -0.94977471994663
  C   -1.22485542262191     -0.90343143218251      0.63318411881018
  H   -1.23944650841969     -1.82303208364526      0.04528636664036
  H   -2.25018921585601     -0.56344089685051      0.77871542020329
  H   -0.77655185011292     -1.10287765631532      1.60958500382789
  C   -0.39825200519240      1.40718340463936      0.66281313823841
  N   -0.38036372250096      2.38293017061020      1.31700360343035
  C   1.85674336021090      0.66096520702011     -1.01914301965587
  N   2.53613647365772      1.45067831660629     -1.55908478146412
