13
Coordinates from ORCA-job run
  C   -0.40717940596163      0.19562582053450     -0.07017924225871
  C   1.00823237377666     -0.30239380274441     -0.40389551919859
  Cl  -1.14306890278612      0.85928385148743     -1.56491242277354
  H   1.43754570159752     -0.76310071166816      0.49188821635217
  H   0.92867264348797     -1.07116523213595     -1.17767883680048
  C   -1.27159612924001     -0.95129455294929      0.44173737373527
  H   -2.28148820146832     -0.59845802593159      0.65117087427920
  H   -1.32314729341398     -1.73615412159922     -0.31529273188062
  H   -0.84187209156370     -1.35934235835308      1.35999014443097
  C   -0.33915253124530      1.26664259233782      0.92495620909192
  N   -0.28009739921612      2.09023544201225      1.76086554407677
  C   1.89549855240352      0.76114654494385     -0.86587647397869
  N   2.61765268362951      1.60997455406586     -1.23277313507569
