13
Coordinates from ORCA-job run
  C   -0.42147805691005      0.38650347292759     -0.11500106199147
  C   1.11435171164320      0.37781325773347     -0.23267108408813
  Cl  -1.11782847583487      0.58140687358104     -1.75694356486433
  H   1.44702450852487      1.28438996998462     -0.74391093622680
  H   1.54443060390468      0.38109260769322      0.77431949958229
  C   -0.96655988297365     -0.89021616593623      0.51188481281955
  H   -0.70141659042633     -1.74718028897114     -0.10875988400971
  H   -0.54188904944613     -1.02183485414652      1.51058142010282
  H   -2.05217790668982     -0.83396540620546      0.59347489036683
  C   -0.80189192222430      1.55426118082901      0.68256923257045
  N   -1.07697959637241      2.47935354267021      1.35273455048220
  C   1.59604411542683     -0.79720176850268     -0.95336990001078
  N   1.97937054137797     -1.75342242165714     -1.51490797473292
