13
Coordinates from ORCA-job run
  C   -0.54946694112883      0.19332627717070     -0.27862226739461
  C   0.83620153157911     -0.00879161380547     -0.91856152270380
  Cl  -1.75044014755836      0.09835789045679     -1.61125978733413
  H   1.00931098181626      0.76087742539639     -1.67494261146428
  H   0.84749589437027     -0.98080843421967     -1.42000365338375
  C   -0.86755123199061     -0.87573822763679      0.75821880589133
  H   -1.87353658004264     -0.72993032496423      1.15215631345273
  H   -0.15183050153861     -0.82037689771811      1.58130473269121
  H   -0.80989830683050     -1.86207197348568      0.29371367047531
  C   -0.63394691780234      1.52936452740606      0.31323686094992
  N   -0.68387471251445      2.59234250539100      0.81134617870618
  C   1.89630738867782      0.03704913538457      0.08556612076427
  N   2.73322954296289      0.06739971062443      0.90784715934961
