13
Coordinates from ORCA-job run
  C   -0.47667229301887      0.26009191362253     -0.21319201349266
  C   1.03822364523884      0.38620557457068     -0.46182797797034
  Cl  -1.26126149483034     -0.27944112794719     -1.73353567425091
  H   1.50415979706879      0.82990641074226      0.42421391661398
  H   1.21595576015912      1.05566598516118     -1.30694801979704
  C   -0.80526513980556     -0.72837261975452      0.89834876550924
  H   -1.88297830975174     -0.76984224462525      1.05693604875543
  H   -0.32170504669641     -0.41394720403280      1.82696235112045
  H   -0.44844728469458     -1.72206388670066      0.62427717573101
  C   -0.98908035706266      1.59177719369520      0.11630890733485
  N   -1.37255086273985      2.66182598865135      0.41331569447466
  C   1.65339027634919     -0.91144672671680     -0.72596007285217
  N   2.14523130978408     -1.95935925666599     -0.91789910117652
