13
Coordinates from ORCA-job run
  C   -0.44772974194170      0.34953933906922     -0.13189337321955
  C   1.08150587799959      0.42305804654309     -0.30151812311717
  Cl  -1.20351039472897      0.36195090622476     -1.75867750132605
  H   1.34189568867826      1.30272564564191     -0.89521481495181
  H   1.53979202719794      0.53494347181746      0.68666827663070
  C   -0.89225563486718     -0.89994871004700      0.61769049588487
  H   -0.43024895430192     -0.92037440010226      1.60820591290571
  H   -0.59269374029839     -1.78904728862939      0.06124092481435
  H   -1.97627499320641     -0.90202758917526      0.73272760610506
  C   -0.87750893607857      1.55473500884854      0.58030327182206
  N   -1.19350459579272      2.51050397856068      1.18610501586582
  C   1.61363598100341     -0.77592835142595     -0.94295812463867
  N   2.03789741633666     -1.74913005732580     -1.44267956677531
