13
Coordinates from ORCA-job run
  C   -0.43666283340489      0.37346231928897     -0.09566142601627
  C   1.08938336822505      0.40603442297056     -0.30174104456118
  Cl  -1.23139599956926      0.52361974723840     -1.69709911600292
  H   1.57670176454823      0.43397180956643      0.67844921007817
  H   1.36625537874847      1.31469435390932     -0.84174629954599
  C   -0.90733191802581     -0.90860922643548      0.57910822024014
  H   -0.42088853404790     -1.01349344454368      1.55243417852316
  H   -0.65525951228456     -1.76715079485496     -0.04468977149973
  H   -1.98727746763373     -0.88080728688310      0.72462766000393
  C   -0.80733835130564      1.54056912136083      0.70752079852747
  N   -1.08260937122857      2.46072780830578      1.38421197681617
  C   1.56098121803327     -0.76477463186482     -1.03604942255705
  N   1.93644225794534     -1.71724419805823     -1.60936496400590
