15

C	0.0	0.0	0.0
C	-0.545808	-0.312078	-1.399765
Br	1.954165	0.0	0.0
H	-1.653204	-0.328537	-1.135365
N	-0.540201	1.198155	0.558122
H	-0.375842	1.958349	-0.093444
H	-1.571273	0.989883	0.549788
C	-0.344878	-1.135274	0.88252
N	-0.505081	-2.034834	1.621112
N	-0.116192	-1.596315	-1.908786
H	0.793885	-1.52851	-2.34846
H	-0.792627	-1.938958	-2.58188
C	-0.319524	0.817529	-2.304808
N	-0.170808	1.682738	-3.090887
H	-2.910391	0.0	0.0
