15

C	0.0	0.0	0.0
C	-0.518022	-0.084995	-1.45316
Br	2.019088	0.0	0.0
H	0.263691	-0.563756	-2.051526
N	-0.479166	1.147561	0.69651
H	-0.216493	1.066887	1.675592
H	-1.515664	0.982373	0.624698
C	-0.266203	-1.281384	0.695277
N	-0.38223	-2.277	1.313263
N	-0.746773	1.24346	-1.99196
H	-1.561237	1.608189	-1.501751
H	-1.022689	1.116896	-2.962291
C	-1.716496	-0.975049	-1.558537
N	-2.279906	-1.815909	-2.181138
H	-2.634274	0.0	0.0
