15

C	0.0	0.0	0.0
C	-0.311396	0.096253	-1.541437
Br	1.956154	0.0	0.0
H	0.410104	0.836324	-1.910118
N	-0.546215	1.134801	0.673614
H	-1.572575	1.044803	0.554046
H	-0.355985	1.044382	1.668216
C	-0.37584	-1.302849	0.581158
N	-0.588108	-2.30026	1.168238
N	-1.651755	0.536665	-1.843591
H	-2.36164	0.226282	-1.098255
H	-1.94562	0.146906	-2.73204
C	0.058716	-1.190139	-2.176187
N	0.306629	-2.170682	-2.777179
H	-3.207836	0.0	0.0
