13
Coordinates from ORCA-job run
  C   0.89268326064316      0.18503532929189      0.52540462907035
  C   -0.32819509352761      0.03009366908482     -0.05833151079945
  H   1.02305056487464      0.62684276679445      1.50078810310911
  N   2.12038207873978     -0.24853418933962     -0.05880954901931
  O   3.14685742138762     -0.06993392290394      0.59945327603718
  O   2.10641627186927     -0.78235429609614     -1.18064011000694
  C   -1.54570317082098      0.50651581027795      0.68061676815058
  H   -2.06146595263250      1.27300197104658      0.09666504098952
  H   -1.28747009718163      0.92386569785259      1.65259283919781
  H   -2.24141582943786     -0.32329910918814      0.83726165366729
  N   -0.55598926883502     -0.45496391105971     -1.30378841054547
  H   -1.48813492897410     -0.75803449512748     -1.52694394941646
  H   0.21798474389524     -0.90823532063325     -1.76526878043421
