13
Coordinates from ORCA-job run
  C   1.04026048548214     -0.31550787695905     -0.26540178795988
  C   -0.31025557476887     -0.19638161544373     -0.31775168572583
  H   1.61539022769498     -0.86847184185700     -0.99648844494633
  N   1.87086921510410      0.24639012741670      0.75757482670464
  O   1.36210153205841      0.87417612190352      1.69130109365318
  O   3.08375115008187      0.05917756257226      0.62756814475397
  C   -1.16177681791752      0.56398069568749      0.65712910109981
  H   -1.08304687093219      0.12594727408622      1.65205391676332
  H   -0.82783985755378      1.59632205168069      0.74769413186570
  H   -2.20772185212866      0.54090659141062      0.34497378327707
  N   -1.01050412154315     -0.88080878613796     -1.28504623862875
  H   -0.47771968988483     -1.26327446890016     -2.05091981185857
  H   -1.89250782569250     -0.48245583545960     -1.56168702899834
