13
Coordinates from ORCA-job run
  C   0.98978782502134     -0.51870331316270     -0.05933562783237
  C   -0.30370398435794     -0.20257800526727     -0.32015968502646
  H   1.50936903585578     -1.33583443018227     -0.54238601919674
  N   1.83358311216743      0.18571929513987      0.85940397180963
  O   2.97617383274130     -0.26205647723192      0.99045426458107
  O   1.40180044121488      1.17260185383670      1.46313117023928
  C   -1.08193208495572      0.90788763288437      0.32412064791503
  H   -1.06436533225640      0.82111574371447      1.40927515956456
  H   -2.11487005166894      0.90118514055683     -0.02940243203269
  H   -0.63538223387857      1.87276239667001      0.08432318845782
  N   -0.97685611310858     -0.88042104472871     -1.31081461399961
  H   -1.97760947203655     -0.93043100407622     -1.21580653285931
  H   -0.55599497473801     -1.73124778815315     -1.65080349162023
