13
Coordinates from ORCA-job run
  C   1.03596360743479     -0.32891038849731     -0.26691568608806
  C   -0.31647450363154     -0.22282467676971     -0.29351711849205
  H   1.59093267001515     -0.99581371863446     -0.91364794189085
  N   1.89794202383368      0.42700012294394      0.59191491536359
  O   1.42142929046895      1.26436452534080      1.36436247895805
  O   3.10286522265811      0.17652038805383      0.49851260115540
  C   -1.14282666753693      0.67138437580437      0.58484373278405
  H   -0.90054619446643      1.71730332863073      0.39734683199064
  H   -0.93178265115460      0.49001408322483      1.63751720413209
  H   -2.20584872310733      0.51629593604503      0.39023020701964
  N   -1.02891561150642     -0.91781375362077     -1.24378417940770
  H   -0.54119062963627     -1.64820243290577     -1.73894809671706
  H   -1.97954783337114     -1.14931778961551     -1.00791494880774
