13
Coordinates from ORCA-job run
  C   0.92706118976543      0.34060644321527      0.37930547512793
  C   -0.33559277101927     -0.04818386750562      0.03435583121418
  H   1.13204421272204      1.18933027856054      1.01376109046365
  N   2.12181775604691     -0.19828835277221     -0.20204830949506
  O   2.04194567898806     -1.14197848916464     -1.00488152940234
  O   3.19032461780546      0.25900148053885      0.20879958895701
  C   -1.50964712939719      0.69885998217288      0.59924691593210
  H   -2.33882254806809      0.02832223951056      0.83505421878963
  H   -1.23125887584961      1.24187919579155      1.50244403249125
  H   -1.85535472363383      1.42906787837719     -0.13752861557879
  N   -0.63859049427438     -1.03833041166305     -0.83011502867920
  H   -1.59309409956048     -1.24452838191626     -1.06291357274764
  H   0.08916718647495     -1.51475799514506     -1.33648009707272
