13
Coordinates from ORCA-job run
  C   1.05638872741260      0.02093002716768     -0.36900398883463
  C   -0.29593567576660     -0.09053256951072     -0.37406094080798
  H   1.66597299739241     -0.12351786493720     -1.25131058297950
  N   1.84351840293263      0.36183956396566      0.77837069345305
  O   3.06466651547927      0.39231446313988      0.60164234783603
  O   1.29269247786133      0.59958600468681      1.85765203427733
  C   -1.19476917170148      0.08680666039935      0.81541432705758
  H   -2.23129045285908     -0.11894729687965      0.54099778956498
  H   -1.12750220145793      1.10677125094110      1.19344636246046
  H   -0.89513680498706     -0.56635260543697      1.63333285868507
  N   -0.94999358709480     -0.30696561909021     -1.56484040492472
  H   -0.38860958880321     -0.59056931436286     -2.35273397143559
  H   -1.84100163840809     -0.77136270008286     -1.50890652435208
