13
Coordinates from ORCA-job run
  C   1.02505225366282     -0.36474193944130     -0.26188806058688
  C   -0.32779738449935     -0.26207665249686     -0.24435141020520
  H   1.55765675110294     -1.06664794080979     -0.89012540261661
  N   1.91380674992911      0.40850354239650      0.55353614424806
  O   3.11796776766212      0.19906063589784      0.38250146188184
  O   1.45923516762373      1.22520167433770      1.36050180734445
  C   -1.12337831968635      0.69507826581245      0.59509849147935
  H   -0.97299234549670      0.48710247692967      1.65435446257520
  H   -0.79840385818002      1.72160452413961      0.43361475105830
  H   -2.18723186188664      0.60559395002579      0.36663488655798
  N   -1.08044466071419     -1.14340950467186     -0.98617179042263
  H   -1.98705925677617     -0.81943299553495     -1.27944009707795
  H   -0.59541100274132     -1.68683603658479     -1.68326524423592
