13
Coordinates from ORCA-job run
  C   0.87989543484439      0.28939140924268      0.49966345533239
  C   -0.32148012375454     -0.09100043285449     -0.01780667238421
  H   0.99972961868266      0.61117151348186      1.52228885536526
  N   2.09275737820089      0.34745995313011     -0.24927389421293
  O   3.09715709828817      0.74827897694664      0.34156011114489
  O   2.08778490498788      0.00365400103085     -1.44339179342652
  C   -1.52784848226511     -0.07758648426872      0.87645682517212
  H   -2.30041921314543      0.57558083350603      0.45973484797815
  H   -1.28211441867411      0.27892403335577      1.87550830707176
  H   -1.94551214961091     -1.08439170085741      0.95650029957897
  N   -0.53060762222229     -0.56504523569254     -1.27039790469069
  H   0.22489057805458     -0.46098668605850     -1.93053953989292
  H   -1.47323300338618     -0.57545018096228     -1.61930289703626
