13
Coordinates from ORCA-job run
  C   1.04390195108083     -0.37031118600096     -0.15804713199312
  C   -0.30017810427112     -0.24375098189339     -0.29436998678824
  H   1.62832543209072     -1.10149276524282     -0.70103264342882
  N   1.85964093075045      0.44606373042947      0.69071091921650
  O   3.06227604044811      0.16921584092824      0.70717535156582
  O   1.34869242836501      1.35736069006530      1.34899444545743
  C   -1.16604237587203      0.74058182511080      0.43711816953652
  H   -1.03580851169083      0.65261450361486      1.51448942837265
  H   -2.21581289770616      0.58722040446504      0.17929211133992
  H   -0.88603655934645      1.76071209093644      0.17477801206046
  N   -0.95791309029376     -1.00831091665431     -1.23054935388773
  H   -0.45273454920984     -1.78811855811153     -1.62205250377960
  H   -1.92831069434493     -1.20178467764713     -1.04650681767179
