13
Coordinates from ORCA-job run
  C   0.86262547911128      0.57715906153313     -0.00016677079950
  C   -0.35142481879266     -0.00931389843776      0.07084401517998
  H   1.04712152557715      1.62227501034276      0.21282232378540
  N   2.01083178301480     -0.05696203702503     -0.59895214096574
  O   3.12413016512154      0.26491437852264     -0.17644178911696
  O   1.84705205008144     -0.83999036563963     -1.55068016150376
  C   -1.49063161322841      0.70317901428005      0.73032971555561
  H   -1.22060444234328      1.62778022486381      1.23734585170680
  H   -1.99819458238085      0.02057940547963      1.42101101590519
  H   -2.23187345881697      0.91962746030222     -0.04767252770723
  N   -0.69224259369774     -1.25851136513334     -0.44627493193971
  H   0.01372571061503     -1.59948501606121     -1.08831821630323
  H   -0.91951520426133     -1.97125187302727      0.23615361620315
