13
Coordinates from ORCA-job run
  C   0.89431546645232      0.41396492325985      0.36807167670802
  C   -0.33119304318743     -0.04918574509537     -0.00485928463983
  H   1.02446194852289      1.22892593653286      1.06278081166778
  N   2.12912845047286     -0.08144059385701     -0.14648104439903
  O   3.16052492815297      0.46318056462037      0.25147294839571
  O   2.11641239898927     -1.02057190426286     -0.96016723286582
  C   -1.55387118891455      0.58466532997484      0.59365770502533
  H   -2.19979191837241      0.98016323825265     -0.19596921432079
  H   -1.29389293078046      1.40259249008546      1.26375037270793
  H   -2.12485188959039     -0.15952721708787      1.15456196124942
  N   -0.56371796050854     -1.10473505148119     -0.82329699011905
  H   0.22377100818138     -1.46277335706982     -1.34202431320973
  H   -1.48129526941791     -1.19625861387192     -1.22349739619994
