13
Coordinates from ORCA-job run
  C   -0.61180009550466      0.15031847100964     -0.41220134278866
  C   0.64524510669854      0.59233242585519      0.33965077191012
  H   -0.46963659763049      0.20552685195168     -1.49283663035935
  H   0.79290608463930      1.66313542259892      0.15078730335190
  H   0.44940283741317      0.46481087685397      1.40509152726179
  C   -1.78882624293901      0.91328890147652     -0.00881167430447
  N   -2.70661965365034      1.56279257935628      0.32920557760683
  N   -0.84742637024027     -1.31260507330341     -0.11419686939656
  O   -0.93572967310062     -1.61595131162019      1.06901292407625
  O   -0.92065307765751     -2.06611449519878     -1.07564665471332
  N   1.74560610857734     -0.26120019825719     -0.06953680568799
  H   2.37057253875403     -0.44683836716904      0.70109457519206
  H   2.27795903464051      0.15150391644639     -0.82261270214859
