13
Coordinates from ORCA-job run
  C   -0.60062898019777      0.01541793686296     -0.36119372790325
  C   0.87786967312233     -0.14131674902602      0.01986434273809
  H   -0.67851043219416      0.48253803627815     -1.34296769846201
  H   1.35282635196835     -0.72647962293371     -0.77133070051653
  H   0.93155454020436     -0.71377779022352      0.95516526961655
  C   -1.31842299672585      0.79589366706377      0.63966662502495
  N   -1.83694311364487      1.46214467732652      1.45533890783940
  N   -1.20466202068017     -1.35828073191802     -0.48079591440917
  O   -1.17350881319186     -1.85666575519606     -1.60186920171786
  O   -1.60255698739367     -1.89208471111157      0.54891023945950
  N   1.46898847557578      1.18463645663857      0.06509587572345
  H   2.46549769466597      1.13584431523129     -0.09601625074459
  H   1.31849660849155      1.61213027100763      0.97013223335146
