16

C	0.0	0.0	0.0
C	-0.440667	0.033027	-1.492167
Cl	1.788699	0.0	0.0
H	0.402885	-0.312436	-2.099513
C	-0.458417	1.134906	0.789039
N	-0.567702	2.099537	1.453724
N	-0.290231	-1.297677	0.79868
O	0.139566	-2.329751	0.306235
O	-0.804377	-1.179602	1.897647
N	-0.756882	1.383768	-1.786529
H	-0.950664	1.467008	-2.775861
H	-1.630315	1.535458	-1.279049
N	-1.56263	-0.926252	-1.96687
O	-2.321692	-0.445072	-2.803867
O	-1.510744	-2.109337	-1.677198
F	-2.302739	0.0	0.0
