16

C	0.0	0.0	0.0
C	-0.516662	-0.062791	-1.452233
Cl	1.745524	0.0	0.0
H	-1.63006	-0.134228	-1.222541
C	-0.474979	1.112422	0.818842
N	-0.602975	2.002528	1.576725
N	-0.450964	-1.29178	0.734676
O	-0.284184	-1.267796	1.946626
O	-0.857813	-2.233964	0.082614
N	0.107691	-1.112829	-2.18748
H	-0.603224	-1.702839	-2.593813
H	0.68932	-0.721959	-2.917616
N	-0.274203	1.276659	-2.102838
O	-0.722881	2.273327	-1.546208
O	0.323948	1.299035	-3.184379
F	-2.536554	0.0	0.0
