16

C	0.0	0.0	0.0
C	-0.341915	-0.130701	-1.547755
Cl	1.781765	0.0	0.0
H	0.599143	-0.001218	-2.079346
C	-0.441722	1.289915	0.51742
N	-0.564588	2.378394	0.945299
N	-0.46322	-1.085668	0.969673
O	-0.468315	-0.743746	2.142901
O	-0.688506	-2.202442	0.538656
N	-1.287652	0.800642	-1.988413
H	-2.122137	0.620927	-1.387561
H	-1.451017	0.698842	-2.981545
N	-0.638401	-1.608389	-1.94193
O	-1.780715	-1.910017	-2.258781
O	0.346279	-2.341609	-2.024001
F	-2.397241	0.0	0.0
