16

C	0.0	0.0	0.0
C	-0.478312	-0.103093	-1.475402
Cl	1.770327	0.0	0.0
H	-1.45473	-0.574122	-1.417036
C	-0.494427	1.13533	0.766192
N	-0.621232	2.090443	1.441744
N	-0.414545	-1.284473	0.726957
O	-0.589266	-2.282689	0.047922
O	-0.419734	-1.226418	1.947566
N	0.436781	-0.775855	-2.343594
H	-0.063993	-1.087829	-3.163988
H	1.215716	-0.188307	-2.612216
N	-0.757337	1.280831	-2.016886
O	0.02975	2.185662	-1.730097
O	-1.669861	1.373473	-2.833863
F	-2.371357	0.0	0.0
