16

C	0.0	0.0	0.0
C	-0.339478	-0.041999	-1.551644
Cl	1.789586	0.0	0.0
H	0.601035	0.130032	-2.072858
C	-0.43568	1.261333	0.588538
N	-0.546852	2.32956	1.067632
N	-0.458128	-1.138931	0.905857
O	-0.664767	-2.231482	0.411481
O	-0.461642	-0.867	2.09764
N	-1.292843	0.904332	-1.93928
H	-2.125857	0.688076	-1.349233
H	-1.448293	0.859102	-2.936811
N	-0.618525	-1.497646	-2.030618
O	0.376158	-2.209907	-2.16086
O	-1.757689	-1.798535	-2.356457
F	-2.398953	0.0	0.0
