16

C	0.0	0.0	0.0
C	-0.439858	0.059651	-1.513357
Cl	1.771677	0.0	0.0
H	-1.535995	0.095038	-1.40693
C	-0.467918	1.12527	0.798654
N	-0.579969	2.084364	1.470999
N	-0.460194	-1.285692	0.687411
O	-0.555068	-1.231947	1.902219
O	-0.572395	-2.295385	0.006501
N	0.025702	-0.956935	-2.392049
H	1.032585	-1.057631	-2.343273
H	-0.408734	-1.823404	-2.106652
N	0.039522	1.384969	-2.044121
O	1.019527	1.387174	-2.791047
O	-0.587985	2.387193	-1.703401
F	-2.410563	0.0	0.0
