18
Coordinates from ORCA-job run
  C   0.75847298402724     -0.36942805660032      0.10734532258313
  C   -0.47647623613080      0.37730104350177      0.63167831369630
  Cl  2.20002101097804      0.28577548632745      1.11656145150404
  H   -0.56813670736372      0.09556225549973      1.69552944520534
  C   1.09318657563769     -0.07112583011386     -1.33784366373431
  H   2.05280700632861     -0.52015279597248     -1.60334083246234
  H   1.14496175896220      1.00408096956655     -1.49384759583281
  H   0.32007531991966     -0.49666821371564     -1.98064895401577
  N   0.60398281105240     -1.76345832040487      0.31753621765534
  H   0.47509891831404     -1.97490786616713      1.30009713686531
  H   1.40968780161155     -2.27522175043930     -0.02007252140895
  C   -1.73984871864268     -0.06529418182421     -0.09678200819372
  H   -2.61666744920417      0.36811372048534      0.39381206660008
  H   -1.72419419960908      0.29142613508106     -1.12831115457722
  H   -1.84047228080519     -1.14938355861204     -0.09121655415029
  N   -0.31289609476269      1.81367572335689      0.44491167085487
  H   -1.18241059707889      2.27980982543320      0.67386320184272
  H   0.40180809676580      2.16789541459786      1.06872845756828
