18
Coordinates from ORCA-job run
  C   0.75750202440368     -0.36983056937315      0.11831588710551
  C   -0.48553624709689      0.37539251548916      0.62573924521396
  Cl  2.18328177687114      0.28321010660660      1.14965542333432
  H   -0.59405365239675      0.08899592181483      1.68671109692194
  C   1.11268432064022     -0.06860455138020     -1.32127524133148
  H   0.34916611904673     -0.49406810670570     -1.97551371996140
  H   1.16531996014436      1.00700042529746     -1.47434943946745
  H   2.07651579813957     -0.51597332976770     -1.57393526377017
  N   0.59968108736806     -1.76454783996275      0.32339941514143
  H   1.41021038897019     -2.27548758334008     -0.00392006018290
  H   0.45781246857732     -1.97767678650781      1.30384024111746
  C   -1.73711217346777     -0.06363686498417     -0.12509741301728
  H   -1.70772869059655      0.30412727173843     -1.15246789640187
  H   -2.62219547011108      0.36166323443188      0.35760766416595
  H   -1.83388717204674     -1.14806259207158     -0.13241252640963
  N   -0.31883088831763      1.81255271663456      0.44747560072047
  H   0.38114551442756      2.16569201179172      1.08825635305432
  H   -1.19397516455543      2.27725402028850      0.65697063376682
