18
Coordinates from ORCA-job run
  C   0.73938421871464     -0.31971326209707     -0.09849897692295
  C   -0.64591826775848      0.07323969188024      0.43463622028122
  Cl  1.75054130305864      1.26973646658090     -0.18566530126768
  H   -1.17675825222139     -0.88457643405495      0.50191869962259
  C   0.72788072971063     -0.86437002388003     -1.51209687188241
  H   0.40690724438875     -0.11542972129835     -2.23394978482647
  H   1.73195051473145     -1.19188457175668     -1.79029542269092
  H   0.05893014589538     -1.72834160762782     -1.55123016257461
  N   1.31062948117034     -1.24758347935027      0.79527595469587
  H   1.21858087186006     -0.90572343591483      1.74495984104976
  H   2.27655117893519     -1.44844277144724      0.57295961894194
  C   -1.43495007634237      1.00950719550184     -0.47406456432959
  H   -0.90314873965764      1.95170689527499     -0.62088872094582
  H   -1.63408269950890      0.56623206522551     -1.45226955454061
  H   -2.39970816383930      1.23019379809024     -0.00960783163659
  N   -0.48617900265924      0.55388006652867      1.80736445285457
  H   -1.38139184745064      0.53970342781199      2.28031411686530
  H   -0.15921863902710      1.51386570053286      1.79013828730639
