16

C	-0.569202	0.01197	-1.419486
C	0.0	0.0	0.0
Cl	-0.166055	-1.51818	-2.219723
H	1.089394	0.0	0.0
C	-2.00619	0.255648	-1.500653
N	-3.162669	0.46333	-1.546766
N	0.129034	1.115741	-2.28551
O	1.339002	1.053786	-2.350989
O	-0.614411	1.905038	-2.851749
N	-0.500957	-1.183709	0.75304
O	-1.611055	-1.631936	0.458344
O	0.227166	-1.612292	1.64121
N	-0.468153	1.20136	0.717209
O	-0.384108	2.252654	0.081249
O	-0.85923	1.093565	1.875925
F	2.41571	0.0	0.0
