15

C	-0.450529	-0.031145	-1.440822
C	0.0	0.0	0.0
F	-1.84144	-0.291687	-1.510926
H	1.093522	0.0	0.0
H	-0.321332	-0.953485	0.443657
C	-0.26377	1.28073	-2.091013
N	-0.12597	2.287227	-2.679359
C	0.28209	-1.112076	-2.209028
H	0.051145	-2.079073	-1.755871
H	-0.02747	-1.124775	-3.256443
H	1.35827	-0.934858	-2.119291
N	-0.503618	1.172105	0.708057
H	0.262723	1.557786	1.246593
H	-1.248596	0.926151	1.343221
H	2.95048	0.0	0.0
