15

C	-0.571322	0.008015	-1.406689
C	0.0	0.0	0.0
F	-0.136678	1.166549	-2.060784
H	1.099088	0.0	0.0
H	-0.352283	-0.910147	0.499047
C	-0.08189	-1.150266	-2.180717
N	0.201878	-2.096315	-2.812518
C	-2.092121	0.02733	-1.44367
H	-2.426739	0.863033	-0.829871
H	-2.490475	-0.90387	-1.036092
H	-2.439827	0.144088	-2.472356
N	-0.516094	1.184366	0.717416
H	-0.343437	1.020253	1.704088
H	0.116108	1.939881	0.469955
H	2.985852	0.0	0.0
