15

C	-0.437989	0.018156	-1.4486
C	0.0	0.0	0.0
F	-0.121497	-1.225415	-2.01762
H	1.100961	0.0	0.0
H	-0.349566	0.925254	0.471513
C	-1.905139	0.163064	-1.586199
N	-3.057124	0.341428	-1.727862
C	0.304283	1.086504	-2.228049
H	0.074416	1.003004	-3.292676
H	0.017396	2.080203	-1.875988
H	1.373495	0.939982	-2.047897
N	-0.602089	-1.151031	0.686001
H	-0.361377	-1.066899	1.667829
H	-0.095062	-1.965482	0.356245
H	3.045943	0.0	0.0
