15

C	-0.381765	-0.03972	-1.46667
C	0.0	0.0	0.0
F	-1.783667	-0.226199	-1.600008
H	1.093862	0.0	0.0
H	-0.346886	-0.943286	0.438929
C	-0.114807	1.260371	-2.113311
N	0.050007	2.291411	-2.649324
C	0.337488	-1.159466	-2.184813
H	0.078813	-1.177865	-3.246343
H	0.047137	-2.107727	-1.726849
H	1.414971	-1.018501	-2.042979
N	-0.511869	1.133936	0.753913
H	-1.419654	1.417082	0.406043
H	0.131044	1.908713	0.644361
H	2.959097	0.0	0.0
