15

C	-0.375323	-0.083372	-1.474387
C	0.0	0.0	0.0
F	-1.75869	-0.379021	-1.613084
H	1.093793	0.0	0.0
H	-0.398011	0.921456	0.434702
C	-0.190281	1.225201	-2.126711
N	-0.080231	2.268898	-2.653326
C	0.414475	-1.155741	-2.193425
H	1.480868	-0.954397	-2.040723
H	0.161945	-1.181233	-3.255658
H	0.177656	-2.123053	-1.746533
N	-0.432209	-1.163081	0.767265
H	0.309619	-1.851999	0.756993
H	-1.272372	-1.56832	0.375478
H	2.943416	0.0	0.0
