15

C	0.0	0.0	0.0
C	-0.4591	-0.199879	-1.428494
F	1.40248	0.0	0.0
H	-1.547759	-0.303281	-1.418955
H	-0.313655	0.982022	0.367958
H	-0.022765	-1.145282	-1.776174
C	-0.460152	-1.094364	0.932068
H	-0.078026	-0.918506	1.941805
H	-0.0664	-2.053168	0.579911
H	-1.551803	-1.125877	0.950717
C	-0.027558	0.941035	-2.345928
H	-0.561396	1.859653	-2.087183
H	1.045832	1.128251	-2.258487
H	-0.249653	0.713504	-3.392401
Cl	-3.918521	0.0	0.0
