13

C	0.0	0.0	0.0
C	-0.504888	0.092965	-1.454041
Cl	1.793663	0.0	0.0
H	-1.614536	0.026538	-1.30705
H	-0.138264	-0.734891	-2.067666
N	-0.53981	0.989583	0.874644
H	-0.357205	1.902024	0.464819
H	-1.574213	0.802896	0.791975
C	-0.356067	-1.33737	0.521709
N	-0.511862	-2.41069	0.971138
C	-0.145608	1.365503	-2.056361
N	0.143695	2.395971	-2.540468
H	-2.894292	0.0	0.0
