13

C	0.0	0.0	0.0
C	-0.531999	-0.147231	-1.424316
Cl	1.787672	0.0	0.0
H	-0.194768	-1.087372	-1.868978
H	-1.642408	-0.168611	-1.257089
N	-0.558836	1.186286	0.553622
H	-1.597749	0.995694	0.469276
H	-0.332515	1.236785	1.542767
C	-0.340689	-1.245499	0.742335
N	-0.519455	-2.242667	1.338257
C	-0.153296	0.969813	-2.274103
N	0.117994	1.837493	-3.01817
H	-2.910635	0.0	0.0
