13

C	0.0	0.0	0.0
C	-0.512619	0.024426	-1.451119
Cl	1.793783	0.0	0.0
H	-1.62274	-0.038112	-1.2845
H	-0.1491	-0.831514	-2.026397
N	-0.536597	1.034523	0.825619
H	-0.346798	1.926995	0.374623
H	-1.571134	0.849996	0.749289
C	-0.370848	-1.31118	0.578128
N	-0.568338	-2.363716	1.060201
C	-0.167961	1.267541	-2.116837
N	0.108952	2.279739	-2.646785
H	-2.900077	0.0	0.0
