13

C	0.0	0.0	0.0
C	-0.531617	0.00735	-1.430778
Cl	1.787522	0.0	0.0
H	-1.642282	-0.032558	-1.266798
H	-0.1951	-0.879815	-1.973909
N	-0.561718	1.115843	0.680107
H	-1.60022	0.934361	0.569747
H	-0.339328	1.055755	1.669183
C	-0.338701	-1.322567	0.60023
N	-0.509101	-2.382688	1.080203
C	-0.151919	1.208956	-2.156923
N	0.119931	2.153312	-2.801148
H	-2.908794	0.0	0.0
