16

C	0.0	0.0	0.0
C	-0.555629	-0.065437	-1.458698
F	1.363905	0.0	0.0
H	-1.256513	-0.896523	-1.474684
N	-0.551912	1.029605	0.734826
H	-1.587298	0.829083	0.629721
H	-0.274703	0.922297	1.703785
N	-0.241856	-1.405944	0.672144
O	-0.220852	-2.40158	-0.043804
O	-0.329939	-1.416572	1.896704
C	0.540948	-0.351789	-2.395229
N	1.406554	-0.550013	-3.163928
N	-1.310435	1.093785	-1.900517
H	-0.837655	1.931711	-1.578319
H	-2.170105	0.986075	-1.347051
F	-2.80029	0.0	0.0
