16

C	0.0	0.0	0.0
C	-0.319016	0.305255	-1.511368
F	1.361191	0.0	0.0
H	0.491177	-0.216924	-2.030074
N	-0.621437	0.803072	0.921637
H	-1.654872	0.6596	0.705991
H	-0.423859	0.468835	1.858983
N	-0.27466	-1.532974	0.237246
O	-0.561633	-1.87484	1.379859
O	-0.097461	-2.302116	-0.706285
C	-0.056373	1.745787	-1.699816
N	0.174028	2.881896	-1.886793
N	-1.56548	-0.063497	-2.137415
H	-2.315199	0.078602	-1.423747
H	-1.523205	-1.066538	-2.281107
F	-2.926454	0.0	0.0
