16

C	0.0	0.0	0.0
C	-0.573319	-0.201023	-1.434228
F	1.340989	0.0	0.0
H	-1.313778	-0.991954	-1.344572
N	-0.561648	1.082334	0.648079
H	-0.290345	1.050523	1.623897
H	-1.595384	0.868221	0.552181
N	-0.244626	-1.353788	0.794797
O	-0.238912	-2.406271	0.164264
O	-0.304165	-1.263545	2.017967
C	0.491248	-0.651561	-2.342859
N	1.317264	-1.014681	-3.093499
N	-1.287445	0.933971	-1.992189
H	-2.156017	0.898918	-1.445187
H	-0.796759	1.782908	-1.733419
F	-2.809048	0.0	0.0
