16

C	0.0	0.0	0.0
C	-0.315691	0.164669	-1.514662
F	1.375236	0.0	0.0
H	0.101015	1.164107	-1.698933
N	-0.487167	0.976031	0.876457
H	-0.150337	1.876204	0.555242
H	-1.525119	0.874551	0.738364
N	-0.413212	-1.378109	0.515479
O	-0.337507	-1.562552	1.722493
O	-0.686874	-2.239598	-0.315562
C	-1.724017	0.237673	-1.970935
N	-2.510838	0.370695	-2.842755
N	0.462272	-0.749217	-2.362044
H	0.310544	-0.451322	-3.318844
H	0.040979	-1.664966	-2.268384
F	-2.607059	0.0	0.0
