16

C	0.0	0.0	0.0
C	-0.392067	0.04571	-1.50219
F	1.383548	0.0	0.0
H	0.516129	-0.291496	-2.011585
N	-0.627655	0.918642	0.800157
H	-0.451591	0.701845	1.774604
H	-1.66228	0.743413	0.593969
N	-0.209718	-1.497991	0.476942
O	-0.837476	-1.675626	1.515887
O	0.353323	-2.368121	-0.175757
C	-0.579291	1.463323	-1.896744
N	-0.727775	2.541132	-2.34265
N	-1.479462	-0.832805	-1.876089
H	-1.685141	-0.681294	-2.855978
H	-2.29089	-0.564415	-1.272427
F	-2.928541	0.0	0.0
