16

C	0.0	0.0	0.0
C	-0.27925	-0.153475	-1.544992
F	1.364317	0.0	0.0
H	0.100307	-1.153561	-1.778406
N	-0.61767	1.082778	0.58523
H	-0.423912	1.085584	1.580814
H	-1.648441	0.870041	0.43472
N	-0.314508	-1.344532	0.740124
O	-0.386135	-1.263839	1.963719
O	-0.400615	-2.384124	0.095249
C	0.624985	0.802176	-2.212469
N	1.293075	1.565265	-2.80376
N	-1.596341	0.007241	-2.120194
H	-2.282412	-0.266877	-1.381238
H	-1.768229	1.003893	-2.20335
F	-2.931105	0.0	0.0
