16

C	0.0	0.0	0.0
C	-0.356479	-0.069981	-1.515424
F	1.374893	0.0	0.0
H	-0.175679	0.964004	-1.840293
N	-0.495402	1.073469	0.748993
H	-0.211551	1.929052	0.285103
H	-1.531506	0.920904	0.64502
N	-0.392816	-1.307784	0.69332
O	-0.432291	-1.318389	1.914886
O	-0.52576	-2.294741	-0.029171
C	-1.74619	-0.392899	-1.916667
N	-2.524661	-0.712769	-2.746816
N	0.591386	-0.903467	-2.27396
H	0.320701	-0.816813	-3.248484
H	0.39055	-1.863127	-2.013118
F	-2.623081	0.0	0.0
