16
Coordinates from ORCA-job run
  C   0.78507931810085      0.47957155715846      0.44368390225909
  C   -0.64757881316277      0.29850308655662     -0.05788824149914
  F   0.84485963175840      1.60233682521216      1.21226768318993
  H   -0.85584715043515      1.21321565577615     -0.63478577527683
  N   1.69315430774171      0.71993775679774     -0.76076921125282
  O   2.27258042142378     -0.25744495203327     -1.21981188175458
  O   1.69670213169448      1.86196208927922     -1.19798085327771
  C   1.28475793826498     -0.66654856532715      1.20168657067137
  N   1.67017492676718     -1.58655857799737      1.82116511043191
  N   -1.46131822626139      0.15456491739016      1.13622567001130
  H   -2.36731512451990     -0.22909244992462      0.90192147945838
  H   -1.59718763952029      1.04665931448646      1.59352499680348
  C   -0.79126112289756     -0.92680049543676     -0.94427939982502
  H   -0.54912889609835     -1.83127046693566     -0.38239482223745
  H   -1.82595814510330     -1.00087557117979     -1.28746498685107
  H   -0.15271355775266     -0.87716012382238     -1.82610024085086
