16
Coordinates from ORCA-job run
  C   0.79321559591500      0.47850060552001      0.43060364653464
  C   -0.64699328387902      0.30128662009415     -0.05015607590269
  F   0.86899577822479      1.60472055386081      1.19269855761484
  H   -0.86013621053111      1.21418494601252     -0.62816509233692
  N   1.68526317118995      0.70836781669279     -0.78772409052912
  O   2.25351462188626     -0.27394158352245     -1.25014851602251
  O   1.68826947238131      1.84831673361650     -1.23029149610585
  C   1.29756510479321     -0.66636317588864      1.18752261852869
  N   1.68712777850639     -1.58527636645227      1.80606113853861
  N   -1.44438737191211      0.16572792529628      1.15603557671714
  H   -1.56983615741242      1.06054001282971      1.61107884011525
  H   -2.35541846095706     -0.21478700352592      0.93639980446694
  C   -0.80800451194714     -0.92732503607188     -0.92900830175950
  H   -0.55918870965011     -1.83022193121034     -0.36756576665024
  H   -1.84830726676567     -0.99981354437752     -1.25507379272219
  H   -0.18367954984227     -0.88291657287377     -1.82126705048710
