16
Coordinates from ORCA-job run
  C   0.89121451474789     -0.09935886753056      0.27850494537242
  C   -0.50907546868908      0.16335220326221     -0.27271612805983
  F   0.80995328017689     -0.71621822918452      1.48542899730908
  H   -0.36342380829387      0.68597327961015     -1.22195761262488
  N   1.57213494821722      1.25533640907326      0.48936036263891
  O   1.74732203154362      1.89044440341699     -0.54125411002963
  O   1.85362806033051      1.57281950816100      1.62906394240784
  C   1.73604735862978     -0.88451671572463     -0.62513717467508
  N   2.37985773750313     -1.53747167829588     -1.35962487643079
  N   -1.13785042094217      1.08895737716731      0.65439981563457
  H   -1.90426901364772      1.57220563922581      0.20653457637881
  H   -1.49814371053290      0.59658234859967      1.46265324920922
  C   -1.24667036065339     -1.15311672188640     -0.50402539748764
  H   -2.24576595072382     -0.94039268686216     -0.88955322392423
  H   -0.73338308285780     -1.79311484247034     -1.22596581574886
  H   -1.35157611480827     -1.70248142656191      0.43428845003011
