16
Coordinates from ORCA-job run
  C   0.82564870200122     -0.12128658633450      0.28949529970562
  C   -0.56021467026418      0.13293399943310     -0.33927113581054
  F   0.69117310355785     -0.80562754863648      1.45346193956933
  H   -0.37649417321110      0.68150727945235     -1.26767483148824
  N   1.42805600125038      1.24147476272802      0.62298726361734
  O   1.71062619180250      1.92372331387631     -0.35434712591900
  O   1.50677158214413      1.55089315648048      1.80085745743735
  C   1.75790536027985     -0.81591504136196     -0.59848842175195
  N   2.46380056166525     -1.39849429704042     -1.33530272523875
  N   -1.40996324033715      0.94076743687454      0.50517041747107
  H   -1.09528078577132      1.89992303965038      0.57323224124786
  H   -1.48641559493307      0.54841454907428      1.43549548939547
  C   -1.22974452705237     -1.20059869889243     -0.64199536337109
  H   -2.19064125314461     -1.00232845767549     -1.11598909367658
  H   -1.41026090070523     -1.75708775829899      0.28008513542775
  H   -0.62596635728217     -1.81929914932920     -1.30871654661563
