16
Coordinates from ORCA-job run
  C   0.77796913491539      0.50056250767934      0.43225542785035
  C   -0.65176418423211      0.28763739088402     -0.06474299660830
  F   0.82165691619459      1.64148380325583      1.17513360885995
  H   -0.87348986190490      1.18546651370968     -0.66284193459148
  N   1.68310355284035      0.72624848624680     -0.77697244884095
  O   1.67213350952718      1.85844613606550     -1.23888211247401
  O   2.27525400961589     -0.25337297606025     -1.21458314336388
  C   1.29327754481386     -0.62043351155711      1.21690547825150
  N   1.69148353409408     -1.52026385716181      1.85764378573309
  N   -1.46326042959556      0.15941476104895      1.13265494092782
  H   -2.36386749776069     -0.24218352443833      0.90767255395211
  H   -1.61134239255301      1.05969752377193      1.56974336404404
  C   -0.77769364726511     -0.95961687355137     -0.92285778032870
  H   -0.14057605965298     -0.92001400847091     -1.80629056585989
  H   -0.52156815679918     -1.84758552672492     -0.34122889636594
  H   -1.81131597223779     -1.05648684469737     -1.26360928118574
