16
Coordinates from ORCA-job run
  C   0.79042564901865      0.47426047062806      0.43899712589355
  C   -0.64832071101707      0.29968763554908     -0.04589403340593
  F   0.86245006949870      1.59091764694961      1.21609332516145
  H   -0.86452018279571      1.22104789794711     -0.60910891298144
  N   1.68366048186040      0.72278859553766     -0.77481330883761
  O   1.68085053296044      1.86769345322374     -1.20452387488409
  O   2.25767312668345     -0.25132619280233     -1.24766202222264
  C   1.29742688661826     -0.67832451792941      1.18226100875603
  N   1.68973769895971     -1.60296713758876      1.79028539915809
  N   -1.44683091756230      0.14050421209278      1.15668517728277
  H   -1.57150642323012      1.02645743427519      1.62924888010390
  H   -2.35839869445871     -0.23373609018385      0.92792320113225
  C   -0.80262701525547     -0.91432435540916     -0.94618973239039
  H   -0.54204334986108     -1.82549436441698     -0.40404704271533
  H   -1.84384328833355     -0.99105432269085     -1.26831800188061
  H   -0.18413386308560     -0.84613036518188     -1.84093718816998
