13
Coordinates from ORCA-job run
  C   0.44224297752829     -0.53219448848016     -0.21779487909758
  C   -0.56865135913880      0.61459823925921     -0.45027514471381
  Br  0.80947315643247     -1.43559995244096     -1.88567566137002
  H   -0.13527698413063      1.27892011032661     -1.20592960373242
  N   1.77373226834435      0.09737086075288      0.25364435827457
  O   2.44686031054230     -0.57189366994972      1.01938943215117
  O   2.03649964343641      1.18937234828304     -0.22700250427193
  C   -0.02483799087585     -1.47403422575439      0.78170181370037
  N   -0.45021094825128     -2.22501776397393      1.58152574546915
  C   -0.74831029359684      1.36526090204284      0.79674861464247
  N   -0.87110376640620      1.95888646726882      1.80316097382543
  C   -1.84344671997869      0.07969199691911     -0.93073903252133
  N   -2.86697029390553     -0.34536082425333     -1.31975411235609
