13
Coordinates from ORCA-job run
  C   0.48232199946354     -0.50555517296317     -0.20630356992206
  C   -0.60023321059092      0.56793183405664     -0.46499509026168
  Br  0.93503768032881     -1.39710015920305     -1.85902722144309
  H   -0.20138494665749      1.25197250644176     -1.22216583248500
  N   1.75800760652482      0.22186919405619      0.27823391612948
  O   2.44135198664944     -0.36808669146324      1.09822604116541
  O   1.97158875278481      1.30507671770237     -0.24500049145621
  C   0.06424266250697     -1.46762606643694      0.79553224525622
  N   -0.32592164949107     -2.23590852896491      1.59686000582975
  C   -0.84743935749638      1.31744849284251      0.77129788784933
  N   -1.02639495004142      1.91273026824040      1.76818424829929
  C   -1.83020017140568     -0.05503398397178     -0.95603749950316
  N   -2.81997640257541     -0.54671841033680     -1.35380463945829
