13
Coordinates from ORCA-job run
  C   0.42585856271424     -0.53217944944919     -0.16370338718919
  C   -0.73264612669235      0.46488206400735      0.10933512045024
  Br  0.57913928821079     -0.95336005745264     -2.02262800013246
  H   -0.73309109770404      0.65035377062575      1.19116938523486
  N   1.71009754998217      0.18243365796571      0.37099788919011
  O   2.62052288037102      0.41023062224395     -0.39980729037155
  O   1.63300180885380      0.45593080556305      1.56135611701727
  C   0.24612442321429     -1.73957018249170      0.62524654361164
  N   0.08200962335488     -2.71121202909070      1.26825569852380
  C   -2.01589803575943     -0.12112050204119     -0.27698907279591
  N   -3.04805699474299     -0.59950355936720     -0.56913456837222
  C   -0.48805499090330      1.73298482264343     -0.58191340902069
  N   -0.27900689089911      2.76013003684339     -1.11218502614591
