13
Coordinates from ORCA-job run
  C   0.42954953822357     -0.48744506478025     -0.16647977198859
  C   -0.75240601156061      0.47097739011666      0.12333252464085
  Br  0.61892825698580     -0.81669326935560     -2.04767528248620
  H   -0.77223146730151      0.63993094919746      1.20616876389145
  N   1.73023117386428      0.17040846801720      0.40066100156586
  O   2.78472682928406     -0.15862898195649     -0.10603125005264
  O   1.54901154616647      0.91117384898193      1.35707304773618
  C   0.26147093635483     -1.73846902101469      0.55623957795749
  N   0.11892610361969     -2.73823827790873      1.16055681752372
  C   -2.01223701785211     -0.15130499465444     -0.28698481864052
  N   -3.02729416198354     -0.65902328122571     -0.58935891671495
  C   -0.54782726077591      1.75947969013312     -0.54215404717121
  N   -0.37984846502502      2.79783254444954     -1.06434764626145
