13
Coordinates from ORCA-job run
  C   0.40207049503486     -0.65070040771895     -0.08970551808714
  C   -0.94068273601907      0.10685885731227     -0.22107901686632
  Br  0.70159885401039     -1.75503283284836     -1.64640870367924
  H   -1.71978440815047     -0.66726419606091     -0.21132852610995
  N   1.58317604694973      0.34094980720777      0.01237097583534
  O   2.63526573637329     -0.13638853243188      0.40186383622907
  O   1.35146419459727      1.49096982485667     -0.32902001978531
  C   0.40220353282276     -1.47091906759898      1.11035747790203
  N   0.34918169627439     -2.12700224544271      2.08571365588742
  C   -1.06666137661212      0.85075602961326     -1.47645609617232
  N   -1.23781793937544      1.41935991310796     -2.48939764906885
  C   -1.14327425102011      0.97044887849372      0.94692042054739
  N   -1.31573984488549      1.62596397151014      1.90616916336789
