13
Coordinates from ORCA-job run
  C   0.46519673179509     -0.55134488847432     -0.09980929067323
  C   -0.56157168307109      0.50238750397379     -0.57632229495896
  Br  0.92509570646399     -1.73115189424914     -1.55855227170522
  H   -0.11082098422587      1.03188079923613     -1.42293340652327
  N   1.75701959482471      0.19903199741456      0.29839698645624
  O   2.39118904467302     -0.26807656100438      1.22953246050560
  O   2.03214732499179      1.16811832427490     -0.39294636015117
  C   -0.02317896076586     -1.30970539913833      1.03624064701060
  N   -0.46891339978360     -1.91390728574030      1.94230480841333
  C   -0.81162722404894      1.45930559257035      0.50678168364025
  N   -0.99014585099075      2.21755604717285      1.38621475947225
  C   -1.80256756768493     -0.14736642830307     -1.00026518409263
  N   -2.80182273217755     -0.65772780773305     -1.34764253739378
