13
Coordinates from ORCA-job run
  C   0.34611048571824     -0.68428497812047     -0.06953457334338
  C   -0.91645918788291      0.18956443227763     -0.26000583812477
  Br  0.60877782188115     -1.82296613564586     -1.60793749416014
  H   -1.76181053763370     -0.51175328221422     -0.27800912931637
  N   1.60607156814852      0.19850243776663      0.07717802368818
  O   2.59466150988527     -0.36828799927158      0.51065319634868
  O   1.49217936954096      1.36227873421788     -0.27729070069382
  C   0.22345397866820     -1.49179335458571      1.13269786449971
  N   0.07080272882390     -2.13544366272614      2.10577253261540
  C   -0.92449384118367      0.93036218271214     -1.52354908092048
  N   -1.00728374727488      1.50034757147868     -2.54670564295076
  C   -1.08867367285902      1.07804867600283      0.89394930782579
  N   -1.24433647583210      1.75542537810818      1.84078153453195
