13
Coordinates from ORCA-job run
  C   0.48262671010473     -0.51237526722923     -0.18393366837763
  C   -0.59522778423658      0.55389068368206     -0.48842333452468
  Br  0.95051385408827     -1.45892319444503     -1.80152756970792
  H   -0.18563555475656      1.21425960178036     -1.26074044742028
  N   1.75544184242048      0.22826490230680      0.28854608740223
  O   2.43237645551961     -0.33814935079216      1.13013972162605
  O   1.97471626511418      1.29511215004050     -0.26514916224611
  C   0.05300660193605     -1.43988883764921      0.84523867842963
  N   -0.34621005013379     -2.17900492025801      1.66920520194260
  C   -0.85553173554370      1.34010660543404      0.72193608691774
  N   -1.04353773414891      1.96214188554112      1.70060618905096
  C   -1.81938014244803     -0.08195634452163     -0.97706031148360
  N   -2.80215872791576     -0.58447791388962     -1.37883747160899
