13
Coordinates from ORCA-job run
  C   0.32605320666690     -0.69736886195414      0.00639247763097
  C   -0.93435324762986      0.17665480256387     -0.20167190956508
  Br  0.42451227438023     -2.06581424584681     -1.35322584251454
  H   -1.78975177073488     -0.49084860976609     -0.03112700298816
  N   1.60825388697721      0.15847843115453     -0.09941718856255
  O   2.62240295040515     -0.36270130336429      0.33233970850764
  O   1.48161636737973      1.25498743801909     -0.62316884262234
  C   0.30168203885073     -1.30743504644555      1.32558841498712
  N   0.22662511570371     -1.79091359706763      2.39580982606068
  C   -1.05088982832057      0.71174733960785     -1.56011801407964
  N   -1.22128949575125      1.11623557030981     -2.64925475555831
  C   -0.97634468792260      1.23823607578687      0.80932190114254
  N   -1.01951681000448      2.05774200700250      1.64953122756167
