13
Coordinates from ORCA-job run
  C   0.43826154851327     -0.53944833116042     -0.09889171454628
  C   -0.73217880779209      0.47835686815077     -0.01434809877773
  Br  0.92037367949918     -0.91987655944832     -1.90963594596043
  H   -0.93121385155739      0.63310932665731      1.05385671359707
  N   1.61588917498264      0.13262552426750      0.67994512358380
  O   2.65699566847888      0.35425589355238      0.09537581308447
  O   1.32698833890544      0.38268115522923      1.84251545330194
  C   0.09229892979410     -1.75957046166801      0.61100424779530
  N   -0.21278768210727     -2.73812962777227      1.18850773372148
  C   -1.93239867432432     -0.06471143881660     -0.65023650121240
  N   -2.90464887150387     -0.50808472960405     -1.13784357219108
  C   -0.33645672429096      1.75782291092865     -0.60719022506534
  N   -0.00212272859761      2.79196946968383     -1.05305902733081
