13
Coordinates from ORCA-job run
  C   0.40033433128558     -0.64555725816181     -0.12794360575547
  C   -0.93961059069794      0.12346056738079     -0.21262012128628
  Br  0.69569516921723     -1.65541008448191     -1.74829501254489
  H   -1.72206553839239     -0.64654922364417     -0.24608729964014
  N   1.58480706117064      0.33456832549585      0.03266764532243
  O   2.63519340625469     -0.16845788195010      0.39340139318536
  O   1.35672415929826      1.50345875733279     -0.24008050220289
  C   0.39787680505512     -1.53673141357483      1.02045323008062
  N   0.34171616809874     -2.25324271166713      1.95210785949797
  C   -1.06532251803018      0.93899012735035     -1.42280708003230
  N   -1.24054028280151      1.56592353323655     -2.40007303597297
  C   -1.13668279735267      0.91952847228021      1.00316034527771
  N   -1.30712537310557      1.52001879040342      1.99811618407085
