13
Coordinates from ORCA-job run
  C   0.43934424708287     -0.53547955431748     -0.21919881175262
  C   -0.54907397189502      0.63103884350695     -0.44994615671208
  Br  0.82586991922710     -1.41491270309894     -1.89539627971416
  H   -0.08849104677240      1.30439221712032     -1.18104205584085
  N   1.76953564703654      0.06762232004164      0.28904954773121
  O   2.06780884764218      1.15237790272388     -0.18756555752966
  O   2.40627815094528     -0.61076428236603      1.07755742586022
  C   -0.06121156385608     -1.48756675017667      0.75401595307993
  N   -0.51060180039043     -2.24405427407938      1.53533299155657
  C   -0.74652345164236      1.35502642180812      0.81010274289225
  N   -0.88722087620669      1.92088544923334      1.83001403387865
  C   -1.82125546589728      0.12789662520670     -0.96999596489733
  N   -2.84445863527370     -0.26646221560246     -1.39092786855213
