13
Coordinates from ORCA-job run
  C   0.44121831036348     -0.53842410740990     -0.20475619321836
  C   -0.56277976783999      0.60819334812564     -0.46574662037483
  Br  0.81111272248237     -1.47876890708324     -1.85132583257633
  H   -0.12194058023936      1.25580895077597     -1.23159837727171
  N   1.77400358160967      0.09374815941755      0.25917156310141
  O   2.04412966206654      1.17453320474582     -0.24210243968955
  O   2.44126466002656     -0.56412851288099      1.03963149329624
  C   -0.03499010822955     -1.45598733230333      0.81271689376371
  N   -0.46529756566584     -2.18452046787093      1.63062286158110
  C   -0.74769255742095      1.38293352143040      0.76586649640342
  N   -0.87937748351621      1.99164364805913      1.76185848853237
  C   -1.83746409588399      0.07008304888016     -0.94322009909409
  N   -2.86218677775274     -0.35311455388628     -1.33111823445338
