13
Coordinates from ORCA-job run
  C   0.48088080976765     -0.50885659109476     -0.19873556211529
  C   -0.60030660960891      0.56181775102824     -0.47469498844413
  Br  0.93164797406041     -1.42817766525107     -1.83686804090345
  H   -0.20121868578420      1.23237576895229     -1.24365111882624
  N   1.75792867816764      0.22430457549732      0.27318756983192
  O   1.97275760423168      1.29864016590806     -0.26761645128594
  O   2.44123971812114     -0.35365822420770      1.10173033178259
  C   0.06206586008797     -1.45405024383546      0.81876808216405
  N   -0.32680466197926     -2.21024084535305      1.63220256578540
  C   -0.84484006640803      1.33155873401903      0.74961977599907
  N   -1.01960596337918      1.94066075057671      1.73887619581088
  C   -1.83147007451382     -0.06820173864268     -0.95347609256991
  N   -2.82227458276310     -0.56717243759692     -1.33934226722897
