13
Coordinates from ORCA-job run
  C   0.44937519283997     -0.56327062878339     -0.10067611714545
  C   -0.52691649933797      0.53623515351388     -0.57991216901583
  Br  0.91421099309720     -1.72158897828259     -1.57515416373083
  H   -0.03366592008957      1.07054225757116     -1.39930228365425
  N   1.75303319109400      0.13261218299464      0.35439518066450
  O   2.34270939930164     -0.37812695374351      1.29188137627872
  O   2.08123772325324      1.10800402647030     -0.30414955081714
  C   -0.09802801933733     -1.33277365152430      1.00040285547064
  N   -0.59014044978693     -1.94438217958769      1.87703783433112
  C   -0.77782230443007      1.47383200300696      0.51966062047188
  N   -0.96038401059593      2.21403190754999      1.41353220167200
  C   -1.77526085919220     -0.06148655833710     -1.05557625962612
  N   -2.77834843681606     -0.53462858084834     -1.44213952489922
