13
Coordinates from ORCA-job run
  C   0.38570165294521     -0.66004890217035     -0.09243707611782
  C   -0.93200123963398      0.13829826063013     -0.23444720174620
  Br  0.68058614463377     -1.74812934477731     -1.66127687530703
  H   -1.73343302757160     -0.61260507172818     -0.24742606266877
  N   1.59280486275600      0.29503867925995      0.04551348441431
  O   1.40132121007538      1.45547024634211     -0.28548896563543
  O   2.62275150871824     -0.21787795107633      0.44884436805584
  C   0.34046711509900     -1.49902802977266      1.09379174567883
  N   0.24863467379248     -2.17296967114596      2.05387583776617
  C   -1.01693772941131      0.90268260546339     -1.48088163287198
  N   -1.16026128932650      1.48919022156188     -2.48803240104288
  C   -1.12870000571713      0.99183045229693      0.94199146113645
  N   -1.29993387635957      1.63914850511639      1.90697331833849
