13
Coordinates from ORCA-job run
  C   0.44691141238978     -0.53217178006484     -0.21528862804411
  C   -0.55883969770054      0.61773901486936     -0.45540907291070
  Br  0.84842233857012     -1.41678000567367     -1.88496840409894
  H   -0.10931385942800      1.28972499594267     -1.19479573579910
  N   1.76616592059409      0.09650145155646      0.29071812285978
  O   2.05506694181415      1.17423248619852     -0.20707076154646
  O   2.40348917053012     -0.55630790157559      1.10006239221148
  C   -0.04061795340765     -1.48497330968085      0.76374429779337
  N   -0.48136971390559     -2.24274731727621      1.54882723093996
  C   -0.76174489369877      1.35425156980018      0.79663194985315
  N   -0.90069352833804      1.93707411034564      1.80713451369317
  C   -1.82465068339068      0.09060321492598     -0.96695707920593
  N   -2.84182545402899     -0.32514652936765     -1.38162882574568
