13
Coordinates from ORCA-job run
  C   0.46456081271710     -0.55432046690696     -0.07724882981006
  C   -0.55384623359484      0.48684141856216     -0.59736299937951
  Br  0.94007411441453     -1.77790932648693     -1.49452124992901
  H   -0.09135150864838      0.99028911036919     -1.45348627572704
  N   1.75333699370595      0.20512603586936      0.31412980254750
  O   2.37394725510025     -0.23344255858276      1.26802308095394
  O   2.04023947722035      1.15082983593258     -0.40426362610825
  C   -0.03933197581614     -1.27798129219869      1.07449168042696
  N   -0.49702574234452     -1.85433444553855      1.99261477254811
  C   -0.81518500782400      1.47547528524961      0.45400279415621
  N   -1.00228042125003      2.25979370406485      1.30840723175450
  C   -1.79003051298060     -0.17375757390995     -1.01846631656287
  N   -2.78210725069966     -0.69760972642392     -1.36632006487049
