13
Coordinates from ORCA-job run
  C   0.46800200415525     -0.52383111708741     -0.18957477160847
  C   -0.57260441498813      0.58146478963492     -0.48450010823468
  Br  0.92238747247534     -1.45440789252679     -1.82011562212247
  H   -0.13568465831362      1.24145436119592     -1.24199780302505
  N   1.75807816925591      0.16780514629955      0.30970405658969
  O   2.01790731304258      1.23553013317181     -0.22431720027536
  O   2.40578177421170     -0.43278460089169      1.15057142149298
  C   -0.00089015223135     -1.45666391561667      0.81741715331976
  N   -0.42885272845790     -2.20180453266871      1.62139299948062
  C   -0.81869680723112      1.35447152121540      0.73741816738174
  N   -0.99495873469004      1.96472514952647      1.72567494733605
  C   -1.81232033311394     -0.00698988362424     -0.99318374891763
  N   -2.80814890411468     -0.47196915862857     -1.40748949141718
