13
Coordinates from ORCA-job run
  C   0.28155734439466     -0.71636045504448     -0.00275690519764
  C   -0.91820385919215      0.23855273778470     -0.21132919314997
  Br  0.31190471241123     -2.06317539218848     -1.38785728124061
  H   -1.81571380203985     -0.37861811770762     -0.07023032969056
  N   1.61710036566175      0.05721343805422     -0.07540025393770
  O   2.59066632643788     -0.53773229977437      0.35445288165941
  O   1.56779118765710      1.17101973277328     -0.57531373377566
  C   0.20087854397331     -1.34823868491433      1.30376401396887
  N   0.08302440891353     -1.84435110222887      2.36419776445976
  C   -0.97735689811543      0.80955399674418     -1.55890307010273
  N   -1.10151734138961      1.25087964152499     -2.63989330909651
  C   -0.91351167954077      1.27920315266303      0.82196674009324
  N   -0.92561930917165      2.08305335231374      1.67830267601011
