13
Coordinates from ORCA-job run
  C   0.43786377806705     -0.53390250249117     -0.12554193584792
  C   -0.74316737644062      0.45387083341909      0.07889932091028
  Br  0.58614787749760     -1.09719143660031     -1.94682838341580
  H   -0.74124383905810      0.72355873035466      1.14293240791142
  N   1.70751781764876      0.25220443241103      0.33804616332966
  O   2.60644788667371      0.43975104339221     -0.45667415940346
  O   1.63236709163082      0.61774527193531      1.50355167294436
  C   0.29340551462178     -1.67862445356514      0.75808447388842
  N   0.15580808801715     -2.59804352301663      1.47925248077752
  C   -2.01460821687403     -0.19115038465234     -0.24834906225890
  N   -3.03984277594214     -0.71209597353944     -0.48711390032339
  C   -0.53319799488427      1.66872178901574     -0.71209055156882
  N   -0.34849785095770      2.65415617333700     -1.32416852694337
