13
Coordinates from ORCA-job run
  C   0.40561217324137     -0.70551053684723     -0.00666252309927
  C   -0.93050479531071      0.05930718497992     -0.22900845714809
  Br  0.63815448085492     -2.02945817938620     -1.38062053736254
  H   -1.72905936225912     -0.69064975272775     -0.16133993469935
  N   1.54914546196501      0.34097437711096     -0.06726611378519
  O   1.92686449853065      0.67175076055538     -1.17727983767459
  O   1.90238106300513      0.77884137647994      1.01908071782272
  C   0.40809009803823     -1.33606433346564      1.30165564138762
  N   0.35532188648498     -1.87413070190130      2.34672556323936
  C   -0.99314224605485      0.68669358141966     -1.55184881583401
  N   -1.09222715359671      1.19791560848078     -2.60475562178614
  C   -1.13117840216365      1.05446642263098      0.83005063408807
  N   -1.30845770273526      1.84586419267051      1.68026928485141
