13
Coordinates from ORCA-job run
  C   0.37181786850798     -0.72526338928528     -0.00804563073636
  C   -0.92577869051964      0.10251329560332     -0.23564634276368
  Br  0.54257281949681     -2.05918739614403     -1.38062097015647
  H   -1.75766676585635     -0.61207311213174     -0.19187157016140
  N   1.56336175927307      0.26751431312187     -0.06388377434980
  O   1.88528109429461      0.73481349197178      1.02024635864365
  O   2.00495698015666      0.53631409015024     -1.16660268524149
  C   0.34158721946036     -1.35371120620816      1.30083257153442
  N   0.26260711802135     -1.88689074699266      2.34671282363871
  C   -0.93558325847215      0.74966495792507     -1.55042232058264
  N   -0.98376705083283      1.27944660736967     -2.59770171233618
  C   -1.10221568100662      1.09098266458056      0.83379827688378
  N   -1.26817341252325      1.87487643003934      1.69320497562745
