13
Coordinates from ORCA-job run
  C   0.46776449337275     -0.51839037879074     -0.20565286120716
  C   -0.57918888709791      0.58901475276615     -0.46833661697529
  Br  0.90732716516181     -1.41588429747835     -1.85862945572782
  H   -0.15407012669088      1.26326305045518     -1.21993497160497
  N   1.76092971767816      0.16740670774536      0.29387001910945
  O   2.41966284961795     -0.44811255515595      1.11511798521651
  O   2.01067660051297      1.24725744572616     -0.21995350686460
  C   0.01213793189780     -1.47201900268719      0.78788146318126
  N   -0.40580011403402     -2.23427835550648      1.58105207269921
  C   -0.81186186582973      1.34044683146412      0.76961431397900
  N   -0.97742812441238      1.93313626285726      1.77029969100738
  C   -1.82398239580484      0.00524252176642     -0.96999605133225
  N   -2.82516724437169     -0.45708298316196     -1.37433208148071
