13
Coordinates from ORCA-job run
  C   0.34537785899359     -0.68819654118657     -0.00104813875205
  C   -0.93779179875761      0.15154729649874     -0.20804466325267
  Br  0.49391457939478     -2.03333933673587     -1.37948023625786
  H   -1.77497775111030     -0.54389077178747     -0.05959151935785
  N   1.60394537702377      0.20558379421493     -0.08361814216123
  O   2.63033230782041     -0.29494556810990      0.34308360885154
  O   1.44926468649972      1.30823518164184     -0.58644889066673
  C   0.32965141221672     -1.31734942663621      1.30919045545589
  N   0.26470871555425     -1.81768464764353      2.37214651075294
  C   -1.05491976340825      0.70829971181276     -1.55798941007127
  N   -1.22204449731610      1.13219015144326     -2.64017132507131
  C   -1.02348833328265      1.19385000302222      0.82021219148981
  N   -1.10397279362832      1.99770015346579      1.67275955904078
