13
Coordinates from ORCA-job run
  C   0.43360414280407     -0.53750433596526     -0.11697925085936
  C   -0.74259695899659      0.45841780695032      0.07601209963775
  Br  0.56852590996530     -1.13553407390773     -1.92813811496119
  H   -0.73319761096326      0.74805402863304      1.13468958694938
  N   1.70835165533581      0.25317763885843      0.32363785741733
  O   1.64299716808071      0.63872158974605      1.48323076643247
  O   2.60197955530110      0.42425058737877     -0.48071555070183
  C   0.29270019529164     -1.66530364072250      0.78872208323650
  N   0.16330751761363     -2.57405928549455      1.52498270775360
  C   -2.01862494896329     -0.18672987172551     -0.23255623652637
  N   -3.04709838510914     -0.70684712467356     -0.45902674004478
  C   -0.53086784240506      1.65647454790788     -0.73982338700928
  N   -0.34008039795489      2.62588213301462     -1.37503582132422
