13
Coordinates from ORCA-job run
  C   0.46965027858609     -0.52335064615675     -0.18528177828640
  C   -0.56095457915290      0.58822692449967     -0.49092450233581
  Br  0.95141953909260     -1.44210235259470     -1.81477815872853
  H   -0.10713388240125      1.25226998471563     -1.23484716864908
  N   1.75297350836144      0.15887748288629      0.34366787857941
  O   2.38390448799667     -0.45282004280916      1.18940068847889
  O   2.02603927862965      1.23079991234586     -0.17517839407734
  C   -0.02130521716728     -1.46271067188369      0.80486584863987
  N   -0.46833557653677     -2.21204488822311      1.59440328645802
  C   -0.82779350034909      1.35207424584970      0.73241771016690
  N   -1.02128730850005      1.95201442663321      1.72380461540804
  C   -1.79335976596648      0.00869137937595     -1.02697573994835
  N   -2.78481726259264     -0.44892575463892     -1.45957428570561
