13
Coordinates from ORCA-job run
  C   0.33085013700439     -0.56650157752809      0.24328527569792
  C   -0.62369577593613      0.60215329374976     -0.12451610923407
  Br  -0.36360701003879     -2.25639695899102     -0.31979779235944
  H   -0.13726189376180      1.52200528570330      0.22497698792828
  N   1.67855716916996     -0.23051192743370     -0.47539841962118
  O   2.12282254890162     -1.01492229300994     -1.28912081965397
  O   2.14160949125580      0.84651859667510     -0.12443402071934
  C   0.59552647073907     -0.56865398306949      1.67245260643809
  N   0.79375498514574     -0.56233534020967      2.83218347193721
  C   -1.90760127495304      0.45032831472449      0.55980336455658
  N   -2.93379701064584      0.34351084548883      1.12112262460265
  C   -0.79230669565557      0.68154659205907     -1.57721796298891
  N   -0.90485114122540      0.75325915184136     -2.74433920658381
