13
Coordinates from ORCA-job run
  C   0.48406143196744     -0.55674711881736     -0.15183714496216
  C   -0.55560761173784      0.55382446040533     -0.49415880866239
  Br  0.72877924742645     -1.71340874889070     -1.66575289666261
  H   -0.09727706514302      1.20053210573836     -1.25392690459249
  N   1.83827417483288      0.14528899699125      0.20207808856068
  O   1.71044392195126      1.09263519665503      0.96455084922545
  O   2.86350439426008     -0.30764590923063     -0.26691831927906
  C   0.08192345195877     -1.31915936624210      1.01723091049710
  N   -0.24904219420519     -1.92649309808053      1.96954505501156
  C   -0.94036726005289      1.36327936087247      0.66821075349170
  N   -1.33281544958126      2.01197797729094      1.56566429499581
  C   -1.76942966924775     -0.04707633356216     -1.05749795500335
  N   -2.76144737242893     -0.49800752312990     -1.49618792262023
