13
Coordinates from ORCA-job run
  C   0.32843787725423     -0.73943848060443      0.07363640901397
  C   -0.91951455114045      0.13302573167880     -0.24575428866097
  Br  0.42186555180371     -2.21969793492564     -1.14914266105715
  H   -1.79224398066798     -0.51762013928574     -0.10640724763015
  N   1.57544730596038      0.16893003404521     -0.08234752072598
  O   1.96969193443439      0.68186961103881      0.95604256169023
  O   1.98973947691378      0.33637204638267     -1.21564315391632
  C   0.26212821450769     -1.22454835419080      1.44108934492565
  N   0.15376853784154     -1.64389827275226      2.53514550362448
  C   -0.91534980846432      0.61533471704276     -1.62934102304096
  N   -0.96268544415787      1.01418282304248     -2.73319363398662
  C   -1.01293369677112      1.25235377944570      0.69776853424929
  N   -1.09835141751399      2.14313443908243      1.45914717551452
