13
Coordinates from ORCA-job run
  C   0.37756409573415     -0.66260593025329     -0.11060118751216
  C   -0.94673823106462      0.13475557592928     -0.17426906289833
  Br  0.56695459021639     -1.77026961887663     -1.68187794819521
  H   -1.74730000703363     -0.61592146737118     -0.12822611577961
  N   1.59126138217743      0.29386903904026     -0.06500475200383
  O   1.37668153709514      1.45181232534778     -0.39074038504432
  O   2.64689346935025     -0.21512518891894      0.27091289576675
  C   0.41376948333348     -1.48572039124662      1.08685498942527
  N   0.39638492023126     -2.14153865239868      2.06354564702297
  C   -1.11245236156400      0.88606627473698     -1.42087759547792
  N   -1.32228632010531      1.46243259964913     -2.42220663517323
  C   -1.06666633179597      1.00102416924048      1.00300015870286
  N   -1.17406622657458      1.66122126512142      1.96848999116676
