12
Coordinates from ORCA-job run
  C   0.44054094374704     -0.26873204492278     -0.03398114734032
  C   -1.01167749706892      0.21707457531119     -0.18500178371578
  H   0.42552455192757     -1.31465855157035      0.30678609800731
  H   -1.00069772269945      1.28014694846973     -0.43597246857141
  H   -1.47709056368168     -0.31584936641265     -1.01993065492525
  C   1.12202501042926      0.51374499116141      1.00434407853993
  N   1.67795634335928      1.13800401702395      1.82810932109704
  N   1.12008079738648     -0.06565569428821     -1.31157427240220
  H   0.79415968349951     -0.75779899380876     -1.97670865219134
  H   2.11929821715866     -0.19167450325925     -1.20237710948132
  C   -1.79677819851131     -0.01429460414378      1.02496496438600
  N   -2.41434156554644     -0.21930677356051      2.00134162659733
