12
Coordinates from ORCA-job run
  C   0.47646680994945     -0.30779122389616      0.05797029553190
  C   -0.84426268837493      0.21188401188526      0.65497552813154
  H   0.38936355699797     -1.39678277004691     -0.07772792977511
  H   -0.75060630758752      1.28778676957372      0.82083979495524
  H   -1.05325251237931     -0.27561275596987      1.61067013385588
  C   1.55316907230732     -0.07667111293436      1.02927880753659
  N   2.41220717416960      0.09589217095224      1.81000632676528
  N   0.76592197248111      0.42745337094906     -1.16792014282309
  H   0.08577910523832      0.17632812740147     -1.87747336895670
  H   1.68374725287950      0.17900761568081     -1.51752577235591
  C   -1.94002551403698     -0.04540116733714     -0.27703880849285
  N   -2.77850792164453     -0.27609303625811     -1.06505486437276
