12
Coordinates from ORCA-job run
  C   0.51595054427520     -0.42087560958835      0.01190480121976
  C   -1.00982006900509     -0.46319375709231      0.19671639283446
  H   0.87140274646604     -1.46340221422606      0.02476909570119
  H   -1.26161669032331     -1.01229570107242      1.10840978120553
  H   -1.45065021243499     -1.00714092606694     -0.64509948984295
  C   1.14347185978161      0.25390360288067      1.15556591272783
  N   1.65850439148772      0.76600766785936      2.07745921532856
  N   0.83294991298360      0.30394606659268     -1.21148459725631
  H   1.82969230728706      0.46797224751074     -1.28387048385827
  H   0.54441561978109     -0.24159729045371     -2.01531689317935
  C   -1.59286109852369      0.87554041878732      0.25769098665849
  N   -2.08043931177525      1.94013549486903      0.32525527846106
