13

C	-0.398018	-0.020816	-1.436421
C	0.0	0.0	0.0
Br	-2.347212	0.095687	-1.764504
H	1.097562	0.0	0.0
H	-0.075955	-0.929957	-1.934067
H	-0.378055	0.905152	0.482906
N	0.218106	1.116497	-2.19278
O	0.104491	2.241631	-1.717491
O	0.792691	0.836377	-3.242744
N	-0.435707	-1.251042	0.631884
H	-1.099054	-1.064717	1.37324
H	0.398397	-1.647906	1.053538
F	2.620835	0.0	0.0
