13

C	-0.457005	0.054997	-1.435337
C	0.0	0.0	0.0
Br	0.146385	-1.462915	-2.466962
H	1.098512	0.0	0.0
H	-0.066562	0.945868	-1.924763
H	-0.368274	0.922819	0.462258
N	-1.960795	0.172376	-1.51611
O	-2.664339	-0.800678	-1.747992
O	-2.378612	1.301573	-1.249925
N	-0.588026	-1.1645	0.685652
H	-0.649018	-0.935488	1.670241
H	0.105057	-1.903246	0.62554
F	2.662644	0.0	0.0
