13

C	-0.572211	-0.007224	-1.391323
C	0.0	0.0	0.0
Br	0.136179	1.444827	-2.475335
H	1.093952	0.0	0.0
H	-1.65755	0.066909	-1.439962
H	-0.358688	0.921174	0.474022
N	-0.269377	-1.295921	-2.119053
O	0.728073	-1.926541	-1.79829
O	-1.068536	-1.618378	-3.000317
N	-0.561109	-1.190698	0.676668
H	-0.831849	-0.936305	1.618135
H	0.217147	-1.836266	0.765453
F	2.668169	0.0	0.0
