13

C	-0.632435	-0.00851	-1.36293
C	0.0	0.0	0.0
Br	-0.000399	1.455655	-2.478425
H	1.094032	0.0	0.0
H	-1.719389	0.056399	-1.353984
H	-0.348538	0.916141	0.492588
N	-0.359386	-1.290944	-2.109316
O	0.683259	-1.887022	-1.880772
O	-1.227011	-1.642463	-2.911867
N	-0.517841	-1.205314	0.688202
H	-0.857177	-0.950753	1.60695
H	0.296028	-1.794362	0.830953
F	2.65949	0.0	0.0
