13

C	-0.37616	-0.063137	-1.439996
C	0.0	0.0	0.0
Br	-2.326751	-0.143145	-1.787225
H	1.095553	0.0	0.0
H	0.042054	-0.937067	-1.929304
H	-0.392505	0.913314	0.457002
N	0.121296	1.128501	-2.199431
O	-0.086772	2.237811	-1.718395
O	0.699632	0.907415	-3.261574
N	-0.409453	-1.247449	0.649109
H	0.374068	-1.539562	1.220626
H	-1.2116	-1.10354	1.248505
F	2.617323	0.0	0.0
