13

C	-0.306382	0.034973	-1.454813
C	0.0	0.0	0.0
Br	-2.220586	0.15544	-1.95274
H	1.101945	0.0	0.0
H	0.075427	-0.851915	-1.95356
H	-0.357822	-0.9693	0.365145
N	0.363114	1.178683	-2.170651
O	0.87598	0.922348	-3.257012
O	0.336969	2.286192	-1.643369
N	-0.624755	1.067353	0.792563
H	-0.124373	1.919489	0.565792
H	-0.387825	0.864524	1.758078
F	2.631209	0.0	0.0
