15

C	-0.048563	0.073669	-0.068758
C	-0.414914	-0.494955	-1.459931
F	1.315272	0.412672	-0.139646
H	0.392346	-1.214308	-1.640225
C	-0.730633	1.368623	0.210211
N	-1.16903	2.428201	0.465182
N	-0.237891	-0.927115	0.917021
H	-1.298405	-0.979049	1.006827
H	0.112665	-0.553114	1.794543
C	-0.264475	0.56453	-2.479299
N	-0.129875	1.384809	-3.308603
N	-1.705091	-1.147326	-1.572518
H	-1.557052	-2.121989	-1.340925
H	-2.32099	-0.805112	-0.803145
F	-2.770903	-0.597904	0.765826
