15

C	0.001989	0.051725	-0.000783
C	-0.528793	0.003243	-1.442867
F	1.408346	0.132788	-0.034491
H	-1.608534	-0.196946	-1.283136
C	-0.414459	1.34567	0.618329
N	-0.686397	2.357354	1.150201
N	-0.417568	-1.099993	0.697117
H	-0.16166	-1.013473	1.675109
H	-1.473932	-1.035956	0.594675
C	0.113372	-1.115922	-2.13915
N	0.622396	-1.983916	-2.744137
N	-0.336312	1.227335	-2.210443
H	-1.004022	1.913972	-1.881196
H	0.596491	1.589513	-2.044057
F	-2.77021	-0.35443	0.033293
