17

C	0.0	0.0	0.0
C	-0.519343	0.051163	-1.445538
Cl	1.834955	0.0	0.0
H	-1.578607	0.328708	-1.351146
C	-0.323117	1.220604	0.770954
N	-0.467213	2.111163	1.525459
N	-0.489968	-1.190958	0.627683
H	-1.517502	-1.117358	0.571454
H	-0.238644	-1.159954	1.610691
C	-0.368723	-1.255377	-2.186005
H	0.668731	-1.589397	-2.205031
H	-0.982424	-2.004328	-1.689557
H	-0.719912	-1.132492	-3.210906
N	0.1456	1.179241	-2.174871
O	0.822807	0.920154	-3.169163
O	-0.042961	2.309652	-1.729919
Cl	-3.466583	0.0	0.0
