17

C	0.0	0.0	0.0
C	-0.269718	0.186014	-1.538506
Cl	1.806443	0.0	0.0
H	0.266368	1.082251	-1.851959
C	-0.377004	1.272039	0.637002
N	-0.614774	2.323796	1.102425
N	-0.602079	-1.084935	0.684067
H	-0.521715	-1.921461	0.118414
H	-1.596049	-0.870139	0.811042
C	-1.709706	0.225975	-1.98217
H	-1.727963	0.389213	-3.06319
H	-2.236538	-0.690606	-1.732973
H	-2.251094	1.024268	-1.479832
N	0.403974	-0.914598	-2.301795
O	1.093002	-0.591222	-3.266776
O	0.183964	-2.074463	-1.952408
Cl	-4.136666	0.0	0.0
