15

C	0.0	0.0	0.0
C	-0.283449	-0.108827	-1.537064
Cl	1.780568	0.0	0.0
H	0.170389	0.797738	-1.941351
N	-0.496785	1.264176	0.447371
H	-0.238428	1.384569	1.422243
H	-1.525723	1.165257	0.40638
C	-0.411846	-1.170612	0.793796
N	-0.60134	-2.051479	1.549598
C	-1.607475	-0.265619	-2.148723
N	-2.322508	-0.450397	-3.069412
N	0.516676	-1.24903	-2.14166
O	1.256771	-0.962048	-3.076737
O	0.335059	-2.364948	-1.672233
Cl	-3.290079	0.0	0.0
