15

C	0.0	0.0	0.0
C	-0.527944	0.264743	-1.438102
Cl	1.781543	0.0	0.0
H	-1.63734	0.26799	-1.311839
N	-0.484593	0.853793	1.039172
H	-1.502049	0.725383	1.063825
H	-0.284028	1.812905	0.786197
C	-0.383085	-1.390466	0.317677
N	-0.568852	-2.525907	0.555556
C	-0.112197	-0.75409	-2.388848
N	0.21669	-1.577706	-3.159671
N	-0.153094	1.615004	-1.993108
O	0.117391	2.514776	-1.202546
O	-0.204846	1.736771	-3.211765
Cl	-3.394428	0.0	0.0
