15

C	0.0	0.0	0.0
C	-0.540038	0.310708	-1.413081
Cl	1.781307	0.0	0.0
H	-1.64337	0.321519	-1.29773
N	-0.485499	0.986136	0.91221
H	-0.233917	0.707002	1.852911
H	-1.511073	0.960016	0.835046
C	-0.377165	-1.393945	0.323152
N	-0.571689	-2.506426	0.648987
C	-0.11848	-0.677632	-2.39098
N	0.182885	-1.502441	-3.171456
N	-0.103645	1.679833	-1.855239
O	0.876499	1.752036	-2.595274
O	-0.772188	2.62035	-1.44644
Cl	-3.423267	0.0	0.0
