17

C	-0.393982	-0.017549	-1.489605
C	0.0	0.0	0.0
Br	-2.333904	-0.159486	-1.747446
H	1.095581	0.0	0.0
N	0.070406	1.290931	-2.144456
O	-0.722438	2.221005	-2.219103
O	1.252458	1.3003	-2.465255
C	0.216822	-1.128167	-2.205509
N	0.665516	-2.022463	-2.822464
N	-0.425473	-1.274037	0.556689
H	0.273735	-1.58408	1.221131
H	-1.32092	-1.18412	1.023302
C	-0.493186	1.233903	0.739711
H	-0.160166	1.150679	1.776774
H	-0.067865	2.152766	0.333187
H	-1.584685	1.310273	0.720888
Cl	3.317826	0.0	0.0
