17

C	-0.352876	-0.002765	-1.489507
C	0.0	0.0	0.0
Br	-2.287615	0.127661	-1.844071
H	1.100012	0.0	0.0
N	0.35161	1.160186	-2.222799
O	-0.244774	2.252373	-2.269991
O	1.534821	0.969179	-2.430463
C	0.104999	-1.234412	-2.125448
N	0.478587	-2.248784	-2.587213
N	-0.568832	-1.220225	0.574957
H	-0.75839	-1.055114	1.556292
H	0.139955	-1.950031	0.534396
C	-0.502987	1.235252	0.716315
H	-1.595044	1.228028	0.803525
H	-0.061018	1.258606	1.716981
H	-0.200299	2.151305	0.207166
Cl	2.976035	0.0	0.0
