17

C	-0.448468	-0.066153	-1.479508
C	0.0	0.0	0.0
Br	0.116884	-1.709686	-2.316839
H	1.095659	0.0	0.0
N	-1.982012	0.017054	-1.515869
O	-2.445767	1.153472	-1.591225
O	-2.624163	-1.008912	-1.36328
C	0.064129	1.045899	-2.268389
N	0.468528	1.946211	-2.905412
N	-0.456093	-1.185753	0.702229
H	0.335074	-1.621557	1.150474
H	-1.148684	-0.958678	1.401249
C	-0.459154	1.299198	0.656674
H	0.048886	1.371162	1.621038
H	-0.187588	2.17702	0.067878
H	-1.542183	1.314052	0.822673
Cl	3.326831	0.0	0.0
