17

C	-0.449667	0.004373	-1.472049
C	0.0	0.0	0.0
Br	0.414114	-1.422174	-2.461482
H	1.100872	0.0	0.0
N	-1.977142	-0.195274	-1.516932
O	-2.433205	-1.302038	-1.739731
O	-2.620063	0.817249	-1.247145
C	-0.163629	1.261546	-2.149245
N	0.057421	2.273815	-2.703774
N	-0.552175	-1.207364	0.622022
H	-0.431928	-1.10371	1.624011
H	0.032359	-1.993705	0.354745
C	-0.473479	1.228052	0.763087
H	-0.190872	2.151318	0.255745
H	0.031759	1.224267	1.733421
H	-1.554582	1.215256	0.918525
Cl	3.369447	0.0	0.0
