17

C	-0.53002	-0.013869	-1.43636
C	0.0	0.0	0.0
Br	0.310815	1.341396	-2.552639
H	1.094442	0.0	0.0
N	-0.218224	-1.357568	-2.105631
O	0.811168	-1.913432	-1.765399
O	-1.015668	-1.738672	-2.957536
C	-1.976136	0.17303	-1.478284
N	-3.131799	0.386141	-1.438008
N	-0.531151	-1.222727	0.606721
H	-0.995665	-1.013917	1.480755
H	0.240032	-1.851806	0.791744
C	-0.461556	1.243214	0.745609
H	-0.157943	2.155874	0.23149
H	0.018652	1.242444	1.726962
H	-1.549154	1.252935	0.877626
Cl	3.405866	0.0	0.0
