17

C	-0.419489	0.004279	-1.482205
C	0.0	0.0	0.0
Br	0.450139	-1.436183	-2.44624
H	1.100976	0.0	0.0
N	-1.946541	-0.174632	-1.566199
O	-2.582242	0.850532	-1.330009
O	-2.411376	-1.278727	-1.784831
C	-0.096573	1.253357	-2.157952
N	0.152866	2.259956	-2.711948
N	-0.563785	-1.202154	0.618775
H	0.01687	-1.992921	0.35657
H	-0.451497	-1.097854	1.62134
C	-0.47848	1.233978	0.749008
H	-0.171479	2.15221	0.247107
H	0.001231	1.226685	1.731897
H	-1.562992	1.23445	0.87684
Cl	3.367965	0.0	0.0
