17

C	-0.448788	-0.011232	-1.475946
C	0.0	0.0	0.0
Br	-2.390877	0.131043	-1.676851
H	1.099845	0.0	0.0
N	0.21251	1.15571	-2.228077
O	-0.30095	2.26089	-2.117219
O	1.237691	0.881443	-2.834782
C	-0.058561	-1.252129	-2.131801
N	0.241344	-2.261659	-2.653798
N	-0.480678	-1.255601	0.579595
H	0.305356	-1.893967	0.64377
H	-0.815049	-1.087277	1.52008
C	-0.476052	1.204725	0.789026
H	-0.228075	2.142068	0.292469
H	0.042201	1.189507	1.752846
H	-1.557077	1.168392	0.958117
Cl	3.347991	0.0	0.0
