13

C	0.0	0.0	0.0
C	-0.29976	-0.065414	-1.531823
F	1.371973	0.0	0.0
H	0.306975	-0.914239	-1.877965
C	-0.463903	1.230885	0.643067
N	-0.545263	2.27686	1.174753
C	-0.46108	-1.21675	0.674044
N	-0.503923	-2.258135	1.221711
C	0.263073	1.128521	-2.177828
N	0.723931	2.064998	-2.715854
C	-1.677347	-0.280453	-2.007397
N	-2.508537	-0.469538	-2.822356
F	-2.27404	0.0	0.0
