13

C	0.0	0.0	0.0
C	-0.430077	0.028441	-1.504657
F	1.372191	0.0	0.0
H	0.512416	0.059451	-2.072637
C	-0.44065	1.194983	0.735551
N	-0.520406	2.194683	1.350528
C	-0.432378	-1.218344	0.698797
N	-0.497177	-2.230722	1.294269
C	-1.199188	1.22065	-1.86988
N	-1.687177	2.198484	-2.298688
C	-1.148587	-1.176947	-1.926568
N	-1.601236	-2.152072	-2.398355
F	-2.242027	0.0	0.0
