13

C	0.0	0.0	0.0
C	-0.33351	-0.10356	-1.519767
F	1.372002	0.0	0.0
H	0.42957	-0.794071	-1.907901
C	-0.468705	1.232176	0.641835
N	-0.544083	2.270218	1.190539
C	-0.44731	-1.202523	0.714468
N	-0.515248	-2.221336	1.298935
C	-0.081835	1.188661	-2.167915
N	0.16691	2.202383	-2.707427
C	-1.64283	-0.639411	-1.920906
N	-2.412081	-1.14913	-2.656638
F	-2.276589	0.0	0.0
