13

C	0.0	0.0	0.0
C	-0.484449	0.004076	-1.497719
F	1.368778	0.0	0.0
H	-1.61423	0.015779	-1.259608
C	-0.463984	1.205437	0.682106
N	-0.63992	2.150932	1.373627
C	-0.460371	-1.215595	0.690811
N	-0.662464	-2.149147	1.390046
C	0.021633	-1.168693	-2.170662
N	0.402273	-2.114322	-2.745211
C	-0.025026	1.206472	-2.178294
N	0.332891	2.16391	-2.731588
F	-2.461653	0.0	0.0
