13

C	0.0	0.0	0.0
C	-0.427079	-0.023745	-1.504549
F	1.372046	0.0	0.0
H	0.516707	-0.031018	-2.07138
C	-0.434773	1.21828	0.697929
N	-0.499561	2.233372	1.289174
C	-0.433079	-1.195807	0.736333
N	-0.496226	-2.192768	1.357717
C	-1.169591	1.169173	-1.919288
N	-1.629573	2.14175	-2.389902
C	-1.167598	-1.229101	-1.883718
N	-1.630984	-2.213815	-2.32432
F	-2.240411	0.0	0.0
