13
Coordinates from ORCA-job run
  C   0.80245285901770     -0.62777930844694      0.42757487137883
  C   -0.48357641998252      0.10654598084733      0.07262609617151
  F   1.71543132892334     -0.40201034576877     -0.58879412828465
  H   -1.23026458403508     -0.05982918577125      0.85283861597937
  H   0.62342593818029     -1.70246269065767      0.48879133157689
  C   1.34362434812378     -0.12983544969464      1.69583994527373
  N   1.76970462413704      0.23280487801980      2.72701391133906
  N   -1.06128122782852     -0.65071402186558     -1.15089778131022
  O   -1.30535532772884     -1.84024212168769     -0.97673643530550
  O   -1.24438166053691     -0.01007208668845     -2.17819614604316
  N   -0.24725473041020      1.47546324559465     -0.14121713868888
  H   -1.09623378788140      1.98661293492905     -0.33507899195524
  H   0.41270864002136      1.62251817119021     -0.89276415013185
