13
Coordinates from ORCA-job run
  C   0.75848027728075     -0.60606173316315      0.41493752801399
  C   -0.55287592338064      0.05465864429693     -0.03246103139570
  F   1.70460661724658     -0.38809759757916     -0.56907634036226
  H   -1.32160961901614     -0.13113231115244      0.71989659925991
  H   0.63433783906715     -1.68425158607194      0.53977345032658
  C   1.20521765413755      0.01085032039050      1.66871440307061
  N   1.51587996910597      0.52310892233861      2.67803069180783
  N   -0.98447709617475     -0.75400650144766     -1.24960953882148
  O   -0.90805560382081     -0.22753072562781     -2.34924364517716
  O   -1.33442501616717     -1.90625870625623     -1.00663802737960
  N   -0.49015714371250      1.43064384646148     -0.35918736004646
  H   0.32286354686690      1.65873100225147     -0.91376774006928
  H   -0.54978550143292      2.01934642555940      0.45863101077302
