13
Coordinates from ORCA-job run
  C   0.80623280655172     -0.54653426920297      0.52100169022476
  C   -0.50083055101707      0.03481912774802     -0.00106342366375
  F   1.82225937269210     -0.13576180173243     -0.32603507939166
  H   -1.32726418713100     -0.28453810396688      0.63844677589243
  H   0.77251327405385     -1.63705582460548      0.50406844627191
  C   1.07511048159112     -0.06669359744016      1.88010137602996
  N   1.28977505158324      0.27962388485924      2.98022561180733
  N   -0.76849513322502     -0.70171977360405     -1.33885624143195
  O   -0.88421126597479     -0.01771599769961     -2.34784284861717
  O   -0.86046273389082     -1.92290553501195     -1.26783218714220
  N   -0.43147233658152      1.43489389120263     -0.10453782268875
  H   -1.30320680712268      1.84181628733013     -0.41099956541433
  H   0.31105202847088      1.72177171212350     -0.72767673187657
