13
Coordinates from ORCA-job run
  C   0.76217969243096      0.10757723791888      0.72073000582614
  C   -0.57940950857011     -0.01456937438406     -0.01922603707440
  F   0.48501831436246      0.61475797709926      1.97615287243385
  H   -1.19985323387699     -0.76787516506976      0.46628498492488
  H   1.40810958726871      0.81671270141798      0.19642268731368
  C   1.43698442218334     -1.18792161056497      0.85093483814788
  N   1.95866861325589     -2.23572500079248      0.94110222258973
  N   -0.26260695594302     -0.53696112059629     -1.39111650305949
  O   0.39309798829186      0.22698826999666     -2.09835628202791
  O   -0.65987394301940     -1.65615321982569     -1.69286674782758
  N   -1.30292876701347      1.20704809928115     -0.16534332713690
  H   -1.73549054879099      1.47087677219939      0.70889901082732
  H   -0.70489566057924      1.95524443331993     -0.49261772493722
