13
Coordinates from ORCA-job run
  C   0.32303493319337     -0.45696384005418      1.11101650270233
  C   -0.65355876899120      0.10134519438770      0.07504962246295
  F   -0.01180495481469     -1.72820018661324      1.50119000262887
  H   -1.66716146819669     -0.15539894981665      0.39506654546390
  H   0.24925973190014      0.19576474768884      1.98442943912325
  C   1.70041943276125     -0.40848785922259      0.59919084928883
  N   2.78749792583444     -0.28785277205811      0.17348537283292
  N   -0.48760703562224     -0.63330681541770     -1.26899686419200
  O   -0.13858264536184     -1.80739856168126     -1.23410756537819
  O   -0.76733414122283      0.01425094991756     -2.27249990130585
  N   -0.50042630137577      1.50644710807079     -0.02850955569215
  H   -1.22770851018697      1.90957774018760     -0.60271934049837
  H   0.39497180208302      1.75122324461124     -0.43559510743648
