13
Coordinates from ORCA-job run
  C   0.77023058042031      0.04387306610501      0.84504062694186
  C   -0.56576433659160      0.04492983521492      0.09551974429373
  F   0.52699222248619      0.30537900521191      2.17082149091957
  H   -1.22924797724709     -0.70995397684757      0.51775176731997
  H   1.41286953065355      0.83353946158262      0.44458465993310
  C   1.45273603460425     -1.25180140325599      0.72294915069172
  N   1.99434648782797     -2.28842996258016      0.62566314800186
  N   -0.24687828306083     -0.43676300462950     -1.31786962345348
  O   0.42589487588779      0.33912254863159     -1.99695772686838
  O   -0.66637317131054     -1.53637677850641     -1.66331934569751
  N   -1.15118155569162      1.33141056758566      0.13639621181958
  H   -0.61305831407856      2.00054093778275     -0.39946477837955
  H   -2.11056609389979      1.32452970370518     -0.18111532552250
