13
Coordinates from ORCA-job run
  C   0.68570517580653     -0.60927703289192      0.61596107174239
  C   -0.46690790455813      0.18241609451872      0.01246906767265
  F   1.66010962964658     -0.75140243600369     -0.35766889389840
  H   -1.25844352998047      0.30404090142703      0.75581485839393
  H   0.35186977025761     -1.60623814721856      0.90811019629885
  C   1.24515552703050      0.09938197838719      1.77107569918727
  N   1.69225784804251      0.64308336936634      2.70961683541567
  N   -1.09974041039979     -0.76003514084454     -1.04302086723030
  O   -1.14497542225576     -0.36402814960360     -2.20088189338184
  O   -1.52208248221968     -1.83076535715401     -0.61856736925365
  N   -0.02824330398929      1.41911661718183     -0.49111231728062
  H   0.67330671885506      1.29698679416766     -1.20867072913328
  H   -0.78701161623567      1.97772050866755     -0.85412565853266
