13
Coordinates from ORCA-job run
  C   0.73578817927208      0.00711302085598      0.87591006145471
  C   -0.56934398195967      0.04067070946170      0.07468773187252
  F   0.43970736723736      0.21070614518551      2.20104715976441
  H   -1.24777852543097     -0.73164008352365      0.43753194310318
  H   1.39284480148355      0.81314233542922      0.53603908494096
  C   1.42539653857133     -1.28201153403546      0.72529096726211
  N   1.97551952306073     -2.31214713733226      0.60929751438427
  N   -0.19324123029147     -0.38007093059492     -1.34435934532381
  O   0.49913828313548      0.42777351950407     -1.96406689603698
  O   -0.59614218009758     -1.46379980814415     -1.75342852685369
  N   -1.15812035618184      1.32416156748499      0.14748737497320
  H   -2.10428018339866      1.33059540284188     -0.20752810751230
  H   -0.60048823540032      2.01550679286712     -0.33790896202858
