13
Coordinates from ORCA-job run
  C   0.70373451820572     -0.01520819592116      0.90332200506296
  C   -0.57194143333606      0.03277828072568      0.05672219169983
  F   0.35799825301094      0.14424417241830      2.22258891736189
  H   -1.25612183633216     -0.75590767485951      0.37010346898576
  H   1.36467311173065      0.80675993790430      0.61274451849357
  C   1.41094566125568     -1.29261566978003      0.73698860925488
  N   1.97896641871595     -2.30982173575212      0.59537404270317
  N   -0.14180697931669     -0.33990449077407     -1.36020511529363
  O   0.56573222140017      0.49181177686120     -1.92896794196871
  O   -0.52580934395297     -1.41040260377604     -1.81943142825502
  N   -1.17437989291441      1.30887281811351      0.14803558691291
  H   -2.10714247522923      1.31918272483969     -0.24077945994000
  H   -0.60584822323764      2.01921066000026     -0.29549539501761
