13
Coordinates from ORCA-job run
  C   0.75149153319547     -0.03105124209523      0.82040957767361
  C   -0.46271923000179      0.09713500954149     -0.09332738647201
  F   0.40363081760688      0.55072499327189      2.03172846236648
  H   -1.26647253409366     -0.56470039077875      0.25559653631309
  H   1.59378660019501      0.52069095962731      0.40238204884846
  C   1.11058628122218     -1.43312962913872      1.05261186807293
  N   1.38710765380181     -2.55299998371358      1.26790512682891
  N   -0.11820154140581     -0.40642310809787     -1.46988638237771
  O   1.05004099314641     -0.69576066232225     -1.71420384889019
  O   -1.05991590209914     -0.45045506497040     -2.25342791975383
  N   -0.80720307079080      1.48389810930490     -0.24271352529038
  H   -1.69193714902918      1.56936742765314     -0.72769474269262
  H   -0.89119445174736      1.91170358171809      0.67062018537324
