13
Coordinates from ORCA-job run
  C   0.77092022380110      0.03201459136303      0.84513650341871
  C   -0.56378235313896      0.06676845996389      0.09407281193632
  F   0.53679522858233      0.32748070357468      2.16529410114226
  H   -1.25408672905132     -0.65574466865713      0.52981383764444
  H   1.44200084143013      0.79002238984118      0.43033569483965
  C   1.40684947259987     -1.28946172959356      0.74883700707469
  N   1.91397759578916     -2.34526116120096      0.67459962089751
  N   -0.26118693760088     -0.45306356453969     -1.30964972654394
  O   0.43132617112156      0.28994524091768     -2.00559676785161
  O   -0.71688558659672     -1.54454379992925     -1.63403241371769
  N   -1.10277944430013      1.37405988794038      0.10983757258762
  H   -2.06173572906100      1.39468457991114     -0.20858425334168
  H   -0.54141275357515      2.01209907040859     -0.44006398808629
