13
Coordinates from ORCA-job run
  C   0.78304584676107     -0.59367016731777      0.38742263132757
  C   -0.55588033787695      0.03437444346264     -0.02460162773834
  F   1.71054997784659     -0.30835952212500     -0.59704968880719
  H   -1.30983143675007     -0.20642241366185      0.72720570827312
  H   0.69836868321494     -1.67925057664626      0.47597445952046
  C   1.22084611080977     -0.00371467938622      1.65717913116140
  N   1.52933996334514      0.49192448097916      2.67538430178233
  N   -0.96996627339634     -0.74377599305981     -1.26630989811900
  O   -0.92638207113373     -0.17398305828659     -2.34607649258051
  O   -1.27457467797701     -1.91657997057987     -1.06366922695729
  N   -0.54748140722821      1.42332437226585     -0.30163142958705
  H   -0.60213166244449      1.97777114874477      0.54043120872377
  H   0.24509728482924      1.69736193561101     -0.86525907699922
