13
Coordinates from ORCA-job run
  C   0.61429962361301     -0.58955832556090      0.62483441849237
  C   -0.53339593578132      0.13052132935373     -0.09667503265724
  F   1.63371285691901     -0.79043023930710     -0.28713382443009
  H   -1.36156201985291      0.27193528893993      0.60016788529532
  H   0.29367967786936     -1.56349657747864      1.00184686304277
  C   1.09949448326144      0.25585774169813      1.72112016147415
  N   1.45359151041981      0.96655123909130      2.58546642596235
  N   -1.03762194523897     -0.88855685432943     -1.11055370762166
  O   -1.59989647178273     -1.86649889757070     -0.62380053850618
  O   -0.81047917132788     -0.68714171501916     -2.29375121877681
  N   -0.21015343314813      1.34566837306444     -0.74780285438586
  H   -0.20055367242677      2.12778316935449     -0.10948736063543
  H   0.65688449747606      1.28736546776389     -1.26323121725367
