13
Coordinates from ORCA-job run
  C   0.80369519756394      0.11328853761610      0.76445285752202
  C   -0.47693708030054      0.01425502727548     -0.05770950831851
  F   0.44807699260426      0.64586091104949      1.99611794786258
  H   -1.12536799494950     -0.77190131300239      0.35122680455110
  H   1.50506143245349      0.79554274012452      0.28364307631038
  C   1.41584234319657     -1.20206211807997      0.97329634674531
  N   1.88997894103159     -2.26035708068041      1.15248907551244
  N   -0.14997561904323     -0.44225693467979     -1.45495097361841
  O   1.02991023686117     -0.52277625073979     -1.78561113313432
  O   -1.12380651490079     -0.66479271945850     -2.16545638375283
  N   -1.06808827998711      1.31752657385358     -0.18464932140999
  H   -1.98587722407514      1.24052465286077     -0.60540289990587
  H   -1.16151243045472      1.73714797386089      0.73155411163608
