13
Coordinates from ORCA-job run
  C   0.65648828326823     -0.10074932802186      0.89447296528449
  C   -0.44715773042510      0.10683858806227     -0.13737182344319
  F   0.16983814564333      0.37819409065912      2.10287985841887
  H   -1.28042747542785     -0.58017016144015      0.06161625640515
  H   1.53668525161925      0.48216408361339      0.62229839210807
  C   0.99365754453970     -1.51905247782803      1.04808225755783
  N   1.22055645919949     -2.65920331295889      1.20792800990882
  N   0.05502736775955     -0.28121610681730     -1.50305317739514
  O   1.24405126050489     -0.55864403146494     -1.63490754663377
  O   -0.79011551242388     -0.25174388449136     -2.39040634776399
  N   -0.78192493963312      1.50179208808847     -0.20893283873123
  H   -1.60670473817600      1.63059560947944     -0.78187903712392
  H   -0.96997391644849      1.85319484311984      0.72127303140802
