13
Coordinates from ORCA-job run
  C   0.74065439324995     -0.58884596546673      0.57150450453153
  C   -0.48095455348522      0.13827853215645      0.02525795599774
  F   1.71944359710679     -0.57186376573212     -0.40799838590364
  H   -1.27652002593522      0.13473098403129      0.77425609430225
  H   0.49856411231651     -1.63028074361314      0.78931725300332
  C   1.23979780661338      0.08124691137753      1.77615334658102
  N   1.64132029085695      0.59539308112617      2.75122943507469
  N   -1.03340879419647     -0.77783969718704     -1.09689894661162
  O   -1.35224095515932     -1.91142372107295     -0.75318277674195
  O   -1.12435011778431     -0.30275983995528     -2.22168812716185
  N   -0.15698333237736      1.44235594705614     -0.38671627760877
  H   0.55058948864093      1.43593615958231     -1.10869900817720
  H   -0.96391190984660      1.95507211769731     -0.71153506728550
