13
Coordinates from ORCA-job run
  C   0.75945451181029      0.09594980401829      0.72641679652441
  C   -0.57969374204023      0.00062120844107     -0.02189598934614
  F   0.48741945792528      0.62857572050463      1.97233416279141
  H   -1.22479849028934     -0.72817881931335      0.46880152236740
  H   1.42819846218268      0.77963659341652      0.19684040288886
  C   1.39841713128973     -1.21514584558952      0.87907433728774
  N   1.89790930710417     -2.27312088613068      0.97603841737940
  N   -0.26795421504854     -0.54954887632255     -1.38378140509657
  O   -0.69341565610881     -1.66209184588511     -1.67197175814617
  O   0.40515135731181      0.18957055259869     -2.10093471828941
  N   -1.26729780595269      1.24007982621657     -0.19019782008662
  H   -1.69429226794274      1.53094014547067      0.67815186140199
  H   -0.64709805024161      1.96471242257480     -0.52887580967630
