13
Coordinates from ORCA-job run
  C   0.55537794166010     -0.55212685060631      0.70819785924068
  C   -0.52150733617120      0.13604298789204     -0.14253762587246
  F   1.62404474886238     -0.85225176738918     -0.11568549277358
  H   -1.38608642011782      0.35643872069366      0.48627867603851
  H   0.18171034263505     -1.48363237894002      1.13953630113566
  C   0.99568486596842      0.36662653238674      1.76377462372999
  N   1.32040843526437      1.13503740367581      2.58939867578895
  N   -0.99386656789936     -0.94995112794126     -1.10109425230384
  O   -0.68857618709067     -0.85262384159533     -2.27999136273577
  O   -1.61458615901269     -1.86999398072383     -0.57410354381622
  N   -0.11862398167450      1.28411793950791     -0.86583514072733
  H   0.78125978353703      1.16513482628385     -1.30928104491465
  H   -0.13723946596110      2.11818153675590     -0.29765767278991
