13
Coordinates from ORCA-job run
  C   0.72818973169428     -0.01578030473271      0.88087479812996
  C   -0.56614556862159      0.07765153673157      0.06694974323477
  F   0.43805112341284      0.24585060782248      2.19688062132481
  H   -1.29401828710919     -0.64347564524237      0.43925045216698
  H   1.43789073947168      0.73581719822642      0.52236286714617
  C   1.33345541964170     -1.35081563583854      0.77411371583502
  N   1.80858878192791     -2.42144399018546      0.70045113437007
  N   -0.20249112260219     -0.39951276673243     -1.33837373801167
  O   -0.66093106523154     -1.46994336890767     -1.72314931373717
  O   0.53955840130373      0.35189706911763     -1.97122692708777
  N   -1.07633340523964      1.39532436599360      0.10386843259298
  H   -0.47018650688114      2.04190231976520     -0.38492888125188
  H   -2.01462824176687      1.45252861398227     -0.26707290471227
