13
Coordinates from ORCA-job run
  C   0.74284372990330      0.05243053892354      0.83005524955377
  C   -0.47040375958087      0.02970112551876     -0.09378358473910
  F   0.30243066620573      0.53033045748974      2.05667169878746
  H   -1.16608354652992     -0.75988256626105      0.21990552682119
  H   1.49505896127407      0.73987044110806      0.44251799780478
  C   1.30704318718235     -1.28763222206411      1.01570379179573
  N   1.74304376874270     -2.36562343391361      1.17301460129634
  N   -0.04387353071410     -0.36144741112256     -1.48374780168431
  O   -0.96279314860718     -0.51868808833282     -2.27983099189830
  O   1.15636829037653     -0.45917809818319     -1.72457892383218
  N   -1.02104617401759      1.35279706439071     -0.19560922505037
  H   -1.90295146355041      1.32191272116239     -0.69219225697670
  H   -1.17963698068460      1.72540947128411      0.73187391812164
