13
Coordinates from ORCA-job run
  C   0.69475732814670      0.08760855012165      0.78828163328914
  C   -0.57457446252981     -0.03122386872071     -0.07006846835665
  F   0.29535597013409      0.51036370764384      2.04201058117486
  H   -1.20701872220202     -0.83071696914511      0.31590677404212
  H   1.35615692909793      0.84658952567029      0.36218881565474
  C   1.40267855467693     -1.19153057032949      0.90234512923853
  N   1.95302344446039     -2.22565065221073      0.97946645821875
  N   -0.12485340010338     -0.46121938996002     -1.43733665653619
  O   0.56214988459561      0.36239638207001     -2.04020260309855
  O   -0.45750115672635     -1.57113964710749     -1.83599921147658
  N   -1.32571181273244      1.17440014209921     -0.20845707514658
  H   -0.72880777123071      1.95993824465565     -0.43447761548086
  H   -1.84465478558694      1.36918454521291      0.63634223847728
