13
Coordinates from ORCA-job run
  C   0.69527447906653     -0.03981615144221      0.90805681710534
  C   -0.57143094306559      0.05600276078510      0.05208734465703
  F   0.34753591228020      0.13973247788037      2.22410270585975
  H   -1.28874421719731     -0.70344066041291      0.36369551309970
  H   1.39128697819263      0.75314819731294      0.61857569892755
  C   1.35159032915035     -1.34544371161011      0.75208598134432
  N   1.88350146200635     -2.38310338074661      0.61896570542658
  N   -0.14595423510083     -0.33904917113252     -1.36029963698722
  O   0.59629155582520      0.46294107260536     -1.92756687376769
  O   -0.56133959114093     -1.39961423049247     -1.81520018247619
  N   -1.12328371399961      1.35537135693478      0.13454938999256
  H   -0.52282515694880      2.04085942707076     -0.30607020298572
  H   -2.05090285906821      1.40141201324755     -0.26398226019600
