13
Coordinates from ORCA-job run
  C   0.34734692473449     -0.38689263306965      1.01621716311624
  C   -0.69787948101190      0.06476430886151     -0.01306554613162
  F   0.21626824545222     -1.73876439713165      1.24562364875147
  H   -1.69030562565235     -0.10831330469256      0.40310317254706
  H   0.14481166801677      0.13987687041625      1.95463666557412
  C   1.72079966344181     -0.07411544897392      0.59906575471273
  N   2.81680024219363      0.23277438099630      0.31260295283592
  N   -0.59606112675158     -0.86386576914739     -1.19588060646208
  O   0.40698957302876     -0.72532550349470     -1.88966351276187
  O   -1.50525520346489     -1.66764920952884     -1.36754552780766
  N   -0.57123992310040      1.40310924293510     -0.48433661283804
  H   0.37948623422720      1.64631113613195     -0.72889780701659
  H   -0.97376119111377      2.07809032669758      0.14814025548033
