13
Coordinates from ORCA-job run
  C   0.72833143333537      0.04947504043214      0.84290668087720
  C   -0.46851194165122      0.01449733274717     -0.10173531081483
  F   0.24945157326827      0.45664729459121      2.08048726376082
  H   -1.13467170572726     -0.81596904099334      0.16737495642182
  H   1.45636444161408      0.78343915778281      0.49676492384866
  C   1.34462574832711     -1.27306284238796      0.98349955102694
  N   1.80837353226281     -2.34265232486351      1.11709488441682
  N   -0.00402864785007     -0.30100707502304     -1.49895261687347
  O   -0.90253037354658     -0.46060888176451     -2.31735690461262
  O   1.20306290019267     -0.34155211412593     -1.72158311692084
  N   -1.07327994538244      1.31629806185196     -0.15925929904817
  H   -1.94635789848403      1.26881858150241     -0.66989879433524
  H   -1.25982911635871      1.64467681025059      0.77965778225292
