13
Coordinates from ORCA-job run
  C   0.40561310237353     -0.44353578857795      1.05372902991309
  C   -0.67397825687427      0.06655124395025      0.09996047711685
  F   0.31786171302058     -1.81113523866047      1.17165827677011
  H   -1.65183245793544     -0.18913921014617      0.50920852318314
  H   0.22332615819694      0.00916865258163      2.03158139862233
  C   1.75262376575375     -0.06818791961289      0.60028616523134
  N   2.82541750410787      0.27464441770847      0.27012790982993
  N   -0.57251187924434     -0.75447985218219     -1.18560232289838
  O   0.26603818222341     -0.37852131321914     -2.00171865039350
  O   -1.33057636835321     -1.71155348782688     -1.29967300931522
  N   -0.52609511035351      1.46245998419709     -0.08334880003581
  H   -1.33612044236369      1.86928571024809     -0.53077276174346
  H   0.29923408944835      1.67144280154019     -0.63343623628043
