17

C	0.0	0.0	0.0
C	-0.161671	-0.160731	-1.540558
F	1.427629	0.0	0.0
H	0.322264	-1.133167	-1.739401
C	-0.56857	1.272256	0.550517
H	-1.662158	1.19755	0.499
H	-0.222186	2.118397	-0.041756
H	-0.25147	1.395418	1.590544
N	-0.485989	-1.145742	0.653747
H	0.137266	-1.935858	0.594627
H	-0.840523	-0.984501	1.581894
N	0.523228	0.950269	-2.218939
H	0.380175	0.865882	-3.217441
H	1.512294	0.87117	-2.024161
C	-1.490123	-0.278424	-2.151749
N	-2.339243	-0.427572	-2.949858
Cl	-4.015375	0.0	0.0
