17

C	0.0	0.0	0.0
C	-0.341899	0.108606	-1.512095
F	1.401226	0.0	0.0
H	0.512668	0.652022	-1.929155
C	-0.424475	1.242719	0.758198
H	-1.512172	1.286323	0.818797
H	-0.055519	2.146259	0.269584
H	-0.001052	1.183275	1.766718
N	-0.471186	-1.233803	0.54929
H	-0.418786	-1.188258	1.561059
H	-1.459278	-1.327677	0.317793
N	-1.532606	0.88684	-1.785453
H	-1.73786	0.858264	-2.776729
H	-2.352502	0.526135	-1.286918
C	-0.303292	-1.229157	-2.154468
N	-0.286456	-2.227894	-2.773726
Cl	-4.009351	0.0	0.0
