17

C	0.0	0.0	0.0
C	-0.370544	0.023615	-1.496728
F	1.413193	0.0	0.0
H	0.349495	0.70417	-1.967288
C	-0.467685	1.247998	0.712267
H	-1.55565	1.255965	0.774847
H	-0.131447	2.135208	0.174629
H	-0.032358	1.258701	1.716296
N	-0.51697	-1.155502	0.62081
H	-0.477693	-1.10837	1.627858
H	-0.092004	-2.005972	0.277504
N	-1.703286	0.532119	-1.701377
H	-2.411887	0.119637	-1.084438
H	-2.006467	0.388266	-2.655622
C	-0.089058	-1.315379	-2.077407
N	0.124933	-2.354623	-2.583793
Cl	-4.417981	0.0	0.0
