17

C	0.0	0.0	0.0
C	-0.354801	0.104573	-1.497465
F	1.413182	0.0	0.0
H	0.354327	0.826203	-1.920787
C	-0.478917	1.20537	0.770851
H	-0.050205	1.1689	1.776723
H	-0.144449	2.120866	0.281494
H	-1.567451	1.199322	0.821299
N	-0.514719	-1.193038	0.548779
H	-0.592747	-1.167108	1.553824
H	-0.013	-2.013417	0.237744
N	-1.70103	0.594906	-1.68671
H	-1.995964	0.436658	-2.642502
H	-2.392097	0.14128	-1.077491
C	-0.048752	-1.193771	-2.14338
N	0.168952	-2.211781	-2.688074
Cl	-4.408723	0.0	0.0
