17

C	0.0	0.0	0.0
C	-0.505141	-0.090557	-1.451856
F	1.405751	0.0	0.0
H	-1.541687	0.276704	-1.411875
C	-0.476633	1.275031	0.651587
H	-0.167343	2.138583	0.058333
H	-1.565813	1.242599	0.725247
H	-0.025486	1.357962	1.644233
N	-0.461016	-1.15787	0.694458
H	0.230565	-1.891374	0.636447
H	-0.71226	-0.959054	1.650482
N	-0.441047	-1.480606	-1.922379
H	-1.158122	-1.951963	-1.376046
H	-0.756592	-1.495771	-2.886787
C	0.282806	0.77576	-2.332452
N	0.888971	1.478214	-3.051938
Cl	-3.785514	0.0	0.0
