11

C	-0.246429	0.053688	-1.489289
C	0.0	0.0	0.0
Cl	-1.992019	0.171732	-1.991073
H	1.09444	0.0	0.0
H	0.237881	0.943164	-1.893949
H	-0.378537	-0.926529	0.436485
C	0.32013	-1.123319	-2.147119
N	0.724606	-2.076314	-2.700582
C	-0.539223	1.153402	0.683634
N	-0.958557	2.095935	1.247932
F	2.511804	0.0	0.0
