11

C	-0.483605	0.041434	-1.445912
C	0.0	0.0	0.0
Cl	0.24099	-1.288295	-2.408327
H	1.092693	0.0	0.0
H	-1.563882	-0.095583	-1.538885
H	-0.319879	0.921581	0.500281
C	-0.155099	1.321092	-2.076829
N	0.049669	2.349398	-2.604206
C	-0.574488	-1.13479	0.692709
N	-1.044169	-2.053313	1.257428
F	2.527651	0.0	0.0
