11

C	-0.343396	-0.032083	-1.483519
C	0.0	0.0	0.0
Cl	0.099105	1.505598	-2.288203
H	1.092864	0.0	0.0
H	0.291303	-0.797918	-1.934912
H	-0.315144	-0.953656	0.439538
C	-1.747038	-0.32079	-1.782643
N	-2.869065	-0.591562	-2.003624
C	-0.62846	1.091567	0.710963
N	-1.125812	1.974305	1.307612
F	2.534369	0.0	0.0
