14

C	-0.301545	-0.066478	0.157858
C	-0.534433	-1.107504	-0.962164
Cl	0.96495	1.117075	-0.331719
H	0.411761	-1.64368	-1.109101
H	-1.232379	0.496767	0.291483
C	0.124462	-0.691172	1.404065
N	0.509394	-1.17255	2.404047
N	-0.936931	-0.541177	-2.235455
H	-0.24013	0.117652	-2.564744
H	-1.805988	-0.029854	-2.079314
N	-1.522936	-2.020251	-0.425272
H	-2.384809	-1.485379	-0.307899
H	-1.707711	-2.713806	-1.142065
Cl	-3.569403	0.717234	-0.51625
