14
Coordinates from ORCA-job run
  C   -0.85249026383899      0.24508803525879     -0.52612061711596
  C   0.46992473935283     -0.43710024437205     -0.10936157719660
  Br  -0.97949715477786      0.35099088712517     -2.47718853258167
  H   0.58545318672377     -1.35005302682126     -0.71032394725595
  C   -1.93186054019732     -0.63459213635226     -0.07398254908901
  N   -2.74916770121462     -1.38511959970079      0.31522781926062
  C   -1.01901363651328      1.56717318995165      0.07152389191504
  N   -1.21376825746899      2.61716152915988      0.56249925050291
  N   0.49216539728141     -0.59490686573920      1.31927746357026
  H   1.42441299875933     -0.86754576758197      1.61043631707166
  H   -0.15591625636484     -1.31857122368694      1.60797041292941
  N   1.67343582071701      0.41050189013905     -0.45512650739023
  O   1.50945296734311      1.51112440003192     -0.96387844767439
  O   2.74586870019846     -0.11515106741200     -0.17295297694608
