14
Coordinates from ORCA-job run
  C   -0.86873444513349      0.25290274567713     -0.49479346584697
  C   0.46830233674308     -0.43240237281924     -0.13305188372433
  Br  -1.05512918285150      0.40328641122659     -2.43807903330774
  H   0.57103626378588     -1.32954964728793     -0.75949967033198
  C   -1.93084391599081     -0.64174411795374     -0.03124381077115
  N   -2.73288173078338     -1.40499947940577      0.36503654853147
  C   -1.02172269125795      1.56014021670282      0.13846302217506
  N   -1.20508658149677      2.59737889947319      0.65993829018385
  N   0.53283178111836     -0.62400019712609      1.28989236191855
  H   1.47464733898272     -0.89715161633990      1.54770165953627
  H   -0.10247337268839     -1.35836516214356      1.57989071953232
  N   1.65747646807727      0.43000439349294     -0.49368119459592
  O   2.74020808910968     -0.09447248714614     -0.25183740312168
  O   1.47336964238528      1.53897241364970     -0.97673614017776
