14
Coordinates from ORCA-job run
  C   -0.81671751503055      0.40849159006533     -0.09370280650188
  C   0.50078422764909     -0.45610847520863     -0.02563360539120
  Br  -0.63181671462515      2.03943634593323      0.97694675737019
  H   0.34428305584947     -1.29974048488932     -0.70212703142010
  C   -1.18304148023451      0.78049896101471     -1.45637556517074
  N   -1.50470988762772      1.06374404280975     -2.55183070139980
  C   -1.87193467828078     -0.40655763930914      0.50329961572469
  N   -2.67216719017299     -1.11680029364446      0.99148521817413
  N   0.90508913670576     -0.90708700492652      1.24694870438759
  H   1.01420438195791     -0.15962006119926      1.91856336190454
  H   0.31704610488839     -1.64797060251493      1.60113917697675
  N   1.60751678781690      0.36367755337349     -0.64798737762274
  O   2.35856640248010      0.95671026150557      0.11604461563982
  O   1.63489736862407      0.38032580699017     -1.87577036267126
