14
Coordinates from ORCA-job run
  C   -0.95705766323579     -0.06012492764275     -0.14474696128225
  C   0.48221682819529     -0.55722529486042      0.24794071264802
  Br  -2.21991327845602     -1.07350909203972      0.97053181005631
  H   0.50744129162841     -1.63687097775616      0.10054757209979
  C   -1.12260255578926      1.35555759527799      0.16405774914317
  N   -1.24311676298319      2.48837293072343      0.45656389560468
  C   -1.26109230358166     -0.33717428634208     -1.54347809025789
  N   -1.48205757739165     -0.57335052748988     -2.67461024190625
  N   0.95544021948942     -0.20005036198258      1.53116946607164
  H   0.50684798225300     -0.72774013287306      2.26567890567482
  H   0.90114579375845      0.79593172418467      1.70456833127136
  N   1.42248077032280      0.02864144772520     -0.77794470059354
  O   1.80505175909100     -0.71610628586552     -1.67384662558148
  O   1.70521549669919      1.21364818894086     -0.62643182294837
