14
Coordinates from ORCA-job run
  C   -0.87054827865841      0.00021834442870     -0.55825277133838
  C   0.58640583449558     -0.41147149433414     -0.20811584795396
  Br  -1.63054825447218     -1.40091037698275     -1.69768881472460
  H   1.12513118900771     -0.60313687749199     -1.13626041805533
  C   -1.67848810288846      0.09528526604504      0.65543026900360
  N   -2.31142555052803      0.14835963271980      1.64499290373959
  C   -0.91553115850406      1.25643646893507     -1.30219906482575
  N   -0.95059635708971      2.26705246863953     -1.90254805902101
  N   0.59812543439574     -1.52237454102123      0.65649905344929
  H   1.50385832451033     -1.96984261738354      0.68383532631473
  H   0.30800846652741     -1.26887739820169      1.59411298162701
  N   1.25547731922896      0.83986836290836      0.38102124502183
  O   1.93635342648510      1.51586126263244     -0.38369478717746
  O   1.04477770748998      1.05553149910641      1.57186798394043
