14
Coordinates from ORCA-job run
  C   -0.85470135788392      0.24523001295577     -0.51466170534032
  C   0.47616199833600     -0.43539850669945     -0.12301473351243
  Br  -0.99736380850566      0.39735134845985     -2.46111630021455
  H   0.59762635085735     -1.33122134017017     -0.74808147144018
  C   -1.92681504768430     -0.65004953635760     -0.07529504270639
  N   -2.77793658573782     -1.36513712677870      0.30829269959102
  C   -1.02623905082066      1.55128792958487      0.11635902247083
  N   -1.22195283658603      2.59629213006968      0.61749690346619
  N   0.50670081601704     -0.62924304647283      1.30084787674481
  H   -0.13237766506631     -1.36631508220597      1.57518511243750
  H   1.44307150134055     -0.89786296853638      1.58205577550382
  N   1.67101125343381      0.43194852377643     -0.45301805460630
  O   1.49446904577002      1.53786088494288     -0.94585422473670
  O   2.74934538652991     -0.08574322256838     -0.17919585765730
