14
Coordinates from ORCA-job run
  C   -0.81341075231416      0.15540459489171     -0.51153948486716
  C   0.55543821685668     -0.48002497361870     -0.08985490739356
  Br  -0.86878221796453      0.47602192718051     -2.44046712717817
  H   0.65594076777730     -1.43103207688275     -0.61382826703413
  C   -1.84236242323275     -0.82520758501428     -0.17063427205441
  N   -2.61821042477252     -1.65442043284276      0.13516136520291
  C   -1.07981959661035      1.40373504978901      0.19865370944946
  N   -1.32350970696163      2.37744801124392      0.81147350220208
  N   0.73658839565889     -0.64221601308906      1.30660506858464
  H   0.56561645571951      0.20603978141675      1.83156686469726
  H   0.22414847126724     -1.42717109024263      1.68196689432286
  N   1.66532030527156      0.39880206430574     -0.59968634250537
  O   2.39715088646781     -0.06193551909330     -1.46721424932186
  O   1.74489162283693      1.50455626195583     -0.07220275410456
