14
Coordinates from ORCA-job run
  C   -0.87516894684635      0.36713788272234     -0.14030335449061
  C   0.43023813417226     -0.45552646815621      0.02828867163291
  Br  -0.81605130290658      1.96215369976998      1.00774062710515
  H   0.39139904984566     -1.27696390799491     -0.69201089997957
  C   -1.11093996114871      0.80627810771638     -1.51396685736466
  N   -1.36221801756387      1.14713615803623     -2.61115081647855
  C   -1.99318073463511     -0.46787045711120      0.29536914956980
  N   -2.90425528572054     -1.14260617176879      0.60647657632647
  N   0.55638610399576     -0.93305656239641      1.34426952773676
  H   1.24037269565203     -1.67454457029354      1.40777144654106
  H   0.80241314952918     -0.19210531209758      1.98862055522472
  N   1.60302126319787      0.41575389660638     -0.45524726179957
  O   2.35582061478579      0.86161211281044      0.40309591396323
  O   1.68416323764262      0.58260159215689     -1.66795327798713
