14
Coordinates from ORCA-job run
  C   -0.80310447042621      0.30854588568200     -0.31861207861554
  C   0.46866178865292     -0.37392442857943      0.31746018452867
  Br  -0.34780559167781      2.06048155230313     -1.06896543850564
  H   0.14914394308238     -1.36763183749771      0.64056585662564
  C   -1.42241092669054     -0.50222688287080     -1.36182782483046
  N   -1.94839663541480     -1.15683378720092     -2.18560883117807
  C   -1.74623148640307      0.51786466917500      0.77713219155416
  N   -2.45821965283000      0.65438658535600      1.70321117818444
  N   1.10344762356414      0.31239287168749      1.37250237180140
  H   1.37443092876920      1.25474367050967      1.12728215208705
  H   0.56821012333581      0.28687336156708      2.22883908484253
  N   1.45751251073929     -0.60928114453032     -0.80093149170022
  O   1.23808225715480     -1.58675184667507     -1.51144163246273
  O   2.36767958814388      0.20136133107388     -0.91960572233125
