14
Coordinates from ORCA-job run
  C   -0.98654514933479      0.11801885593226     -0.16451873959687
  C   0.36467573334667     -0.52152849560338      0.21140059407409
  Br  -2.34916313185877     -0.73060407220470      0.98785742052749
  H   0.30956972544193     -1.59564289082780     -0.01840675324028
  C   -1.00774023077021      1.55352608789384      0.09448438531538
  N   -1.06311158804026      2.70776636697818      0.30892754370220
  C   -1.35394824781667     -0.19771210454779     -1.54223379171725
  N   -1.66413739823444     -0.50601960874769     -2.63340628352350
  N   0.75919589332662     -0.16035987943405      1.54154376387965
  H   1.69114508439282     -0.51739315216852      1.71869931187070
  H   0.12277942521259     -0.55792705602691      2.22048537543001
  N   1.45353701535943      0.01428124314371     -0.69697113552598
  O   2.56245053268417     -0.46547126998373     -0.49181405613263
  O   1.16229233629090      0.85806597559657     -1.53704763506300
