14
Coordinates from ORCA-job run
  C   -0.84084441362396     -0.01390991294459     -0.48494232282575
  C   0.66090260053034     -0.36780583250238     -0.17868660227921
  Br  -1.60529236852714     -1.57648112709324     -1.40069758362690
  H   1.13681597597229     -0.62127166913640     -1.12598757721407
  C   -1.58968841972314      0.19326035289119      0.74929598433740
  N   -2.17662632726395      0.31690486664175      1.76104143696246
  C   -0.95382391266935      1.13589665317718     -1.37411567672398
  N   -1.01588228409143      2.06447921397806     -2.09378142972584
  N   0.89821947548298     -1.35919070632018      0.80049396132439
  H   0.43064144232599     -1.16309223644113      1.67680305813541
  H   0.68403737177294     -2.28749552595218      0.46645468556334
  N   1.30760111674813      0.91467876660672      0.28657266629115
  O   1.99611838401542      1.51963838287548     -0.52807236438657
  O   1.06682135905087      1.24338877421972      1.44462176416815
