14
Coordinates from ORCA-job run
  C   -0.82257800022216      0.24184709733774     -0.32731391827699
  C   0.49279382965010     -0.32870173400471      0.32967144956734
  Br  -0.48688530639295      1.99195110983961     -1.14263602234603
  H   0.24123178440463     -1.32838116062987      0.69202515121407
  C   -1.38605232181348     -0.64612894336710     -1.33882162309770
  N   -1.86732942221749     -1.36384469671213     -2.13680638276440
  C   -1.77708170536716      0.42664918601135      0.76303000586662
  N   -2.49459303560158      0.54632272916481      1.68709819030765
  N   1.08064474675082      0.43898140680445      1.35515565148295
  H   0.55304502236809      0.40638721610706      2.21594318439449
  H   1.28475600895243      1.38864872511415      1.07499004761561
  N   1.49397245179809     -0.54011249483772     -0.78266779033108
  O   1.34009429465079     -1.55668206579269     -1.45440002500026
  O   2.34798165303986      0.32406362496505     -0.93526791863228
