14
Coordinates from ORCA-job run
  C   -0.87828219085813      0.36592099412484     -0.13577305682136
  C   0.42977538235531     -0.45593060564165      0.01700043384860
  Br  -0.84494887832511      1.91471284665008      1.07410394585690
  H   0.40177551241559     -1.25295359280466     -0.73065455016740
  C   -1.09692231129137      0.85836446826725     -1.49426949936181
  N   -1.32007147099336      1.26987234293191     -2.57306343733851
  C   -1.99574799859343     -0.49308401050680      0.25228201384950
  N   -2.90423667836217     -1.18723159721115      0.52577667540195
  N   0.54657702285566     -0.97726257520118      1.31725156799333
  H   1.23087828067877     -1.71978813226333      1.36087541065160
  H   0.78599947428580     -0.25797551156928      1.98801976847268
  N   1.60288264733930      0.43626580570224     -0.42568516731774
  O   1.70525210245136      0.62984048965850     -1.63288310659211
  O   2.33606910604178      0.86924907786322      0.45601900152436
