14
Coordinates from ORCA-job run
  C   -0.95542134681893     -0.03829383938522     -0.16672925257289
  C   0.46983035579490     -0.57750821298797      0.22361911225474
  Br  -2.25267605941724     -1.09920109044593      0.86063758831552
  H   0.48396563527920     -1.64671298987474      0.01209380334938
  C   -1.10903036465656      1.35861589312378      0.22325905210951
  N   -1.21857374383921      2.47339638432666      0.58179576199813
  C   -1.23349309689280     -0.22721010124743     -1.58538147446696
  N   -1.43235995762565     -0.39365911539248     -2.73290382586123
  N   0.92113879808269     -0.30365347315728      1.53493053156512
  H   0.87789375055596      0.68137039653948      1.76499295881572
  H   0.44900708023304     -0.86607149032242      2.22786212801307
  N   1.43797237204808      0.05550685930022     -0.74669905341554
  O   1.83106077811694     -0.64031888414987     -1.67673004144460
  O   1.73168579913957      1.22573966367319     -0.51974728865997
