14
Coordinates from ORCA-job run
  C   -0.82114394191278      0.02756722726411     -0.59645769827147
  C   0.48039376998248     -0.48530910424333      0.07332588200962
  Br  -0.63015307783448      0.05867240674111     -2.54418356694567
  H   0.64970659868749     -1.51713654073883     -0.23632445153202
  C   -1.88752004507648     -0.91218860056933     -0.25535538967417
  N   -2.72935825254999     -1.68893166924740      0.00828302694793
  C   -1.17807130542073      1.36596931431274     -0.13006324228271
  N   -1.48951665052328      2.42340338598809      0.27912026046731
  N   0.34494340696303     -0.37316339620672      1.47582839620615
  H   1.01427175221284     -0.94304150646568      1.97515924734188
  H   0.39860206315061      0.59049014134734      1.78571258720944
  N   1.66196675587309      0.29589862890583     -0.48998298701289
  O   2.48019011087700     -0.32659857248176     -1.15865408035248
  O   1.70668881557122      1.48536828539384     -0.18640798411092
