14
Coordinates from ORCA-job run
  C   -0.79904313853739      0.15572136675126     -0.53216522561603
  C   0.55476347000342     -0.48424627261650     -0.07019433580141
  Br  -0.80329187592115      0.46144548790532     -2.46433254347689
  H   0.66103471019831     -1.44181475215474     -0.58095486166032
  C   -1.84178541002334     -0.81696337427600     -0.21169518601865
  N   -2.63013313335211     -1.64082628461434      0.07613571971877
  C   -1.07645468891597      1.41111048162065      0.16085778582193
  N   -1.32989712541248      2.39105745496819      0.75962266188383
  N   0.70067164211110     -0.63210028502206      1.33201656331316
  H   0.52424518686700      0.22362294110038      1.84291360271064
  H   0.17108182701882     -1.40753905858924      1.70350909274485
  N   1.68266119202573      0.38156261930443     -0.56225525550620
  O   2.43282316933845     -0.09392785169635     -1.40563201860862
  O   1.75432417459961      1.49389752731899     -0.04782599950505
