14
Coordinates from ORCA-job run
  C   -0.96172683372840     -0.11984458197934     -0.06683542574344
  C   0.54694735891923     -0.54899698121154      0.05052431592282
  Br  -2.00730919531866     -1.50259175150122      0.85997730406038
  H   0.63547825824824     -1.54952863436836     -0.37276892556156
  C   -1.19698790890163      1.15066892609674      0.60920290733490
  N   -1.36522188908308      2.15799472262697      1.19271429084705
  C   -1.40076009887186     -0.07115761680980     -1.45620502142481
  N   -1.72487898803319     -0.04222927241072     -2.58674095352992
  N   1.13575507743250     -0.47595914629261      1.33363838416939
  H   1.02958933658342      0.43598067722699      1.76027487374049
  H   0.81309245541957     -1.21079346791222      1.94617054646846
  N   1.31733206886667      0.36667864810841     -0.87018672120251
  O   1.65468236652999     -0.08978061263682     -1.95715980952228
  O   1.52400799193719      1.49955909106352     -0.44460576555897
