14
Coordinates from ORCA-job run
  C   -0.85874085276466      0.15823683931192     -0.51595808599722
  C   0.46435583832597     -0.50386811572445     -0.05084330796471
  Br  -0.80460305274632      0.53674341359520     -2.43582499019352
  H   0.56725777890981     -1.46758052338569     -0.55085876217202
  C   -1.93682685344228     -0.79732569442385     -0.26820970314070
  N   -2.79273852550679     -1.58228811512904     -0.08678722810446
  C   -1.12693017849206      1.39931170092433      0.20829975758365
  N   -1.36560013784228      2.37393590406199      0.82126416424454
  N   0.43347837240474     -0.64284185549439      1.35548680291210
  H   1.11003241413798     -1.31413995007964      1.69238081433048
  H   0.54983066427665      0.24652835763446      1.82754479406885
  N   1.63446521255970      0.33170921877611     -0.55656428754017
  O   1.74813093304412      1.44729966868661     -0.05482924220245
  O   2.37788838713542     -0.18472084875356     -1.38410072582437
