14
Coordinates from ORCA-job run
  C   -0.95984570996530     -0.12230262407416     -0.07890598790288
  C   0.54452152977790     -0.54460147922749      0.10202368799572
  Br  -2.02984991916785     -1.43211066854682      0.92314758025603
  H   0.63889002476792     -1.57363924872987     -0.24478473374396
  C   -1.20548674683740      1.19402639835570      0.49888468234197
  N   -1.38472540389768      2.24004142053030      1.00591368562997
  C   -1.36937697535874     -0.17322970072014     -1.47717521849520
  N   -1.67043628228519     -0.22634471121980     -2.61319074514980
  N   1.10592158863767     -0.37960714643877      1.38890349549295
  H   0.99119846749138      0.56029611699026      1.74747923141328
  H   0.76819633865015     -1.06852963896453      2.04504181469295
  N   1.33717908825611      0.30011181666381     -0.86619952473018
  O   1.53924401284955      1.46043112984005     -0.51983217362635
  O   1.69456998708149     -0.23454166445855     -1.91030579417450
