14
Coordinates from ORCA-job run
  C   -1.03961262250287     -0.05718672281705     -0.05744153717300
  C   0.40364714668931     -0.57582528754429      0.16533813010623
  Br  -2.24693016978584     -1.28497008690789      0.88310340461890
  H   0.44107759790958     -1.63695865134573     -0.08227838730242
  C   -1.22534458093400      1.27529826022453      0.51001439085530
  N   -1.36906283685358      2.32573870886607      1.01796010462054
  C   -1.39162477254204     -0.08611457520486     -1.47428184719611
  N   -1.65741104131826     -0.14318004776967     -2.61813028677300
  N   0.82514110443095     -0.34845783441783      1.49470146510982
  H   1.65154159726269     -0.88146314646589      1.72850794141210
  H   0.96407896956038      0.63461080061164      1.69752847041961
  N   1.31240654953622      0.09380032211941     -0.86385922022744
  O   1.13665572339507      1.29431117032824     -1.06056402030359
  O   2.19643733515240     -0.60960290967669     -1.34259860816693
