14
Coordinates from ORCA-job run
  C   -0.88411819119909      0.30375945473266     -0.21921744904741
  C   0.46388479831963     -0.41858384351376      0.04655195916187
  Br  -1.10554156453272      1.79528224095674      1.04241184944022
  H   0.58595035713666     -1.17606084167792     -0.73222103675360
  C   -0.99878708181935      0.83614448441175     -1.57521645730203
  N   -1.15077131308080      1.24551999859603     -2.66718986278047
  C   -1.96239838602327     -0.65535708986476      0.01365165325268
  N   -2.83607255404369     -1.42800682124867      0.16116145767822
  N   0.48117217115961     -0.99409018059805      1.32876489086439
  H   0.58265458659922     -0.29298810683065      2.05181753323664
  H   1.21761123647603     -1.68023139800996      1.41987844029058
  N   1.59892797687678      0.58579537663713     -0.22266925604105
  O   1.80421739759161      0.86177957027939     -1.40029330066183
  O   2.20327056653937      1.01703715613006      0.75256957866177
