14
Coordinates from ORCA-job run
  C   -0.88460956045421      0.29128481466162     -0.22976845453595
  C   0.46469885783251     -0.41586788752664      0.06777628459759
  Br  -1.09115862465482      1.85958103694554      0.93833081087508
  H   0.57871156440378     -1.22041017200748     -0.66365491209248
  C   -1.01293707576286      0.73804524155584     -1.61523260929244
  N   -1.17656559207427      1.07838873719281     -2.72899102132883
  C   -1.96279322797275     -0.64826619052968      0.07326078386562
  N   -2.83678126780324     -1.40809595528384      0.27527107624971
  N   0.49238802030239     -0.91230027893413      1.38240106051153
  H   0.60019941795732     -0.16925051401324      2.06124363241677
  H   1.22871792875295     -1.59294817126258      1.50885105505200
  N   1.59771895408004      0.56881286892914     -0.27262529598553
  O   1.79036066745043      0.77406809837881     -1.46661708407101
  O   2.21204993794272      1.05695837189383      0.66875467373793
