14
Coordinates from ORCA-job run
  C   -1.02752474853840      0.03850563050091     -0.16846677850409
  C   0.31276077523707     -0.56702561494279      0.31709316265368
  Br  -2.45988618138036     -0.83996743106881      0.84579742894512
  H   0.24451929160832     -1.65459471413413      0.28013695266813
  C   -1.10073026899597      1.47113747092307      0.10419918953975
  N   -1.16396554874708      2.61171907077323      0.38151018325161
  C   -1.24762355404424     -0.24714940383978     -1.58351209098231
  N   -1.42152390862343     -0.51623234158476     -2.71483954051010
  N   0.63031965830229     -0.12281593970682      1.62029655855528
  H   1.36308254598812     -0.67621302397420      2.04276909259363
  H   0.86277008344735      0.86294516503657      1.65216700518839
  N   1.39343931526273     -0.21342670599478     -0.70394939933905
  O   2.24891221019754     -1.07082409264155     -0.89901854950840
  O   1.36545033028606      0.92194193065384     -1.17418321455166
