14
Coordinates from ORCA-job run
  C   -0.83832213138340      0.32371976246940     -0.18455771656685
  C   0.55052506243918     -0.39601172400030      0.01729487545017
  Br  -0.99363322681727      1.87478139206398      1.00299114854736
  H   0.58818638551799     -1.19493516232520     -0.72722848601067
  C   -1.05889054022048      0.76108663134804     -1.55901524948010
  N   -1.26252157196547      1.09466259730111     -2.66856646313876
  C   -1.86111995362154     -0.64513447509727      0.20148187518640
  N   -2.63077135534151     -1.47388104401311      0.52401204156811
  N   0.82877045335171     -0.90125199179748      1.30352724994692
  H   0.28659501370331     -1.72521890154310      1.52169679739842
  H   0.75659061144285     -0.20165993310821      2.02956584725876
  N   1.62673170529660      0.58589040791762     -0.38523006272587
  O   1.81568056627541      0.70636617437645     -1.59270836877534
  O   2.19317898132262      1.19158626640806      0.51573651134146
