14
Coordinates from ORCA-job run
  C   -0.88846805927536      0.29384152943436     -0.21444877570007
  C   0.45438725925190     -0.42134072492516      0.09251643264262
  Br  -0.98163145290842      1.99530528141001      0.76623723598742
  H   0.50221855778273     -1.31031853403842     -0.54198596649165
  C   -1.08178890149749      0.57825435516033     -1.63469834922762
  N   -1.29730318915431      0.79120658324601     -2.77103853102780
  C   -1.97395388570705     -0.56467404975908      0.25627244346079
  N   -2.85621946778811     -1.26335697005007      0.59610889677563
  N   0.54434690904099     -0.75853338643712      1.45417335430809
  H   1.26821312284313     -1.44394701013363      1.62126492910013
  H   0.71309973629579      0.05625871565501      2.03070199818847
  N   1.59495729567639      0.47347309329024     -0.42515814678541
  O   1.72588636822216      0.52626021498322     -1.64379036804980
  O   2.27625570721767      1.04857090216431      0.41584484681919
