14
Coordinates from ORCA-job run
  C   -0.82042579450205      0.15876515552070     -0.49820245059018
  C   0.55397575001555     -0.48002984927008     -0.09975944687333
  Br  -0.90293412492298      0.48831411333175     -2.42509939648988
  H   0.64476478318776     -1.42892767660950     -0.62929147560270
  C   -1.84442779108564     -0.82388560249960     -0.14881787468856
  N   -2.61480714852937     -1.65652803143588      0.16152771963894
  C   -1.07602516123183      1.40390360202590      0.22091614577716
  N   -1.31115890792960      2.37538188518879      0.84064646826607
  N   0.75540952004497     -0.64908847755617      1.29344000168546
  H   0.59566770669850      0.19811288232067      1.82374289399698
  H   0.24195570072654     -1.43152136164459      1.67291212134085
  N   1.65748237223622      0.39947577883062     -0.62093857364891
  O   1.74447259680177      1.50361882276070     -0.09122610807346
  O   2.37705049849015     -0.05859124096331     -1.49985002473844
