14
Coordinates from ORCA-job run
  C   -0.80988697330761      0.14114604687568     -0.52014692243323
  C   0.55767348052103     -0.47936618954819     -0.07407670896133
  Br  -0.85180947987342      0.41599838801284     -2.45664224704581
  H   0.66529497722052     -1.44185777418487     -0.57526165917160
  C   -1.83729878062146     -0.83626098699946     -0.16566771366616
  N   -2.60997917657381     -1.66499889179997      0.14933269031992
  C   -1.08711720236110      1.40474148000288      0.15780032250585
  N   -1.33962693983796      2.39373217081445      0.74189233376067
  N   0.72894024910298     -0.60935406114449      1.32719465356782
  H   0.54947330980843      0.24928569116829      1.83175770633993
  H   0.21603843050472     -1.38725650101625      1.71585413302702
  N   1.66879477188211      0.39145763295035     -0.59500364925193
  O   1.73884686429619      1.51019473643897     -0.09417206798568
  O   2.41065646923939     -0.08746174157023     -1.44386087100549
