14
Coordinates from ORCA-job run
  C   -0.90796592912556      0.03965052225767     -0.49286588747299
  C   0.58995081245664     -0.33353286831838     -0.31405381719135
  Br  -1.67941934507685     -1.19423049790019     -1.80482837119400
  H   1.06773493041062     -0.33023522181234     -1.29389795574113
  C   -1.62719590413707     -0.12137354756740      0.76875227428455
  N   -2.18770997869815     -0.27364241144367      1.79115461951313
  C   -1.07201183479077      1.39799200942429     -1.00414530930931
  N   -1.20377594777760      2.49140678319609     -1.41658628918348
  N   0.72191082067198     -1.57199031894416      0.34233955336494
  H   1.64876253260387     -1.95976742108179      0.23264802726683
  H   0.49090333294039     -1.49866002646256      1.32673871139867
  N   1.23581716340402      0.83965768755050      0.43980823212209
  O   1.10489756108971      0.83468464107736      1.66113266269426
  O   1.81810178602877      1.68004067002458     -0.23819645055220
