14
Coordinates from ORCA-job run
  C   -0.99867873908398      0.00469250206581     -0.13578455474171
  C   0.42143303604385     -0.46033155339986      0.24303435438966
  Br  -2.23233718643418     -0.86213893000071      1.14164931682414
  H   0.46895405787233     -1.55140787229428      0.11254928394701
  C   -1.15758396179290      1.44900857596431     -0.00685802469355
  N   -1.32267768067898      2.60731057983799      0.10530393201110
  C   -1.37344150263238     -0.47436529300322     -1.46341626480726
  N   -1.68015351283522     -0.91517088976386     -2.50907662944003
  N   0.81602805002884      0.06059806676707      1.51910035048917
  H   0.24698120907174     -0.33769195481604      2.25515821935844
  H   1.78561534259261     -0.18092978296376      1.68941860968316
  N   1.42274965938176      0.09260444383056     -0.75137014048416
  O   1.02243980831551      0.81707280752479     -1.65553881180017
  O   2.58067142015099     -0.25225069974880     -0.54516964073579
