14
Coordinates from ORCA-job run
  C   -0.95776716921062     -0.05036267373845     -0.14988937728417
  C   0.47195277439111     -0.55666916697068      0.26811039020572
  Br  -2.24261102615803     -1.01063403701476      0.98642266064419
  H   0.48086267144838     -1.64065499859173      0.15422876019472
  C   -1.10266723224805      1.37635481630112      0.11553642206011
  N   -1.20348826964479      2.51844366239127      0.37783609689495
  C   -1.25641566310453     -0.36492281124014     -1.54179067998401
  N   -1.47248909949495     -0.63137824823428     -2.66711206414745
  N   0.94178933009238     -0.16648989813121      1.54283975797139
  H   0.47986100191922     -0.66325555140624      2.29053043746866
  H   0.90265131849863      0.83528951639085      1.68375486197099
  N   1.42711062574917     -0.01720063665434     -0.76913757702940
  O   1.80190097919316     -0.79461917899862     -1.64027324083781
  O   1.72830975856892      1.16709920589723     -0.65205644812791
