13

C	-0.563204	-0.019565	-1.41103
C	0.0	0.0	0.0
F	-0.377594	1.198057	-2.0475
H	1.099681	0.0	0.0
H	-1.640984	-0.227574	-1.39523
C	0.092014	-1.073603	-2.203052
N	0.567084	-1.884572	-2.903856
N	-0.360603	-1.29966	0.59938
H	0.517557	-1.698941	0.907803
H	-0.95559	-1.185711	1.409629
C	-0.545326	1.128171	0.733978
N	-1.007233	2.010596	1.360476
F	2.537785	0.0	0.0
