13

C	-0.262145	-0.058055	-1.487114
C	0.0	0.0	0.0
F	-1.577833	-0.454477	-1.795256
H	1.096022	0.0	0.0
H	0.405925	-0.819692	-1.897318
C	-0.016206	1.218307	-2.172516
N	0.148603	2.242708	-2.721624
N	-0.362175	-1.244163	0.674177
H	0.465188	-1.828039	0.672101
H	-1.121561	-1.716718	0.201845
C	-0.629634	1.148128	0.632847
N	-1.129334	2.078717	1.14932
F	2.527024	0.0	0.0
