13

C	-0.52783	-0.002894	-1.42573
C	0.0	0.0	0.0
F	-0.335124	1.225382	-2.039736
H	1.099641	0.0	0.0
H	-1.604929	-0.210483	-1.443809
C	0.146194	-1.042539	-2.223533
N	0.626245	-1.847233	-2.929691
N	-0.363522	-1.296489	0.590822
H	0.478392	-1.651608	1.028038
H	-1.085986	-1.208381	1.292924
C	-0.546169	1.132344	0.728891
N	-1.014364	2.01194	1.355055
F	2.533032	0.0	0.0
