13

C	-0.402599	-0.079223	-1.468236
C	0.0	0.0	0.0
F	-0.122235	1.099818	-2.135331
H	1.095234	0.0	0.0
H	-1.481755	-0.25745	-1.587007
C	0.308377	-1.191046	-2.128999
N	0.791372	-2.099273	-2.693207
N	-0.351549	-1.21865	0.721686
H	0.454316	-1.829385	0.676435
H	-1.166121	-1.693656	0.348599
C	-0.613129	1.174326	0.602861
N	-1.121219	2.121025	1.081096
F	2.528535	0.0	0.0
