13

C	-0.393272	-0.039334	-1.450509
C	0.0	0.0	0.0
F	-1.774326	-0.211628	-1.632138
H	1.099038	0.0	0.0
H	0.104456	-0.906523	-1.889231
C	-0.005892	1.178294	-2.181504
N	0.281667	2.131938	-2.801682
N	-0.370906	-1.271457	0.623197
H	-1.267803	-1.214197	1.089414
H	0.347163	-1.484035	1.305747
C	-0.541986	1.16677	0.687098
N	-0.990218	2.07206	1.290936
F	2.525947	0.0	0.0
