13

C	-0.543932	-0.090027	-1.414781
C	0.0	0.0	0.0
F	-0.328635	1.087847	-2.115754
H	1.09965	0.0	0.0
H	-1.626956	-0.269914	-1.40822
C	0.096182	-1.203133	-2.14295
N	0.555992	-2.073493	-2.782373
N	-0.358855	-1.259286	0.676599
H	-1.039608	-1.114385	1.410761
H	0.501658	-1.596425	1.090834
C	-0.537187	1.174554	0.665151
N	-0.997164	2.092938	1.239848
F	2.529853	0.0	0.0
