13

C	-0.540323	-0.096332	-1.416712
C	0.0	0.0	0.0
F	-0.364386	1.089427	-2.110487
H	1.094051	0.0	0.0
H	-1.614713	-0.312459	-1.408586
C	0.137019	-1.181731	-2.14966
N	0.656784	-2.037189	-2.760693
N	-0.358943	-1.255415	0.679051
H	-1.063241	-1.114131	1.392568
H	0.493499	-1.585707	1.118936
C	-0.544739	1.176783	0.656279
N	-1.006751	2.098951	1.223351
F	2.531168	0.0	0.0
