13

C	-0.39297	-0.103249	-1.469245
C	0.0	0.0	0.0
F	-0.094044	1.061124	-2.155537
H	1.095292	0.0	0.0
H	-1.473137	-0.272432	-1.595848
C	0.314956	-1.231412	-2.105164
N	0.818126	-2.128718	-2.668576
N	-0.35453	-1.207924	0.738903
H	0.457003	-1.813394	0.717464
H	-1.151995	-1.696674	0.351341
C	-0.616406	1.182358	0.581611
N	-1.121921	2.133747	1.053099
F	2.526857	0.0	0.0
