13

C	-0.534496	-0.113669	-1.418382
C	0.0	0.0	0.0
F	-0.357197	1.069643	-2.121965
H	1.094062	0.0	0.0
H	-1.60948	-0.326161	-1.414107
C	0.145578	-1.201228	-2.143024
N	0.65862	-2.070043	-2.739111
N	-0.364922	-1.246747	0.687172
H	-1.069841	-1.099397	1.395907
H	0.482954	-1.576908	1.12987
C	-0.547854	1.181953	0.641289
N	-1.015281	2.104562	1.201772
F	2.520865	0.0	0.0
