13

C	-0.399121	-0.061411	-1.448549
C	0.0	0.0	0.0
F	-1.778677	-0.245838	-1.621553
H	1.095185	0.0	0.0
H	0.103314	-0.930673	-1.877002
C	-0.024393	1.150822	-2.194616
N	0.238516	2.123824	-2.794846
N	-0.364636	-1.264465	0.642392
H	-1.251123	-1.200318	1.126092
H	0.365596	-1.469649	1.313377
C	-0.542586	1.173264	0.674594
N	-0.982159	2.084921	1.274865
F	2.526663	0.0	0.0
