13

C	-0.552703	-0.045939	-1.41505
C	0.0	0.0	0.0
F	-0.378388	1.16389	-2.070445
H	1.099627	0.0	0.0
H	-1.628249	-0.257739	-1.402247
C	0.108244	-1.106594	-2.195453
N	0.590649	-1.926932	-2.881922
N	-0.351812	-1.283588	0.634021
H	0.516346	-1.642401	1.016013
H	-1.012978	-1.166106	1.388741
C	-0.541815	1.148275	0.705616
N	-1.003151	2.043857	1.31407
F	2.535006	0.0	0.0
