13

C	-0.294891	0.011003	-1.499746
C	0.0	0.0	0.0
F	0.206723	-1.150002	-2.067314
H	1.096154	0.0	0.0
H	0.214878	0.86161	-1.960139
C	-1.737841	0.052931	-1.815955
N	-2.891332	0.077703	-2.035586
N	-0.466532	-1.179617	0.70398
H	-1.36575	-1.502642	0.362864
H	0.225741	-1.901787	0.552668
C	-0.527187	1.225854	0.582801
N	-0.961747	2.223104	1.030149
F	2.537446	0.0	0.0
