17
Coordinates from ORCA-job run
  C   0.49414827964975      0.42163822310929      0.57042275744906
  C   -0.71891801949720      0.57724731659239     -0.36399262623563
  Cl  1.01771329971695      2.02978463772197      1.11381824751990
  H   -1.43611189410740      1.21443797597964      0.16207915092948
  N   -0.04234294714009     -0.30296067106279      1.80821002598541
  O   0.51135959597040     -1.34634627403818      2.13821790837987
  O   -1.01567401674885      0.20328392376325      2.35332158631007
  C   1.66584647713597     -0.32454123738643     -0.01726860121795
  H   2.46774235891927     -0.39840274264198      0.71567238203115
  H   1.37735375939448     -1.33328619239262     -0.31148462463892
  H   2.03027957788817      0.22157682483106     -0.88829324171020
  C   -1.38744941972660     -0.75878130776003     -0.70960712010586
  H   -0.71074813777341     -1.41898182440289     -1.25283771402225
  H   -1.73552537975315     -1.26263218576867      0.19334795077506
  H   -2.25546095508394     -0.57065191826582     -1.34320064696794
  C   -0.29679040108357      1.26586143339517     -1.58287190389084
  N   0.03557782223925      1.78075401832665     -2.58453353059042
