17
Coordinates from ORCA-job run
  C   0.28761786775241     -0.07130531145728      0.66377239860504
  C   -0.54816411469894     -0.25106577015081     -0.61591871850548
  Cl  -0.70466758635738      0.56221853006452      1.97372909004616
  H   0.12178305301512     -0.71858920481191     -1.34475866343239
  N   0.79665979436821     -1.47566387226125      1.04178091038661
  O   1.46207762552317     -2.00683544376209      0.15618186824924
  O   0.54181351379911     -1.94331741435358      2.13904811576112
  C   1.51672658867129      0.79641073231781      0.46765114563932
  H   1.22138131655967      1.82977144216958      0.29057843899946
  H   2.12970851873420      0.76857113759260      1.37039113810209
  H   2.10330311780272      0.42755217677999     -0.37478004244535
  C   -1.08524647695084      1.06260930140561     -1.18805668494615
  H   -0.26555745413105      1.72486127174963     -1.46882848027821
  H   -1.67104030676082      0.85242186379199     -2.08422169033786
  H   -1.72750179338208      1.56975527509805     -0.46831596358215
  C   -1.64287508589640     -1.19254569304007     -0.36808459757251
  N   -2.53501857804839     -1.93484902113282     -0.18916826468895
