17
Coordinates from ORCA-job run
  C   0.51804299910991      0.34898299148136      0.59801539108298
  C   -0.65620450957274      0.65589967646230     -0.34823329852264
  Cl  1.17212112350641      1.87647462136209      1.22586815274254
  H   -1.32437488283061      1.33148054831964      0.19425434652586
  N   -0.10789567835280     -0.37973391547244      1.79072413879808
  O   -1.04241635071695      0.18778642555047      2.34326525764709
  O   0.34055750536009     -1.48439321145760      2.07869762353195
  C   1.63011085757819     -0.47300460402358     -0.00415715846667
  H   2.06057769463206      0.07694290099630     -0.84200582079319
  H   2.40639769033284     -0.65260187688349      0.73796973522879
  H   1.25835077502107     -1.43684175653121     -0.35066831908213
  C   -1.43421624393352     -0.59689257866074     -0.76786149042642
  H   -1.84297285608399     -1.10956796588781      0.10424441002870
  H   -2.26980930135431     -0.30199254830490     -1.40442237907672
  H   -0.80850709154799     -1.28881069593243     -1.33235138192429
  C   -0.14852551113027      1.35853189377175     -1.52616705538307
  N   0.24876377998260      1.88774009521026     -2.49617215191084
