17
Coordinates from ORCA-job run
  C   0.47359333922134      0.17557961291929      0.58041329946001
  C   -0.46232625561139      0.38378562810717     -0.63106444177278
  Cl  0.15041273181098      1.41607015906297      1.81372371424481
  H   -0.07641532492708      1.29467074879783     -1.10550634826820
  N   0.19066522035424     -1.17054245779839      1.25359137608627
  O   -0.98031838801582     -1.52691057592160      1.31104292089354
  O   1.15111773008469     -1.77764147932474      1.71144503665688
  C   1.93230315750429      0.23503336569867      0.18204286589519
  H   2.16486446555338     -0.56683796092859     -0.52095546149528
  H   2.13024822781034      1.19983384671638     -0.28769724671400
  H   2.56933355331348      0.12781904645843      1.05687348348094
  C   -1.96496511651068      0.58651488407862     -0.40066051521031
  H   -2.44663257489890     -0.32837794055647     -0.06968994452001
  H   -2.41346315117354      0.90504421092061     -1.34396911860898
  H   -2.13238816360413      1.36781331645691      0.33988815373760
  C   -0.23111797105305     -0.71638289421971     -1.57192299473461
  N   -0.05291147985814     -1.60447151046738     -2.31955477913108
