17
Coordinates from ORCA-job run
  C   0.29904734344616     -0.06906485812772      0.65857213574054
  C   -0.57782494426861     -0.23613578361410     -0.59492243858107
  Cl  -0.62151522797367      0.65938338158240      1.97170886469201
  H   0.04437485463077     -0.76432277646167     -1.32473012193726
  N   0.73554772676115     -1.48919166020204      1.06719477230450
  O   1.34558582914489     -2.08413455932254      0.18225870925574
  O   0.48373078736096     -1.90802304176032      2.18483532305272
  C   1.57141585837099      0.71878314478068      0.40800346348975
  H   1.33264065153200      1.76281118928755      0.20956722290555
  H   2.20490800934916      0.67823630903793      1.29602019721946
  H   2.11331199384311      0.29363549650500     -0.43785759046005
  C   -1.05032703484798      1.08995263309334     -1.19468835668211
  H   -1.66829415302173      0.88911940758757     -2.07090100555971
  H   -1.64433512160374      1.65514090581464     -0.47705108397103
  H   -0.20007831035199      1.69357841717997     -1.51306944628213
  C   -1.71977262365825     -1.10277024596757     -0.29277945657539
  N   -2.64841563871323     -1.78599795941311     -0.07016118861152
