17
Coordinates from ORCA-job run
  C   0.56511984726801      0.36208888411901      0.54341406481725
  C   -0.60598306839951      0.67285179821512     -0.40571335616811
  Cl  1.37370593643917      1.88113988304094      0.98452032694134
  H   -1.19206165734812      1.46349048550196      0.07237473479911
  N   -0.08622475788019     -0.17182449496197      1.82230368033735
  O   0.26839526341633     -1.27652462075364      2.21998190893836
  O   -0.94758581324318      0.53686023150427      2.32887640782577
  C   1.57955826479659     -0.61997003699777      0.01284438949042
  H   2.03186956524296     -0.20653103877537     -0.88942242519632
  H   1.11199558884389     -1.57687951762762     -0.21743038328661
  H   2.35869654960666     -0.78954868843462      0.75431711465935
  C   -1.50856262696986     -0.53939678122661     -0.66495978575733
  H   -2.33078945389083     -0.23962038353936     -1.31648355474849
  H   -1.93832743216128     -0.90885955970115      0.26733137649109
  H   -0.96610360640771     -1.34712213301945     -1.15718189877139
  C   -0.07269338575986      1.19044809391685     -1.66513522903217
  N   0.35999078644693      1.56739787873940     -2.68963737133965
