17
Coordinates from ORCA-job run
  C   0.47656970670831      0.30098012070468      0.56983673235922
  C   -0.40218858202389      0.44318930545455     -0.69351507624341
  Cl  0.26156550804150      1.74944019659559      1.56176945048672
  H   -0.18216165889819      1.44267046338048     -1.08537686983850
  N   -0.05400558076187     -0.91655148017502      1.33325456800177
  O   0.19366564676821     -1.98625633094344      0.78286226249383
  O   -0.70647929061163     -0.75942035860890      2.35412527910553
  C   1.94848746978217      0.09158735672094      0.28327592841421
  H   2.50321770272342      0.02966514045246      1.22101713870126
  H   2.09657423811920     -0.82393345315625     -0.28729659245649
  H   2.32628657184034      0.94122659905919     -0.28828725729052
  C   -1.90289557594363      0.33418975945479     -0.40414143717242
  H   -2.18883620291634      1.01689448849025      0.39624885586061
  H   -2.46686032981462      0.58999083686083     -1.30213119951291
  H   -2.16807375533803     -0.68442180020635     -0.11633351801952
  C   -0.01118685774819     -0.51582203082725     -1.72915199244478
  N   0.27532099007326     -1.25442881325653     -2.59615627244462
