17
Coordinates from ORCA-job run
  C   0.46727798397831      0.17274931165993      0.58590890074501
  C   -0.45372901163535      0.38714669367168     -0.63559332210748
  Cl  0.13706731153354      1.41574196739053      1.81518966515088
  H   -0.06005344123197      1.29953018654291     -1.10083264016775
  N   0.17032886331660     -1.17113928023819      1.25726382288853
  O   -1.00107941614178     -1.52974936136061      1.28860290800499
  O   1.12057922788085     -1.77386500384522      1.74134858848805
  C   1.93086005583448      0.22360997792571      0.20433152766052
  H   2.13961712310150      1.18581635286746     -0.26612375702527
  H   2.16715970950754     -0.58165752388890     -0.49361231456735
  H   2.55686808648503      0.11558742460907      1.08697543641909
  C   -1.95866567382931      0.59268415102569     -0.42308968293536
  H   -2.13334118764999      1.36705321326966      0.32306912405359
  H   -2.39350713145490      0.92238784704852     -1.36896751137352
  H   -2.44782368097822     -0.32374550502520     -0.10781945154820
  C   -0.21280737406888     -0.70866277264087     -1.57904089886081
  N   -0.02675144464746     -1.59348767901221     -2.32861039482494
