17
Coordinates from ORCA-job run
  C   0.53696725751483      0.37871446246207      0.56022065609040
  C   -0.60150637670841      0.65668410074758     -0.43772812359520
  Cl  1.30064198013841      1.91747442154143      1.01273959225486
  H   -1.21952684019573      1.44249594016896      0.00699931369971
  N   -0.15453584637440     -0.15157838925498      1.81931514813683
  O   0.20298377321697     -1.24532157513512      2.24373208640374
  O   -1.04579564212895      0.54874349811808      2.28391777511189
  C   1.58867881386962     -0.59077122054447      0.08149613592672
  H   2.06805715962644     -0.17955168999865     -0.80770018339480
  H   2.34160691417540     -0.73692052535191      0.85442165284799
  H   1.14784781310145     -1.55897251391256     -0.15415168599466
  C   -1.47202871288694     -0.57483765774836     -0.71535921769795
  H   -2.27325931844431     -0.29879752974356     -1.40254225925301
  H   -0.89665054104361     -1.37930580203384     -1.17443651213258
  H   -1.93159347125713     -0.93954463384950      0.20453580541885
  C   -0.02910201900609      1.16819687686373     -1.68219810687049
  N   0.43721505640250      1.54129223767111     -2.69326207695227
