15

C	0.0	0.0	0.0
C	-0.579653	-0.265187	-1.417698
Br	1.921985	0.0	0.0
H	0.271792	-0.393742	-2.091081
H	-0.323735	-0.775939	0.686149
N	-0.395958	1.299473	0.663418
O	-0.077929	2.352268	0.12805
O	-0.973769	1.177276	1.742099
N	-1.34315	0.864227	-1.909731
H	-2.221634	0.904544	-1.38722
H	-1.59094	0.665911	-2.873892
N	-1.24224	-1.567427	-1.312305
H	-2.136488	-1.399697	-0.843072
H	-1.469507	-1.875046	-2.25271
Cl	-3.898962	0.0	0.0
