15

C	0.0	0.0	0.0
C	-0.533669	-0.189375	-1.413742
Br	1.927392	0.0	0.0
H	-1.610475	-0.029059	-1.299294
H	-0.365171	-0.798313	0.637339
N	-0.421694	1.287851	0.653046
O	-0.578901	2.274004	-0.062746
O	-0.519106	1.272503	1.87255
N	-0.298779	-1.579605	-1.764691
H	-1.106774	-1.954262	-2.240776
H	0.510648	-1.622204	-2.372727
N	0.116047	0.69457	-2.385111
H	0.03928	1.647798	-2.048893
H	-0.428319	0.639224	-3.239666
Cl	-3.535117	0.0	0.0
