15

C	0.0	0.0	0.0
C	-0.577915	-0.336775	-1.420036
Br	1.926645	0.0	0.0
H	0.281276	-0.38717	-2.095198
H	-0.334294	-0.718207	0.742869
N	-0.390966	1.338994	0.576401
O	-0.973181	1.293484	1.658651
O	-0.073609	2.351417	-0.031296
N	-1.446981	0.714406	-1.883204
H	-1.754466	0.437283	-2.80832
H	-2.289725	0.708747	-1.300177
N	-1.231778	-1.638956	-1.434281
H	-0.665956	-2.351066	-0.983506
H	-2.122886	-1.55028	-0.945387
Cl	-4.004814	0.0	0.0
