15

C	0.0	0.0	0.0
C	-0.520324	-1.178294	-0.961673
Br	1.929006	0.0	0.0
H	0.390048	-1.57577	-1.421333
H	-0.359552	-0.099958	1.02078
N	-0.379449	1.399157	-0.405236
O	-0.168439	1.733922	-1.568687
O	-0.837138	2.119494	0.475882
N	-1.421399	-0.806868	-2.010497
H	-1.029117	-0.049311	-2.551105
H	-2.304411	-0.497668	-1.600151
N	-1.131761	-2.224197	-0.168229
H	-2.038372	-1.88237	0.149778
H	-0.559037	-2.430674	0.642185
Cl	-3.778183	0.0	0.0
