15

C	0.0	0.0	0.0
C	-0.543262	0.035458	-1.481694
Br	1.928285	0.0	0.0
H	0.344635	0.108798	-2.117079
H	-0.348339	-0.874303	0.540664
N	-0.385016	1.184429	0.841969
O	-0.151512	2.305142	0.394709
O	-0.86816	0.938337	1.942081
N	-1.428494	1.106697	-1.86461
H	-2.30761	1.011425	-1.351093
H	-1.016724	2.006756	-1.658382
N	-1.137409	-1.278683	-1.675684
H	-2.023725	-1.263136	-1.165841
H	-1.38983	-1.334179	-2.657217
Cl	-3.823365	0.0	0.0
