10
Coordinates from ORCA-job run
  C   0.16729035717119      0.61358918667183     -0.03742388824510
  C   -1.12910773380351     -0.17565076675062      0.02479553095204
  H   0.28848874287031      1.27284190133029      0.82042782792921
  H   -1.98025599854493      0.50663195937587     -0.00386363364628
  H   0.26563848091122      1.16936548954616     -0.96836572875224
  H   -1.17828526901726     -0.75245459646019      0.94938029291357
  H   -1.20090628231641     -0.85521779928973     -0.82550590988893
  N   1.31492619272581     -0.33981747142094      0.00306724312553
  O   1.74105475468077     -0.65597663371075      1.11173763672558
  O   1.71315675532280     -0.78231126929193     -1.07224937111340
