14

C	0.0	0.0	0.0
C	-0.595919	0.015342	-1.390643
Cl	1.754166	0.0	0.0
H	-1.700509	-0.131763	-1.213367
H	-0.378691	0.83881	0.574334
N	-0.420598	-1.249669	0.741106
O	-0.436185	-1.154977	1.960902
O	-0.638581	-2.255895	0.078715
C	-0.029384	-0.938946	-2.324833
N	0.428915	-1.699151	-3.094717
N	-0.487951	1.401584	-1.974327
O	-0.593319	1.492931	-3.192748
O	-0.372852	2.339734	-1.192166
Cl	-3.328311	0.0	0.0
