14

C	0.0	0.0	0.0
C	-0.582843	-0.096505	-1.391105
Cl	1.780318	0.0	0.0
H	-1.68778	-0.230809	-1.21246
H	-0.369625	0.884412	0.50733
N	-0.408414	-1.188353	0.83503
O	-0.409718	-1.003535	2.044612
O	-0.630366	-2.242164	0.252797
C	-0.006432	-1.123488	-2.238558
N	0.468458	-1.938334	-2.939365
N	-0.465584	1.238581	-2.083888
O	-0.538248	1.230909	-3.307411
O	-0.374923	2.23697	-1.377241
Cl	-3.310423	0.0	0.0
