14

C	0.0	0.0	0.0
C	-0.581458	-0.234154	-1.374225
Cl	1.783365	0.0	0.0
H	-1.687192	-0.339915	-1.190233
H	-0.366666	0.932793	0.413431
N	-0.414868	-1.094123	0.95262
O	-0.422467	-0.782499	2.13586
O	-0.646418	-2.199418	0.480783
C	-0.01561	-1.348694	-2.111466
N	0.443476	-2.240197	-2.723222
N	-0.448899	1.022322	-2.201008
O	-0.531854	0.890244	-3.416356
O	-0.335395	2.085952	-1.601316
Cl	-3.315546	0.0	0.0
