14

C	0.0	0.0	0.0
C	-0.397214	0.122083	-1.49772
Cl	1.77626	0.0	0.0
H	0.490601	0.519816	-1.994722
H	-0.379892	0.845952	0.562326
N	-0.415837	-1.22751	0.77557
O	-0.567106	-2.278974	0.173681
O	-0.446421	-1.063713	1.987497
C	-1.464703	1.059436	-1.846982
N	-1.926727	1.967346	-2.440746
N	-0.558492	-1.205677	-2.224341
O	0.494141	-1.812703	-2.397602
O	-1.660314	-1.532444	-2.629989
Cl	-2.979077	0.0	0.0
