14

C	0.0	0.0	0.0
C	-0.376551	-0.22938	-1.492861
Cl	1.790908	0.0	0.0
H	0.492731	0.1205	-2.053808
H	-0.377195	0.952281	0.354571
N	-0.416407	-1.031226	1.0217
O	-0.575255	-2.185154	0.657418
O	-0.444414	-0.613052	2.170852
C	-1.51045	0.483326	-2.084491
N	-2.020827	1.095452	-2.954282
N	-0.414991	-1.700231	-1.894751
O	0.67732	-2.257753	-1.887813
O	-1.479304	-2.191961	-2.230948
Cl	-2.959069	0.0	0.0
