15

C	0.0	0.0	0.0
C	-0.535249	0.460831	-1.346485
Cl	1.850227	0.0	0.0
H	-0.166744	1.481669	-1.505736
H	-1.625159	0.493775	-1.205017
N	-0.515076	0.791695	1.033879
H	-0.512448	1.779573	0.834931
H	-0.167464	0.569427	1.95345
C	-0.312792	-1.417469	0.252983
N	-0.49055	-2.559413	0.458931
C	-0.169437	-0.436935	-2.517103
H	-0.585169	-1.437158	-2.37387
H	-0.599113	-0.032755	-3.437474
H	0.912343	-0.521703	-2.648014
Br	-4.031412	0.0	0.0
