15

C	0.0	0.0	0.0
C	-0.391669	-0.505314	-1.3958
Cl	1.795355	0.0	0.0
H	-0.049633	0.270489	-2.088403
H	0.207623	-1.399651	-1.587019
N	-0.531632	1.307972	0.24798
H	-0.378635	1.571863	1.21516
H	-1.53968	1.268716	0.096001
C	-0.356202	-0.994568	1.035887
N	-0.606524	-1.741469	1.908214
C	-1.866695	-0.813178	-1.584052
H	-2.520156	0.052231	-1.500199
H	-2.018518	-1.24403	-2.577464
H	-2.236187	-1.527943	-0.848539
Br	-4.831893	0.0	0.0
