15

C	0.0	0.0	0.0
C	-0.470216	0.467264	-1.37694
Cl	1.797682	0.0	0.0
H	0.012234	1.434617	-1.543862
H	-1.548492	0.622532	-1.290895
N	-0.49309	0.895646	1.006306
H	-1.514789	0.886939	0.900052
H	-0.278639	0.522027	1.924887
C	-0.347182	-1.420618	0.232927
N	-0.555227	-2.562207	0.421674
C	-0.187282	-0.509855	-2.50858
H	0.867309	-0.789429	-2.563883
H	-0.784164	-1.415132	-2.386472
H	-0.466997	-0.055057	-3.461319
Br	-3.726964	0.0	0.0
