15

C	0.0	0.0	0.0
C	-0.488846	0.56085	-1.331812
Cl	1.797311	0.0	0.0
H	-0.074242	1.57108	-1.400374
H	-1.576428	0.635682	-1.236424
N	-0.492564	0.818361	1.071406
H	-1.514865	0.824322	0.971197
H	-0.275425	0.381601	1.961375
C	-0.342777	-1.435394	0.1314
N	-0.553024	-2.585522	0.253716
C	-0.133703	-0.279447	-2.548863
H	0.944852	-0.411052	-2.660441
H	-0.511965	0.207614	-3.451293
H	-0.601649	-1.26415	-2.486788
Br	-3.761853	0.0	0.0
