15

C	0.0	0.0	0.0
C	-0.464443	0.203523	-1.450052
Cl	1.802175	0.0	0.0
H	0.058393	-0.519133	-2.083885
H	-1.532828	-0.032711	-1.446298
N	-0.496212	0.927986	0.978386
H	-0.306431	1.870145	0.654257
H	-1.516001	0.800006	0.989262
C	-0.354912	-1.36786	0.427744
N	-0.549811	-2.475231	0.765596
C	-0.262022	1.623905	-1.958782
H	-0.942085	2.313322	-1.454546
H	-0.497243	1.668856	-3.024976
H	0.767092	1.96915	-1.825897
Br	-3.729803	0.0	0.0
