15

C	0.0	0.0	0.0
C	-0.361878	0.348637	-1.45644
Cl	1.805855	0.0	0.0
H	0.126011	1.309131	-1.664614
H	0.118001	-0.391124	-2.104966
N	-0.517711	0.876546	1.011842
H	-1.508113	0.672127	1.144265
H	-0.436963	1.835639	0.691141
C	-0.397438	-1.381202	0.310447
N	-0.683914	-2.498314	0.531382
C	-1.85266	0.428186	-1.730546
H	-2.014709	0.597093	-2.799027
H	-2.340625	1.236559	-1.188629
H	-2.392133	-0.474171	-1.445324
Br	-4.8148	0.0	0.0
