19

C	0.0	0.0	0.0
C	-0.541367	0.158045	-1.431428
Cl	1.793273	0.0	0.0
H	-1.632341	0.280186	-1.255689
C	-0.415653	1.164537	0.895979
H	-1.509872	1.211732	0.854008
H	0.025083	2.11338	0.591417
H	-0.096476	0.940381	1.918939
N	-0.535453	-1.258738	0.459005
H	-0.321047	-1.337238	1.449679
H	-1.567337	-1.101873	0.393226
C	-0.251418	-1.014196	-2.340723
H	-0.675071	-0.831577	-3.330979
H	0.820258	-1.182284	-2.444368
H	-0.713732	-1.899904	-1.91014
N	-0.062	1.425965	-2.055987
O	-0.605879	2.476316	-1.709035
O	0.836908	1.365285	-2.898158
H	-3.094296	0.0	0.0
