19

C	0.0	0.0	0.0
C	-0.218809	0.130899	-1.551014
Cl	1.849809	0.0	0.0
H	0.437216	0.92936	-1.898734
C	-0.492242	1.273684	0.653983
H	-1.590719	1.262589	0.603347
H	-0.179796	1.27441	1.700633
H	-0.093559	2.161133	0.156805
N	-0.550478	-1.11522	0.680891
H	-0.429215	-1.953031	0.1242
H	-1.563986	-0.936203	0.746561
C	-1.64318	0.364383	-2.020975
H	-1.747763	0.05053	-3.063683
H	-1.860589	1.436362	-1.969173
H	-2.402328	-0.104488	-1.374207
N	0.322625	-1.063274	-2.275383
O	-0.102595	-2.177643	-1.966533
O	1.12518	-0.858907	-3.18778
H	-3.557107	0.0	0.0
