19

C	0.0	0.0	0.0
C	-0.52763	0.116988	-1.450835
Cl	1.79579	0.0	0.0
H	-1.61342	0.279272	-1.28169
C	-0.435302	1.190046	0.840922
H	-1.529494	1.232218	0.788432
H	-0.120051	1.000836	1.868384
H	0.00103	2.121732	0.485889
N	-0.52255	-1.177227	0.6365
H	-1.553297	-1.029773	0.605035
H	-0.30481	-1.999237	0.083769
C	-0.289911	-1.101471	-2.317904
H	-0.573788	-0.886178	-3.349486
H	0.756858	-1.410246	-2.310254
H	-0.925444	-1.914859	-1.965843
N	0.000316	1.330466	-2.138374
O	-0.508665	2.417005	-1.85369
O	0.91483	1.193609	-2.957431
H	-3.09996	0.0	0.0
