19

C	0.0	0.0	0.0
C	-0.276572	0.026207	-1.54402
Cl	1.84282	0.0	0.0
H	0.526308	0.608255	-1.992734
C	-0.460469	1.303665	0.624897
H	-0.113172	1.347879	1.662019
H	-0.074789	2.177806	0.092864
H	-1.558515	1.287913	0.609464
N	-0.536635	-1.175702	0.607939
H	-1.556212	-1.120982	0.446102
H	-0.400219	-1.097689	1.611314
C	-1.618978	0.549871	-2.012939
H	-2.461038	0.152787	-1.425969
H	-1.633876	1.636577	-1.890195
H	-1.735283	0.327183	-3.07906
N	-0.060318	-1.347076	-2.111461
O	1.032191	-1.578202	-2.638695
O	-0.989261	-2.14629	-2.046266
H	-3.492965	0.0	0.0
