19

C	0.0	0.0	0.0
C	-0.54045	0.127279	-1.43498
Cl	1.793508	0.0	0.0
H	-1.629691	0.271604	-1.264069
C	-0.414619	1.183464	0.870789
H	-0.092881	0.982217	1.897678
H	-1.509001	1.228931	0.830535
H	0.024894	2.125336	0.544722
N	-0.536039	-1.247863	0.486366
H	-0.328938	-1.300626	1.480336
H	-1.567673	-1.09367	0.41197
C	-0.27222	-1.07646	-2.310545
H	-0.668692	-0.902426	-3.313064
H	0.795118	-1.282507	-2.388602
H	-0.773466	-1.935521	-1.869782
N	-0.036503	1.36727	-2.094607
O	0.85145	1.263252	-2.946001
O	-0.54722	2.439773	-1.764381
H	-3.096995	0.0	0.0
