15

C	0.0	0.0	0.0
C	-0.489033	-0.042903	-1.438244
Br	2.03947	0.0	0.0
H	-1.589995	-0.111256	-1.241326
H	-0.262384	-0.933966	0.486853
N	-0.517169	1.098475	0.729639
H	-0.409549	1.919359	0.140532
H	-1.539865	0.844139	0.701734
N	-0.071079	-1.34332	-2.102951
O	0.357917	-1.29698	-3.258823
O	-0.222398	-2.381258	-1.463389
N	-0.128994	1.1093	-2.187011
H	0.853543	1.078811	-2.431425
H	-0.669765	1.155021	-3.038626
F	-2.773511	0.0	0.0
