15

C	0.0	0.0	0.0
C	-0.390978	-0.430044	-1.452627
Br	1.943288	0.0	0.0
H	0.486458	-0.818329	-1.971599
H	-0.248756	-0.862826	0.624571
N	-0.626189	1.222711	0.380299
H	-1.64527	0.974937	0.270759
H	-0.460716	1.368123	1.370768
N	-0.643608	0.868594	-2.270292
O	0.345539	1.558405	-2.512648
O	-1.780198	1.096412	-2.673249
N	-1.445352	-1.359901	-1.466444
H	-1.712266	-1.556762	-2.422917
H	-2.246845	-0.927278	-0.92992
F	-2.972367	0.0	0.0
