15

C	0.0	0.0	0.0
C	-0.216057	0.073514	-1.551231
Br	2.034287	0.0	0.0
H	0.401694	-0.698185	-2.014176
H	-0.268603	-1.016393	0.292234
N	-0.636868	0.919102	0.846101
H	-1.642799	0.631029	0.790415
H	-0.555767	1.843523	0.440968
N	0.421764	1.356071	-2.110206
O	0.174085	2.424488	-1.552367
O	1.06791	1.252544	-3.151325
N	-1.549541	0.052524	-2.017289
H	-1.706936	-0.780434	-2.564368
H	-2.257766	0.101119	-1.223396
F	-3.037011	0.0	0.0
