15

C	0.0	0.0	0.0
C	-0.384843	0.090087	-1.514988
Br	1.945756	0.0	0.0
H	0.492084	-0.109445	-2.13105
H	-0.249025	-1.023482	0.295126
N	-0.627941	1.023094	0.766637
H	-1.647332	0.825693	0.580466
H	-0.462036	0.831884	1.749229
N	-0.613626	1.593662	-1.842607
O	-1.750216	1.971341	-2.106712
O	0.391453	2.302021	-1.870947
N	-1.451801	-0.761616	-1.847894
H	-1.719471	-0.610298	-2.812149
H	-2.25128	-0.537562	-1.191448
F	-2.976221	0.0	0.0
