15

C	0.0	0.0	0.0
C	-0.355365	-0.193962	-1.529917
Br	1.947432	0.0	0.0
H	0.492685	-0.687947	-2.001641
H	-0.252328	-0.953415	0.48019
N	-0.621099	1.150049	0.556409
H	-0.463643	1.150775	1.559146
H	-1.642096	0.937382	0.400816
N	-0.358851	1.182954	-2.163107
O	0.722837	1.612343	-2.573061
O	-1.42284	1.783492	-2.226223
N	-1.559257	-0.861785	-1.884881
H	-2.311721	-0.554878	-1.210185
H	-1.398071	-1.855604	-1.772868
F	-2.986511	0.0	0.0
