15

C	0.0	0.0	0.0
C	-0.532616	-0.146839	-1.414347
Br	1.996226	0.0	0.0
H	-1.619288	-0.298667	-1.211153
H	-0.232441	-0.910945	0.549496
N	-0.556378	1.204213	0.538128
H	-1.586991	0.964655	0.452222
H	-0.324328	1.250417	1.524754
N	-0.055908	-1.416033	-2.059025
O	0.079519	-2.406186	-1.339164
O	0.060472	-1.426234	-3.28313
N	-0.200124	0.98706	-2.231802
H	-0.15181	1.774403	-1.59225
H	-0.956	1.159741	-2.880762
F	-2.819481	0.0	0.0
