15

C	0.0	0.0	0.0
C	-0.48446	-0.02101	-1.442197
Br	2.040101	0.0	0.0
H	-1.584083	-0.106633	-1.256437
H	-0.254788	-0.946924	0.466616
N	-0.528605	1.077806	0.748084
H	-0.438039	1.909394	0.170636
H	-1.550254	0.810088	0.711181
N	-0.040793	-1.301838	-2.128391
O	0.435356	-1.222629	-3.264338
O	-0.213331	-2.356578	-1.522425
N	-0.136385	1.151318	-2.164652
H	-0.666188	1.203018	-3.02301
H	0.849908	1.142822	-2.395481
F	-2.779839	0.0	0.0
