12

C	-0.302122	-0.03313	-1.481832
C	0.0	0.0	0.0
F	-1.663212	-0.3152	-1.709702
H	1.092894	0.0	0.0
H	-0.163893	0.957183	-1.925085
H	-0.33728	-0.94471	0.446353
N	0.501696	-1.027546	-2.118358
H	1.153134	-1.382416	-1.440537
H	1.085456	-0.560131	-2.803085
C	-0.599348	1.111854	0.709839
N	-1.072907	2.02028	1.280162
F	2.605782	0.0	0.0
