12

C	-0.513765	-0.090587	-1.417597
C	0.0	0.0	0.0
F	-0.095584	1.053874	-2.129544
H	1.091991	0.0	0.0
H	-0.04171	-0.936673	-1.918395
H	-0.318875	-0.90528	0.527404
N	-1.939341	-0.221787	-1.495844
H	-2.225099	-0.21986	-2.46793
H	-2.360145	0.582448	-1.044172
C	-0.570169	1.147745	0.681411
N	-1.058603	2.070074	1.222595
F	2.584316	0.0	0.0
