12

C	-0.233705	0.174328	-1.51649
C	0.0	0.0	0.0
F	-0.562684	-1.081895	-2.06154
H	1.094855	0.0	0.0
H	-1.09562	0.811207	-1.75246
H	-0.309912	0.917036	0.512571
N	0.949272	0.670328	-2.131991
H	0.868976	1.646144	-2.371114
H	1.76813	0.499577	-1.520638
C	-0.643248	-1.140478	0.612137
N	-1.184236	-2.053466	1.117418
F	2.669043	0.0	0.0
