12

C	-0.409889	-0.075402	-1.464646
C	0.0	0.0	0.0
F	-0.185725	1.198063	-2.002115
H	1.09166	0.0	0.0
H	0.290839	-0.730473	-1.993988
H	-0.376454	0.935235	0.424475
N	-1.777344	-0.43917	-1.704194
H	-2.238478	-0.736831	-0.858438
H	-1.866112	-1.161254	-2.403366
C	-0.5179	-1.124723	0.750768
N	-0.957058	-2.046881	1.334457
F	2.57989	0.0	0.0
