12

C	0.0	0.0	0.0
C	-0.521056	0.322692	-1.391014
F	1.374413	0.0	0.0
H	0.343838	0.390896	-2.073612
H	-0.350409	0.737895	0.711149
H	-0.363257	-0.976045	0.292489
C	-1.268509	1.57276	-1.449957
N	-1.622711	2.685659	-1.585631
N	-1.322072	-0.802252	-1.991472
O	-2.139558	-0.510041	-2.853454
O	-0.96453	-1.942229	-1.717963
F	-2.386485	0.0	0.0
