12

C	0.0	0.0	0.0
C	-0.477451	-0.255451	-1.421666
F	1.377643	0.0	0.0
H	-0.316539	0.630794	-2.039089
H	-0.343813	-0.788151	0.660614
H	-0.372577	0.958606	0.342495
C	-1.86958	-0.743199	-1.602793
N	-2.587519	-1.316137	-2.356512
N	0.436415	-1.295272	-2.029602
O	1.009709	-1.011936	-3.080199
O	0.540703	-2.362101	-1.432967
F	-2.44846	0.0	0.0
