12

C	0.0	0.0	0.0
C	-0.52333	0.21133	-1.410987
F	1.377963	0.0	0.0
H	0.337958	0.26919	-2.096115
H	-0.348893	0.79597	0.647382
H	-0.360515	-0.948928	0.373369
C	-1.305389	1.434481	-1.556715
N	-1.670011	2.52567	-1.798356
N	-1.30055	-0.969438	-1.934192
O	-2.11799	-0.752938	-2.818919
O	-0.937822	-2.080219	-1.56344
F	-2.390461	0.0	0.0
