12

C	0.0	0.0	0.0
C	-0.288311	0.063918	-1.51112
F	1.370776	0.0	0.0
H	0.350406	-0.70463	-1.95731
H	-0.390501	-0.918657	0.417767
H	-0.394081	0.858872	0.523806
C	0.167594	1.345659	-2.053804
N	0.634824	2.329654	-2.489388
N	-1.654916	-0.247784	-2.066526
O	-2.291378	0.669017	-2.570351
O	-1.899588	-1.442279	-2.185552
F	-2.34671	0.0	0.0
