12

C	0.0	0.0	0.0
C	-0.46014	-0.109221	-1.44067
F	1.377694	0.0	0.0
H	-0.138774	0.770434	-2.003767
H	-0.356256	-0.845805	0.577013
H	-0.372394	0.923313	0.430057
C	-1.905602	-0.364011	-1.700811
N	-2.646367	-0.642379	-2.587535
N	0.308494	-1.240861	-2.081707
O	0.274469	-2.330957	-1.51983
O	0.91318	-1.00095	-3.125318
F	-2.45537	0.0	0.0
