17

C	0.0	0.0	0.0
C	-0.431321	-0.10196	-1.460003
F	1.405661	0.0	0.0
H	-1.527504	-0.040482	-1.435757
H	-0.045819	0.79457	-1.966379
N	-0.485225	1.198974	0.630833
H	-1.507508	1.049942	0.676566
H	-0.351788	1.970145	-0.019827
C	-0.450522	-1.186066	0.825607
H	-0.150601	-1.01792	1.862647
H	-1.543076	-1.242801	0.757227
H	0.012997	-2.106783	0.464022
C	0.043321	-1.352417	-2.193217
H	-0.180253	-1.282471	-3.262702
H	1.121711	-1.491062	-2.079414
H	-0.461901	-2.243662	-1.814108
H	-3.252604	0.0	0.0
