12

C	-0.406605	0.093282	-1.476183
C	0.0	0.0	0.0
F	-0.379296	1.431806	-1.846354
H	1.092231	0.0	0.0
H	-1.433764	-0.250974	-1.635976
H	-0.298849	-0.985027	0.376107
N	0.476043	-0.630664	-2.338845
H	0.221246	-1.608132	-2.363004
H	1.433493	-0.541603	-2.003434
C	-0.592414	1.025926	0.842822
N	-1.115644	1.831238	1.517316
Cl	3.379518	0.0	0.0
