19

C	-0.4071	0.000724	-1.463264
C	0.0	0.0	0.0
F	-0.015436	1.182111	-2.045271
H	1.101745	0.0	0.0
C	0.159126	-1.152975	-2.240143
H	-0.195608	-2.087522	-1.815876
H	-0.125635	-1.076563	-3.292852
H	1.245678	-1.090697	-2.13154
N	-1.932517	0.013565	-1.559254
O	-2.497746	1.107198	-1.575467
O	-2.510841	-1.073606	-1.539035
N	-0.375123	-1.270929	0.615479
H	0.410056	-1.568141	1.186485
H	-1.187242	-1.163547	1.211789
C	-0.479621	1.228117	0.755957
H	-0.250041	2.144128	0.209507
H	-1.559831	1.203115	0.946844
H	0.047673	1.262508	1.713352
H	2.856322	0.0	0.0
