19

C	-0.445668	0.052999	-1.453805
C	0.0	0.0	0.0
F	-1.823364	0.215943	-1.53989
H	1.093429	0.0	0.0
C	0.245457	1.105407	-2.280308
H	0.025452	0.966584	-3.341695
H	1.321208	1.042471	-2.098587
H	-0.122763	2.084536	-1.972514
N	-0.186299	-1.307441	-2.085578
O	0.945021	-1.510052	-2.511999
O	-1.106997	-2.124078	-2.087822
N	-0.459855	-1.188058	0.712156
H	0.230261	-1.920684	0.592309
H	-1.345007	-1.516114	0.345169
C	-0.453161	1.255286	0.735686
H	-0.028875	2.160825	0.294815
H	-0.080377	1.174559	1.757632
H	-1.54374	1.341152	0.763665
H	2.917998	0.0	0.0
