15
Coordinates from ORCA-job run
  C   -0.92866437284655      0.22134124677054      0.42562004956859
  C   0.49615851081475      0.16010832551923     -0.09325831859273
  F   -1.33530502012918     -0.99707370911047      0.84862463164663
  H   0.68965827326219      1.07112190337826     -0.66271528417241
  H   -1.01208942578233      0.94033111947219      1.24352998742582
  N   -1.88704342419851      0.72924090496423     -0.63247482581902
  O   -1.61342312875369      1.84966726185576     -1.04610547056180
  O   -2.83538398468159      0.02869202664087     -0.94034103678322
  N   0.55898519129283     -0.95948204919674     -1.10637402532133
  O   -0.19817221148192     -0.84400558693512     -2.06623685757988
  O   1.34222942651638     -1.88109246536107     -0.90966857516430
  C   1.49378817100871     -0.04546670677571      1.02564447936582
  H   1.46295019819937      0.81498059005569      1.69796596082268
  H   1.26546024999325     -0.95022526473974      1.58801175202395
  H   2.50285154678630     -0.13613759653792      0.62677753314122
