15
Coordinates from ORCA-job run
  C   -1.02667953502465      0.13489749846900     -0.45465010554161
  C   0.46109250337440      0.26263858682032     -0.21112742570949
  F   -1.40107073123417      0.95957255013833     -1.46368555828398
  H   0.71015405589804      1.32236693527983     -0.13757096216423
  H   -1.34919035321346     -0.88344872700726     -0.66192081535471
  N   -1.72198740648974      0.57313891370275      0.80518619720639
  O   -1.76408671395531      1.77897239222350      1.01902532868877
  O   -2.13855573058014     -0.32625780792645      1.53051841639409
  N   1.15437739459907     -0.23262676292063     -1.44806436868958
  O   2.05594569067369      0.46670315363166     -1.89738764393189
  O   0.79180760711012     -1.32261859763937     -1.88414381164064
  C   0.95924091174018     -0.53779394144312      0.97859771425158
  H   2.04862935258322     -0.48973936890137      1.01759684323024
  H   0.65094993467583     -1.58117079879496      0.89916583511474
  H   0.56837301984291     -0.12363402563223      1.90846035643031
