15
Coordinates from ORCA-job run
  C   -0.90089735052179      0.47188708223491     -0.49503974781732
  C   0.52418008250784      0.21997642790468     -0.05330466563471
  F   -0.96840522484700      1.63176908645802     -1.19397571297598
  H   0.90948089441670      1.13050173219952      0.40822362226036
  H   -1.32727169365215     -0.34311116670771     -1.07648889530799
  N   -1.73409424640137      0.61380630922644      0.74930986531126
  O   -2.39341991929298     -0.37157076637745      1.07034986693128
  O   -1.63898772380690      1.67313601101245      1.35775943098540
  N   1.34180442079896      0.01754344301700     -1.29717161058357
  O   2.40213994188963      0.62921540829811     -1.37003866218496
  O   0.90291786098691     -0.78098078753761     -2.12134183397415
  C   0.68531479589921     -0.99875868194975      0.83699648425606
  H   0.20267776188560     -0.83477107258002      1.80091099934869
  H   0.24717517296459     -1.88084040690284      0.36795901190331
  H   1.74638522717275     -1.17980261829574      1.01585184748232
