15
Coordinates from ORCA-job run
  C   -0.98638201381323      0.20348275480966     -0.51596200059248
  C   0.47266880582095      0.29333186673533     -0.12660722576548
  F   -1.28475455037620      1.17790794005756     -1.41070717055335
  H   0.69836643710350      1.32875803877393      0.13310888054097
  H   -1.27405439178291     -0.76931767845339     -0.90930941574410
  N   -1.79447559249675      0.43508864380563      0.73120037950915
  O   -2.25840148052609     -0.56907763562268      1.26520924368500
  O   -1.87326817648010      1.59113853343788      1.12950618576843
  N   1.27856180090290     -0.00058108919973     -1.36005266971235
  O   2.21537469401798      0.75254182658807     -1.60244139371307
  O   0.96275229575009     -1.00033222057312     -2.00050623615005
  C   0.88016743775570     -0.68282462645138      0.96206696953316
  H   0.59681133064708     -1.70166162421596      0.69407056859086
  H   0.40436307022991     -0.42115438006826      1.90766849459446
  H   1.96127033324718     -0.63830034962355      1.10275539000887
