15
Coordinates from ORCA-job run
  C   -0.96409167070790      0.07962696591740      0.39576627217243
  C   0.48647289273510      0.20695734860324     -0.03191686599525
  F   -1.29648415999980     -1.21888716038915      0.57538693041103
  H   0.63813713598134      1.21582102782753     -0.42037666461698
  H   -1.14574325865136      0.63554851664789      1.31817284836542
  N   -1.90232650921667      0.70075514360146     -0.61892249429700
  O   -2.77529515489467      0.00317021627178     -1.10500898684806
  O   -1.69607094166668      1.89284842404183     -0.81351384474513
  N   0.68923209867050     -0.70802131257758     -1.21707454574253
  O   1.53011390454062     -1.59528519415116     -1.13193680229953
  O   -0.02293009186295     -0.47545837732590     -2.19013289822030
  C   1.43654658486495     -0.12661355756496      1.09759053894314
  H   2.46926466030084     -0.07748914308653      0.75613695939604
  H   1.30375628142439      0.59697815759738      1.90512159915900
  H   1.24941822848230     -1.12995105541323      1.47870795431771
