15
Coordinates from ORCA-job run
  C   -0.75584782448867      0.92159696250327     -0.23543485658581
  C   0.64269705725058      0.33613767634655     -0.09471912798335
  F   -0.90915001991598      1.92162557421926      0.66441301855950
  H   1.32405145253055      1.19063415253214     -0.13796036870184
  H   -0.96245684068169      1.28300044449203     -1.24181094101188
  N   -1.76705716293243     -0.15797075265674      0.05758176924756
  O   -1.75815878919867     -1.07199726702354     -0.76151587642506
  O   -2.45885172622360     -0.06084301788716      1.05933373725615
  N   0.96443253756824     -0.45458992062132     -1.34006970776874
  O   0.84611428989610      0.15462308238660     -2.39928906230394
  O   1.34373464439396     -1.61167286564965     -1.20966664510812
  C   0.83528082346207     -0.46651573822820      1.17086622131814
  H   1.88202137666853     -0.74229069811003      1.29066263581735
  H   0.24521734428807     -1.38224416772691      1.15038296918678
  H   0.52997283738295      0.13950653542370      2.02622623450327
