15
Coordinates from ORCA-job run
  C   -0.94395436271549      0.29344131539858      0.34018032815182
  C   0.50436307580761      0.13759018446051     -0.08545467031826
  F   -1.40372359635482     -0.85159488698903      0.89398553137314
  H   0.75184840516944      0.96078801790639     -0.75826192794031
  H   -1.05352357288365      1.11427220657088      1.05223628817197
  N   -1.83006698289698      0.67529629852233     -0.82821078856487
  O   -1.50749659993030      1.72743967178212     -1.36665858653755
  O   -2.77590950344865     -0.04439029927618     -1.09795278469026
  N   0.59030446928607     -1.10782460116877     -0.93731477618818
  O   -0.09865299038930     -1.09886791415100     -1.95381853828542
  O   1.32243782594580     -2.01821626682755     -0.56754397636853
  C   1.43535029542620      0.06261642130803      1.10496281277518
  H   1.39463931583460      1.00650735851026      1.65341542837513
  H   1.15145654890526     -0.75272479350985      1.76944912743106
  H   2.46092767224423     -0.10333271253674      0.77898653261504
