15
Coordinates from ORCA-job run
  C   -1.02153991093855      0.24911781965298     -0.42406371127605
  C   0.47203918981462      0.26284694943098     -0.18403088010708
  F   -1.35484924540446      1.21742554018228     -1.31283571742612
  H   0.77999407257625      1.28946569240836      0.02015056044042
  H   -1.40079462480351     -0.71441400200086     -0.75815409856702
  N   -1.68522917705608      0.55760854614955      0.89012610559977
  O   -2.14615708653562     -0.40395805395244      1.49962155049127
  O   -1.64727073211226      1.72393974599519      1.26425123139326
  N   1.13366352083780     -0.11048676491445     -1.47972140518877
  O   0.69842995789612     -1.10433363861076     -2.05626139139875
  O   2.09220674541101      0.57040679178461     -1.82805351576508
  C   0.92986127254168     -0.70699176662443      0.89057699904336
  H   0.56909002515699     -0.39057091532099      1.86972008251487
  H   0.56116344806240     -1.71325360362295      0.68633181127481
  H   2.02039254455362     -0.72580234055708      0.92134237897120
