15
Coordinates from ORCA-job run
  C   -0.93402913968517      0.34272956978717      0.32093152340229
  C   0.51125010281781      0.11144777973936     -0.08012055570944
  F   -1.45509633364399     -0.76808086151773      0.88964211778145
  H   0.80591160245406      0.91002643472760     -0.76358649707950
  H   -1.01391896018237      1.18205271971846      1.01521480903415
  N   -1.78577414486865      0.74338296601074     -0.86668693121382
  O   -1.40482889405516      1.76707267951430     -1.42183196576139
  O   -2.76269433733892      0.06596407182615     -1.13443246031846
  N   0.55206113697879     -1.15202025424751     -0.90813048614982
  O   -0.13317573076102     -1.13616562104972     -1.92702741558812
  O   1.25009902585881     -2.08147801949588     -0.52025837959233
  C   1.42111046689970      0.01667644467136      1.12512238251691
  H   2.44273119462276     -0.20020087294331      0.81724382147140
  H   1.09177045457458     -0.77337617506479      1.79917109157183
  H   1.41458355632878      0.97096913832376      1.65674894563487
