13

C	0.0	0.0	0.0
C	-0.521188	0.064275	-1.412096
Cl	1.765984	0.0	0.0
H	-0.163449	0.985149	-1.884825
H	-0.376711	-0.86907	0.529968
H	-1.615879	0.099557	-1.26323
N	-0.398549	1.200205	0.816816
O	-0.494616	2.275269	0.232889
O	-0.492414	1.032272	2.027778
N	-0.121965	-1.163975	-2.10126
H	0.731909	-1.016009	-2.623285
H	-0.851158	-1.423953	-2.751226
H	-3.03995	0.0	0.0
