13

C	0.0	0.0	0.0
C	-0.611768	0.074344	-1.379351
Cl	1.757357	0.0	0.0
H	0.015963	0.682835	-2.033604
H	-0.372947	-0.851603	0.556643
H	-1.598264	0.527922	-1.219706
N	-0.366916	1.21396	0.817299
O	-0.364793	2.294374	0.238515
O	-0.564848	1.044992	2.014888
N	-0.742708	-1.295237	-1.87531
H	-0.76612	-1.270375	-2.886568
H	-1.670396	-1.593159	-1.566445
H	-3.10883	0.0	0.0
