13

C	0.0	0.0	0.0
C	-0.606202	0.104031	-1.375678
Cl	1.766041	0.0	0.0
H	-1.643679	0.420056	-1.178111
H	-0.366144	-0.868365	0.538524
H	-0.061062	0.843178	-1.965448
N	-0.375271	1.193227	0.845602
O	-0.444017	2.278315	0.276553
O	-0.494122	1.006659	2.051296
N	-0.564472	-1.228154	-1.986892
H	-0.426337	-1.135789	-2.984351
H	-1.490573	-1.624522	-1.840609
H	-3.127322	0.0	0.0
