13

C	0.0	0.0	0.0
C	-0.541871	0.100451	-1.416974
Cl	1.763441	0.0	0.0
H	-1.587542	0.402313	-1.274583
H	-0.384614	-0.862167	0.535079
H	0.025042	0.84914	-1.972898
N	-0.37971	1.198141	0.837136
O	-0.470321	1.021209	2.047243
O	-0.459729	2.277337	0.259804
N	-0.543136	-1.177789	-2.112022
H	-1.290997	-1.728022	-1.697896
H	0.333814	-1.667214	-1.971235
H	-2.969772	0.0	0.0
