13

C	0.0	0.0	0.0
C	-0.546518	0.165359	-1.430569
Cl	1.763177	0.0	0.0
H	-1.272959	0.973587	-1.392858
H	-0.365003	-0.889168	0.50034
H	0.276568	0.44992	-2.090565
N	-0.367952	1.14399	0.916406
O	-0.475335	0.877957	2.109104
O	-0.402399	2.269315	0.429583
N	-1.238643	-1.002348	-1.940345
H	-2.080074	-1.02717	-1.34145
H	-0.687321	-1.836219	-1.763214
H	-2.842377	0.0	0.0
