15
Coordinates from ORCA-job run
  C   -0.39378255452192      0.41023294269040     -0.02185380664522
  C   0.96486917828984      0.14956116256892      0.61040192154736
  F   -1.28026044210338      0.79904144464570      0.94747982426477
  H   1.74601725623864      0.10488301419230     -0.14538416525630
  H   1.17863934165486      0.90855567622083      1.35847034253604
  C   -0.97005731464820     -0.72794501140006     -0.81152838527727
  H   -1.90066758793997     -0.40952503714028     -1.27585331902678
  H   -1.17472434487652     -1.55800404830995     -0.13479829015831
  H   -0.27498836425639     -1.06156336320476     -1.58268650599327
  N   -0.23092433659158      1.65496471095619     -0.90444293710964
  O   -0.98884879224032      1.77297022175537     -1.86007154341565
  O   0.60653103766404      2.47586798011855     -0.53778812231912
  N   0.92781874474883     -1.17365314417211      1.29027660636520
  O   0.39465740062117     -1.21357821881575      2.39601307650531
  O   1.39572077796092     -2.12980833010535      0.67376530398287
