15
Coordinates from ORCA-job run
  C   -0.46178810685065      0.15987962070351      0.03162546220241
  C   0.70851220265443     -0.73814823717340      0.36584553243919
  F   -1.03748616509355      0.59376813966839      1.18469952440111
  H   1.31294011158318     -0.92477755623466     -0.52114155209363
  H   0.35546506009652     -1.67285151365102      0.79810593790960
  C   -1.49564200303391     -0.51840558738252     -0.83465708824288
  H   -2.29556359653937      0.19222172698980     -1.05032025359833
  H   -1.05327400949164     -0.85863046166931     -1.77049034136298
  H   -1.91844369713870     -1.36666394423348     -0.29451309640024
  N   0.02721121253124      1.38772305663746     -0.73036879660634
  O   -0.36239161055117      2.48110601785575     -0.35832973097633
  O   0.72580430907965      1.13806058299848     -1.70695486245074
  N   1.60301494148505     -0.11064463303385      1.38462056730088
  O   2.02327554142037     -0.84022853483265      2.27593746683850
  O   1.86936580984855      1.07659132335751      1.22694123063977
