16

C	-0.471943	0.033536	-1.45855
C	0.0	0.0	0.0
Cl	-0.072008	-1.541278	-2.232796
H	1.088989	0.0	0.0
H	-0.366251	0.909281	0.482585
C	-1.961705	0.264736	-1.616286
H	-2.533559	-0.534599	-1.14688
H	-2.240946	1.208435	-1.136786
H	-2.200942	0.315544	-2.679029
N	0.271164	1.054488	-2.171162
H	0.023905	1.958069	-1.777055
H	1.266772	0.911418	-1.99747
N	-0.562258	-1.119396	0.791777
O	0.101061	-2.14371	0.919528
O	-1.694123	-0.948498	1.263011
Br	3.531708	0.0	0.0
