16

C	-0.427088	-0.764815	-1.269477
C	0.0	0.0	0.0
Cl	-0.290961	-2.513531	-0.791017
H	1.090239	0.0	0.0
H	-0.420308	-0.403396	0.917626
C	-1.867706	-0.525049	-1.672345
H	-2.546392	-0.740223	-0.843135
H	-1.997013	0.516493	-1.977129
H	-2.110745	-1.17186	-2.516751
N	0.447664	-0.570174	-2.396714
H	1.414682	-0.662935	-2.081844
H	0.331497	0.386385	-2.712908
N	-0.442098	1.413066	-0.073059
O	-0.188003	2.048528	-1.098735
O	-1.048721	1.8759	0.894711
Br	3.483813	0.0	0.0
