16

C	-0.486669	0.002852	-1.451501
C	0.0	0.0	0.0
Cl	-0.077973	-1.581459	-2.205589
H	1.088986	0.0	0.0
H	-0.36234	0.920761	0.463259
C	-1.980584	0.218275	-1.59674
H	-2.264456	1.164769	-1.123946
H	-2.54188	-0.581522	-1.114534
H	-2.23015	0.256424	-2.657698
N	0.237714	1.020275	-2.188848
H	1.23611	0.895471	-2.017153
H	-0.021487	1.92746	-1.81025
N	-0.553712	-1.098136	0.826272
O	-1.670923	-0.905142	1.323807
O	0.101968	-2.126689	0.957414
Br	3.518966	0.0	0.0
