16

C	-0.33895	0.014071	-1.483747
C	0.0	0.0	0.0
Cl	-2.143273	-0.146903	-1.702906
H	1.090988	0.0	0.0
H	-0.397853	-0.901628	0.456862
C	0.100796	1.268699	-2.220017
H	-0.07124	1.123983	-3.290211
H	-0.434744	2.15671	-1.891954
H	1.169132	1.409406	-2.035767
N	0.272591	-1.199748	-1.984193
H	1.256493	-1.183015	-1.710972
H	0.229436	-1.199779	-2.997681
N	-0.521285	1.142631	0.773734
O	-1.303961	0.889869	1.692604
O	-0.138621	2.273515	0.476627
Br	3.470804	0.0	0.0
