16

C	-0.628827	-0.033053	-1.391492
C	0.0	0.0	0.0
Cl	0.254118	-1.153165	-2.474209
H	1.086837	0.0	0.0
H	-0.359659	0.893466	0.512881
C	-2.086182	-0.487566	-1.358064
H	-2.180263	-1.521078	-1.022215
H	-2.510358	-0.410477	-2.361396
H	-2.654349	0.155918	-0.67841
N	-0.448315	1.302727	-1.939559
H	-0.697047	1.301074	-2.922163
H	-1.064174	1.944328	-1.450449
N	-0.485956	-1.133944	0.82488
O	-1.261686	-0.874277	1.751936
O	-0.11961	-2.264942	0.517947
Br	3.555634	0.0	0.0
