16

C	-0.518084	-0.065314	-1.435284
C	0.0	0.0	0.0
Cl	-0.220176	1.65572	-2.080407
H	1.0886	0.0	0.0
H	-0.399657	0.865745	0.523876
C	0.290773	-0.990743	-2.318566
H	1.349156	-0.73969	-2.238905
H	-0.036093	-0.896827	-3.358091
H	0.145697	-2.015673	-1.977074
N	-1.900681	-0.394498	-1.455
H	-2.257918	-0.402266	-2.402613
H	-2.44332	0.255758	-0.898984
N	-0.487676	-1.185217	0.753203
O	-0.031504	-2.286523	0.459445
O	-1.341487	-0.988334	1.622696
Br	3.541853	0.0	0.0
