16

C	-0.44085	0.04551	-1.475621
C	0.0	0.0	0.0
Cl	-0.302524	-1.673611	-2.02923
H	1.090035	0.0	0.0
H	-0.417738	-0.838054	0.551196
C	-1.885437	0.471295	-1.661845
H	-2.002531	1.519006	-1.374596
H	-2.553156	-0.141013	-1.052411
H	-2.152539	0.365572	-2.713249
N	0.426641	0.829917	-2.321615
H	1.386171	0.527686	-2.151715
H	0.378172	1.783865	-1.975642
N	-0.448106	1.22215	0.710682
O	-0.170664	2.315061	0.212816
O	-1.084516	1.080032	1.756395
Br	3.486767	0.0	0.0
