18

C	-0.42988	-0.040661	-1.473389
C	0.0	0.0	0.0
F	0.214035	0.992649	-2.156033
H	1.092192	0.0	0.0
C	0.098298	-1.332482	-2.076622
H	1.164013	-1.415253	-1.846292
H	-0.035011	-1.286694	-3.160972
H	-0.427547	-2.205691	-1.687627
C	-1.920669	0.146073	-1.68226
H	-2.22579	1.123742	-1.309466
H	-2.146752	0.091653	-2.751245
H	-2.480741	-0.634551	-1.162403
C	-0.44434	-1.183433	0.704771
N	-0.734929	-2.193322	1.234922
N	-0.398711	1.184704	0.752671
O	-0.391435	1.095801	1.988922
O	-0.584615	2.240389	0.132815
H	2.450916	0.0	0.0
