18

C	-0.437682	-0.051839	-1.470475
C	0.0	0.0	0.0
F	0.180097	0.997397	-2.155665
H	1.092144	0.0	0.0
C	0.117136	-1.330572	-2.075997
H	-0.384977	-2.215746	-1.682386
H	-0.024136	-1.290189	-3.1592
H	1.185114	-1.387849	-1.850628
C	-1.933562	0.098221	-1.671886
H	-2.261241	1.066885	-1.295623
H	-2.163344	0.039515	-2.739888
H	-2.470953	-0.698002	-1.151496
C	-0.422399	-1.187753	0.711376
N	-0.707872	-2.204435	1.231566
N	-0.40812	1.180716	0.75456
O	-0.359199	1.099616	1.990052
O	-0.647756	2.225711	0.134372
H	2.455399	0.0	0.0
