18

C	-0.440338	-0.021732	-1.478961
C	0.0	0.0	0.0
F	0.067865	1.113599	-2.1076
H	1.092153	0.0	0.0
C	0.209274	-1.220081	-2.143171
H	1.280104	-1.195498	-1.920711
H	-0.214307	-2.157716	-1.779539
H	0.05281	-1.150577	-3.222986
C	-1.947759	0.034866	-1.639664
H	-2.200339	0.026935	-2.703629
H	-2.338556	0.954698	-1.198584
H	-2.423909	-0.818028	-1.152853
C	-0.485795	-1.190278	0.670302
N	-0.841325	-2.208854	1.138486
N	-0.487173	1.203884	0.694326
O	-1.322016	1.077523	1.603192
O	-0.00906	2.278146	0.327488
H	2.56292	0.0	0.0
