18

C	-0.343886	0.044131	-1.488858
C	0.0	0.0	0.0
F	-1.747388	0.097347	-1.648024
H	1.092069	0.0	0.0
C	0.256966	1.233859	-2.208017
H	0.153538	1.081402	-3.285924
H	1.3143	1.309734	-1.940223
H	-0.246616	2.154254	-1.924813
C	0.150539	-1.25336	-2.101389
H	-0.390581	-2.107454	-1.69271
H	1.217149	-1.360153	-1.877817
H	0.001553	-1.227004	-3.183632
C	-0.500767	-1.203011	0.637659
N	-0.822341	-2.229804	1.112197
N	-0.406936	1.174034	0.782876
O	-1.001583	1.000378	1.853744
O	-0.029992	2.27592	0.373302
H	2.503188	0.0	0.0
