18

C	-0.441145	0.00351	-1.479653
C	0.0	0.0	0.0
F	-0.19219	-1.317763	-1.906256
H	1.091511	0.0	0.0
C	-1.92746	0.235474	-1.659918
H	-2.491487	-0.501896	-1.083314
H	-2.196945	1.239524	-1.33139
H	-2.185339	0.122934	-2.717317
C	0.427857	0.89205	-2.345379
H	0.231128	0.648907	-3.394021
H	1.475514	0.698701	-2.106651
H	0.210567	1.942358	-2.162036
C	-0.478104	-1.175046	0.698602
N	-0.828971	-2.157444	1.241755
N	-0.351487	1.193458	0.745483
O	-0.443159	2.265781	0.120537
O	-0.373855	1.112735	1.983185
H	2.444883	0.0	0.0
