18

C	-0.436433	-0.009108	-1.471618
C	0.0	0.0	0.0
F	0.196863	1.045847	-2.131381
H	1.09221	0.0	0.0
C	0.098349	-1.281903	-2.108234
H	-0.420687	-2.167902	-1.739593
H	1.164803	-1.363858	-1.883204
H	-0.039311	-1.210285	-3.190434
C	-1.929914	0.170279	-1.669173
H	-2.480695	-0.627618	-1.165373
H	-2.240898	1.136169	-1.272028
H	-2.160999	0.138586	-2.738156
C	-0.440071	-1.199981	0.67914
N	-0.766703	-2.219386	1.168577
N	-0.395381	1.165492	0.783791
O	-0.352301	1.04972	2.01712
O	-0.605307	2.233031	0.19168
H	2.454195	0.0	0.0
