18

C	-0.344385	0.047858	-1.488557
C	0.0	0.0	0.0
F	-1.748209	0.084906	-1.647147
H	1.092081	0.0	0.0
C	0.240938	1.247323	-2.202463
H	0.144439	1.094769	-3.281543
H	-0.277696	2.159143	-1.91904
H	1.295666	1.338104	-1.930244
C	0.164814	-1.240638	-2.107913
H	1.231307	-1.338304	-1.88007
H	0.020037	-1.209213	-3.190731
H	-0.370314	-2.10161	-1.707051
C	-0.498222	-1.207369	0.631325
N	-0.827886	-2.239232	1.089189
N	-0.409658	1.168857	0.789272
O	-0.04382	2.275178	0.380508
O	-0.997183	0.98681	1.863752
H	2.504319	0.0	0.0
