18

C	-0.34333	0.04191	-1.488842
C	0.0	0.0	0.0
F	-1.747173	0.095151	-1.64812
H	1.092003	0.0	0.0
C	0.258349	1.230931	-2.209436
H	1.313773	1.310204	-1.936287
H	0.162088	1.074393	-3.286894
H	-0.249028	2.150802	-1.931807
C	0.151311	-1.257328	-2.099089
H	-0.389199	-2.11061	-1.687723
H	0.001331	-1.233123	-3.181485
H	1.218669	-1.364254	-1.876109
C	-0.499633	-1.20183	0.63957
N	-0.817556	-2.225526	1.122091
N	-0.405298	1.174049	0.783466
O	-0.984537	0.999684	1.863191
O	-0.041002	2.276779	0.365728
H	2.501699	0.0	0.0
