18

C	-0.339882	0.035168	-1.489956
C	0.0	0.0	0.0
F	-1.744322	0.048258	-1.654068
H	1.092041	0.0	0.0
C	0.225287	1.245311	-2.202599
H	0.121059	1.097108	-3.281072
H	-0.303261	2.149775	-1.91196
H	1.281033	1.349457	-1.938578
C	0.195815	-1.246548	-2.100133
H	1.261502	-1.325589	-1.861638
H	0.060024	-1.222198	-3.18378
H	-0.328745	-2.114645	-1.699662
C	-0.503142	-1.201216	0.639048
N	-0.827014	-2.226712	1.114527
N	-0.418679	1.178992	0.770079
O	-1.084893	1.018248	1.800544
O	0.011252	2.271492	0.386856
H	2.51016	0.0	0.0
