12
Coordinates from ORCA-job run
  C   0.87163753482865      0.38876227520570     -0.34509335418714
  C   -0.21753310184029     -0.42491992337739      0.36522506865740
  H   0.75787812137938      0.30781081104001     -1.43066031390385
  H   -0.07457736341913     -0.34218307070815      1.44630228434836
  H   0.77752393832579      1.44953935499616     -0.09241900214771
  H   -0.09529821082703     -1.48123306776435      0.10978182194254
  C   2.21758367937125     -0.05660621231976      0.01490502366931
  N   3.28510703480130     -0.43461907712510      0.32162634767957
  C   -1.61131216157558      0.05601933054485     -0.02279164526965
  H   -1.77584671350314     -0.04047421188438     -1.09910795704354
  H   -1.75492655098481      1.10555728902412      0.24679828867705
  H   -2.38223620655640     -0.52665349763171      0.48543343757766
