12
Coordinates from ORCA-job run
  C   1.12347677303453     -0.31000814109407      0.11467781641552
  C   -0.27297057791235     -0.63502852622140     -0.43306529600963
  H   1.88697169446635     -0.91321491924379     -0.38499523805667
  H   -0.28898983122265     -0.43033757461854     -1.50759532109414
  H   1.17515435946167     -0.54482828519684      1.18259336232910
  H   -0.43763703350696     -1.71015017429133     -0.31116695358079
  C   1.46165575385445      1.10300420509272     -0.06178726909340
  N   1.70279813056172      2.24069836390523     -0.21843625589258
  C   -1.37444285700333      0.15033860340153      0.26943549640202
  H   -1.24335036090580      1.22552574883246      0.12867813927703
  H   -2.35674413552704     -0.12173356453233     -0.12228643955742
  H   -1.37492191530058     -0.05226573603364      1.34394795886096
