12
Coordinates from ORCA-job run
  C   1.13982150709365      0.00371330541629      0.26891286437851
  C   -0.22714634548016     -0.68561796856653      0.37885415930963
  H   1.19558285373584      0.84712723544827      0.96452121318848
  H   -0.32348767696380     -1.07500208786697      1.39713898761778
  H   1.94533743785642     -0.68705392472319      0.53447502526936
  H   -0.24509155081771     -1.54742676025417     -0.29462806836159
  C   1.38849257831420      0.50565668329624     -1.08332555614721
  N   1.55834466469953      0.89541729259577     -2.17696411691281
  C   -1.38429788494539      0.25482599237276      0.06286933766278
  H   -2.34251894810249     -0.25736900177078      0.17085669373185
  H   -1.31903515318273      0.63120264941753     -0.96021103895014
  H   -1.38600148220737      1.11352658463477      0.73950049921337
