12
Coordinates from ORCA-job run
  C   1.10747227473732     -0.31937695664990     -0.20663549805337
  C   -0.21763309286878     -0.58991931472068      0.51915196080699
  H   1.04537931915382     -0.65633155557135     -1.24631458302113
  H   -0.38304009974023     -1.67179170174108      0.51941284591027
  H   1.92688667661683     -0.87138078813036      0.26282195721347
  H   -0.11884856203662     -0.28265070271663      1.56435224376539
  C   1.44805828966163      1.10411522756274     -0.20411208165363
  N   1.69346140301397      2.25136872345886     -0.18416562121119
  C   -1.39754863473515      0.12315823320855     -0.13092531432104
  H   -2.32744592026826     -0.10581014538961      0.39353004968218
  H   -1.26174494090123      1.20662345608068     -0.11457544240810
  H   -1.51599671263329     -0.18700447539122     -1.17254051670985
