12
Coordinates from ORCA-job run
  C   -0.99574883535874     -0.71366190456907      0.40303223300203
  C   0.09875697637538      0.00519999457432     -0.34660082510005
  Br  -0.64396778989820     -2.61427274537426      0.49696467658593
  H   0.34477636165166     -0.50844585742780     -1.28207264784787
  H   -1.94329583325712     -0.59257488817357     -0.12269197255005
  H   -1.06995625635518     -0.32851591748065      1.41689266424408
  N   1.39494596323888     -0.03023040966247      0.43539930350926
  O   2.41055215191042      0.11356897906798     -0.24247292548000
  O   1.34473521282906     -0.12532910429287      1.65467682020646
  N   -0.22214429930847      1.40838608294193     -0.47013644284987
  H   -1.15361866747839      1.52622264068111     -0.84720334061233
  H   0.43496501565070      1.85965312971535     -1.09578754310760
