12
Coordinates from ORCA-job run
  C   -0.81492858913337     -1.01531909150490      0.03854780457996
  C   0.12661147156766      0.09833451524732     -0.36806529315207
  Br  -1.41665438163833     -0.84951775919437      1.86970696270918
  H   0.46666103107697     -0.12848710129556     -1.39283853862053
  H   -1.69902932746661     -0.99702830551433     -0.60039152972644
  H   -0.31521695515976     -1.97541360994576     -0.05544347757304
  N   1.42151647632965     -0.01040221506381      0.42550893030915
  O   1.87690902762284     -1.14048154711413      0.56646223027478
  O   1.95002006466115      1.03208156732234      0.78981004951066
  N   -0.42741908743705      1.39727833860460     -0.16440910689418
  H   -1.34446802231873      1.46706327493801     -0.58316419916309
  H   0.17599829189557      2.12289193352058     -0.52372383225438
