12
Coordinates from ORCA-job run
  C   -0.94520161518925     -0.65189630184230      0.41831740138007
  C   0.12606265943984     -0.00161324240507     -0.43843713149210
  Br  -0.60108689102912     -2.53733540345361      0.71575028759435
  H   0.27071510748086     -0.53835598770880     -1.37538025132874
  H   -1.90761784773478     -0.57130510471486     -0.08631082904956
  H   -0.98654235920578     -0.16601944500433      1.39291114068768
  N   1.44321608777437     -0.10143451667615      0.28837204195756
  O   1.47712515674036      0.43899572449803      1.39103105841797
  O   2.36890973176303     -0.67780017522437     -0.26977355168538
  N   -0.09057634104960      1.39479181441050     -0.69678716573960
  H   -0.72988665958856      1.53215109043981     -1.46639073331838
  H   -0.42411702940137      1.87882154768115      0.12669773257614
