12
Coordinates from ORCA-job run
  C   -0.73476301979326     -1.04196575579105      0.18060338322233
  C   0.12118372687232      0.10606693796212     -0.30632061232498
  Br  -2.43975534598382     -1.02075833667258     -0.75508275012029
  H   0.29252434377962      0.02658511822061     -1.38858625625898
  H   -0.26802482377348     -2.00075270798006     -0.02672391610051
  H   -0.93588110770071     -0.93939354714518      1.24470994545405
  N   1.51110140476938     -0.01640067293173      0.28724415456284
  O   2.30335494973561      0.84824025003732     -0.07238778264526
  O   1.74740203169574     -0.93276520342774      1.06877167024608
  N   -0.37527507926826      1.37714588892046      0.15007184555284
  H   0.13428948254858      2.12829574135506     -0.29783541458465
  H   -1.35615656288171      1.46370228745278     -0.08346426700347
