16

C	0.0	0.0	0.0
C	-0.313588	0.124843	-1.525656
Br	2.023132	0.0	0.0
H	0.378196	-0.569118	-2.015679
C	-0.403466	1.209916	0.827474
H	0.039348	2.136873	0.458459
H	-0.080518	1.053714	1.86074
H	-1.496867	1.21676	0.765587
N	-0.520798	-1.255557	0.42499
H	-1.557302	-1.034294	0.357648
H	-0.294432	-1.369347	1.409454
C	-0.005771	1.466497	-2.033618
N	0.241892	2.537808	-2.445875
C	-1.64496	-0.277496	-2.029802
N	-2.43098	-0.646382	-2.825571
F	-2.744521	0.0	0.0
