16

C	0.0	0.0	0.0
C	-0.59381	0.043394	-1.422014
Br	1.95347	0.0	0.0
H	-1.707531	0.048725	-1.132419
C	-0.416019	1.267768	0.748982
H	-1.509361	1.259175	0.73258
H	-0.013198	2.173292	0.289228
H	-0.048779	1.208587	1.777536
N	-0.504515	-1.217284	0.58084
H	-1.529275	-1.053841	0.549655
H	-0.214095	-1.251544	1.553044
C	-0.274711	-1.140894	-2.210668
N	-0.044377	-2.071564	-2.891054
C	-0.258881	1.255187	-2.155785
N	-0.005496	2.246191	-2.734612
F	-2.859428	0.0	0.0
