16

C	0.0	0.0	0.0
C	-0.581325	0.005749	-1.441471
Br	1.962036	0.0	0.0
H	-1.694531	0.034698	-1.142156
C	-0.417375	1.290491	0.698313
H	-1.510032	1.291803	0.681965
H	-0.047781	1.25659	1.723953
H	-0.007653	2.167203	0.19353
N	-0.495591	-1.11587	0.752216
H	-1.52243	-0.972099	0.696979
H	-0.255814	-1.985513	0.284169
C	-0.278795	-1.228462	-2.153944
N	-0.04635	-2.237216	-2.711405
C	-0.206766	1.164613	-2.239155
N	0.089804	2.105615	-2.878799
F	-2.843226	0.0	0.0
