16

C	0.0	0.0	0.0
C	-0.331979	-0.021723	-1.537623
Br	1.964611	0.0	0.0
H	0.286694	-0.826413	-1.955442
C	-0.432112	1.285288	0.686187
H	-0.08527	1.250145	1.720602
H	-1.524235	1.281634	0.644131
H	-0.008428	2.161888	0.193717
N	-0.521863	-1.125847	0.695062
H	-1.553892	-0.933565	0.619533
H	-0.298194	-1.981212	0.19366
C	0.086752	1.210388	-2.216452
N	0.424934	2.190025	-2.769701
C	-1.709416	-0.355469	-1.975379
N	-2.476408	-0.741564	-2.785185
F	-2.758718	0.0	0.0
