16

C	0.0	0.0	0.0
C	-0.596126	-0.18159	-1.423199
Br	1.954437	0.0	0.0
H	-1.710098	-0.108901	-1.114828
C	-0.423359	1.36579	0.529972
H	-0.048043	1.469808	1.548581
H	-0.024605	2.1726	-0.087116
H	-1.515859	1.360371	0.520198
N	-0.487761	-1.01336	0.895541
H	-1.513496	-0.879701	0.832617
H	-0.256037	-1.933343	0.531409
C	-0.317974	-1.501745	-1.968977
N	-0.118199	-2.586567	-2.375407
C	-0.234886	0.863248	-2.368314
N	0.038874	1.727485	-3.116504
F	-2.848543	0.0	0.0
