16

C	-0.569588	-0.056019	-1.402213
C	0.0	0.0	0.0
Cl	-2.347697	0.180983	-1.422377
H	1.093248	0.0	0.0
N	0.094816	0.969131	-2.362194
O	1.271495	0.712159	-2.577258
O	-0.562384	1.891177	-2.810667
C	-0.289161	-1.363262	-1.989847
N	-0.105849	-2.392589	-2.526888
N	-0.361145	-1.163201	0.732192
H	-1.161142	-0.982654	1.325023
H	0.43471	-1.409342	1.316593
N	-0.353112	1.26188	0.636289
O	-0.688226	1.249568	1.832272
O	-0.16997	2.287987	-0.035474
H	2.419814	0.0	0.0
