16

C	-0.508389	-0.03139	-1.429372
C	0.0	0.0	0.0
Cl	-2.288554	0.173525	-1.517443
H	1.091828	0.0	0.0
N	0.172284	1.034094	-2.332747
O	1.353401	0.792549	-2.536904
O	-0.481054	1.973225	-2.750467
C	-0.17439	-1.317999	-2.03364
N	0.099922	-2.325914	-2.572219
N	-0.425173	-1.160041	0.695681
H	0.289574	-1.390668	1.379623
H	-1.298888	-0.987394	1.177774
N	-0.362818	1.265853	0.632291
O	-0.059573	2.295059	0.011603
O	-0.82688	1.245548	1.784387
H	2.440348	0.0	0.0
