16

C	-0.521585	-0.011061	-1.422571
C	0.0	0.0	0.0
Cl	0.389673	-1.194829	-2.362109
H	1.090455	0.0	0.0
N	-2.019494	-0.461826	-1.362421
O	-2.399192	-1.417305	-2.014532
O	-2.698422	0.237522	-0.619635
C	-0.550908	1.241901	-2.172969
N	-0.634373	2.158061	-2.905519
N	-0.396349	-1.200185	0.661604
H	-1.115852	-0.989386	1.342323
H	0.421998	-1.547398	1.155378
N	-0.351801	1.227755	0.716581
O	-0.77381	1.131896	1.878387
O	-0.065344	2.294876	0.161722
H	2.449752	0.0	0.0
