16

C	-0.571014	0.085654	-1.412101
C	0.0	0.0	0.0
Cl	0.379632	1.119047	-2.505994
H	1.08943	0.0	0.0
N	-0.491114	-1.352166	-1.976383
O	-1.547365	-1.961178	-2.077638
O	0.622657	-1.767094	-2.237685
C	-1.972436	0.495402	-1.451782
N	-3.110621	0.793509	-1.436636
N	-0.299099	-1.245191	0.628119
H	-1.050055	-1.145887	1.298551
H	0.543858	-1.531331	1.124308
N	-0.372956	1.166571	0.768985
O	-0.322384	1.061082	2.007039
O	-0.564127	2.236984	0.164056
H	2.377389	0.0	0.0
