16

C	-0.539751	0.01101	-1.423976
C	0.0	0.0	0.0
Cl	0.417228	1.005896	-2.559857
H	1.09155	0.0	0.0
N	-0.401481	-1.421539	-1.975365
O	-1.337148	-1.858913	-2.634334
O	0.662651	-1.97519	-1.759767
C	-1.946096	0.389667	-1.503122
N	-3.087989	0.666761	-1.551922
N	-0.38943	-1.198909	0.688941
H	0.476539	-1.648327	0.986644
H	-0.893671	-0.929069	1.525248
N	-0.377489	1.201484	0.691618
O	-0.393592	1.164	1.937582
O	-0.513572	2.244705	0.023563
H	2.374531	0.0	0.0
