16

C	-0.399652	-0.001364	-1.471273
C	0.0	0.0	0.0
Cl	-0.060818	-1.610888	-2.167552
H	1.100714	0.0	0.0
N	-1.915734	0.205865	-1.67794
O	-2.635758	-0.328624	-0.84343
O	-2.284646	0.821074	-2.667051
C	0.313675	0.981773	-2.282045
N	0.919799	1.699505	-2.989698
N	-0.309421	-1.11302	0.809362
H	-1.132667	-1.621254	0.527685
H	0.511208	-1.703866	0.890493
N	-0.450884	1.261596	0.579605
O	-0.319567	1.428939	1.791231
O	-0.838705	2.144068	-0.214576
H	2.430394	0.0	0.0
