16

C	-0.527359	-0.011331	-1.420328
C	0.0	0.0	0.0
Cl	0.391492	-1.180354	-2.370622
H	1.090371	0.0	0.0
N	-2.018989	-0.481586	-1.354242
O	-2.70279	0.205498	-0.60478
O	-2.389442	-1.439982	-2.007096
C	-0.579063	1.243132	-2.167193
N	-0.680133	2.156313	-2.900571
N	-0.389321	-1.202191	0.66172
H	-1.115219	-0.99832	1.337789
H	0.428387	-1.541994	1.160397
N	-0.352907	1.225169	0.720057
O	-0.763695	1.125545	1.884972
O	-0.077596	2.294944	0.164185
H	2.447572	0.0	0.0
