12
Coordinates from ORCA-job run
  C   0.88945295395152      0.24298510357957      0.39322269668659
  C   -0.24890654446486     -0.18982508585547     -0.51403304314123
  F   0.63881224796031      1.51588159718165      0.88447912228608
  H   0.00309061112072     -1.16967377594206     -0.93165366548052
  H   0.97584926914225     -0.42368157744364      1.25729257165148
  H   -0.29871827500471      0.51554661789415     -1.34842543314311
  C   2.17538630787573      0.26062793823746     -0.32256282098292
  N   3.18870164034769      0.25000209385446     -0.91382830721937
  C   -1.57684723752531     -0.24020779519274      0.23301530610431
  H   -1.53934774649046     -0.95821019516266      1.05635221930644
  H   -2.38269186475996     -0.54263686792515     -0.43790132089864
  H   -1.82678136215292      0.73819194677445      0.64404267483090
