17
Coordinates from ORCA-job run
  C   -0.57171218094778      0.21138568556990     -0.53121882383170
  C   0.91924898676834     -0.12870005838922     -0.31800754846868
  Br  -0.61899229150494      1.46808153433282     -2.13136039960496
  H   1.29281459125443     -0.55663644237440     -1.25648492365870
  N   -1.28767645976565     -0.98413451321139     -0.79200211874494
  H   -0.95596277519452     -1.44668138316765     -1.63052664306239
  H   -2.27880847542186     -0.80339928457819     -0.89355972782619
  C   -1.19571796356046      0.96999789865336      0.62384017407110
  H   -1.21183954622676      0.33096489152374      1.50986954021792
  H   -0.64089147078479      1.88294360523353      0.83948898897092
  H   -2.22291588374479      1.24697675057331      0.37802496944938
  C   1.13424064179872     -1.14048670505714      0.81714843293134
  H   0.53769506782240     -2.03366940357158      0.63899617776744
  H   2.18999814558001     -1.41435083688631      0.86611044976048
  H   0.85333307852067     -0.71472550803375      1.78131206126067
  C   1.70181403732157      1.07985721429302     -0.05602614204424
  N   2.35437249808541      2.03357655508994      0.15239553281254
