17
Coordinates from ORCA-job run
  C   -0.51671021740996      0.25084481418685     -0.48408074464982
  C   0.76314857784658     -0.44374786256730      0.01982431711175
  Br  -0.07858077479614      2.07749043837051     -1.07295181369861
  H   0.45745147783147     -1.47739160740214      0.24374389425633
  N   -0.95658468174422     -0.46076291802010     -1.66572524422584
  H   -1.75674188745379      0.00257063524821     -2.08153803704272
  H   -1.23240536574810     -1.40381613658199     -1.40694407031505
  C   -1.56734941780832      0.36798994171440      0.61468252269514
  H   -1.24825330280060      1.00844105260146      1.43705007001964
  H   -2.48561050611198      0.78525166169338      0.19709691714656
  H   -1.78867644850372     -0.63189224422105      1.00630425143108
  C   1.38354669700987      0.15471775682056      1.28459976125946
  H   2.29505975978656     -0.38861357964775      1.53905564856647
  H   1.64147911389230      1.20231087071486      1.12559026562803
  H   0.69768170989582      0.07884979957105      2.12915055425890
  C   1.76466108930907     -0.52392962457289     -1.04693316231654
  N   2.62788417680517     -0.59931299790805     -1.83892513012475
