17
Coordinates from ORCA-job run
  C   -0.60094320058953      0.12251631069198     -0.39468704459101
  C   0.72215215593876     -0.48911266029540      0.11033786709219
  Br  -0.13927524245440      1.86065479649934     -1.35377959795024
  H   0.41139735556747     -1.41538943182860      0.61216944479186
  N   -1.23711827281193     -0.80133885906007     -1.25684847296479
  H   -2.12875641434061     -0.45155738151378     -1.58475296213651
  H   -0.66352691893496     -1.04239960837980     -2.05730027957687
  C   -1.53215247523969      0.50349001181701      0.74143517559552
  H   -2.47396855862106      0.88031139048873      0.33747621268288
  H   -1.74123566261168     -0.38715275517942      1.34140130047656
  H   -1.10671728347331      1.28257037751832      1.37086864813937
  C   1.52925026432284      0.36180372515606      1.09167584935657
  H   0.94584449074652      0.56983170701883      1.98911059569740
  H   2.42607174343797     -0.18277520086420      1.39264469118699
  H   1.83174229521438      1.30362571982304      0.63538271878554
  C   1.55201709317854     -0.89096896617825     -1.02806915591765
  N   2.20621863067070     -1.22410917571379     -1.94506499066782
