17
Coordinates from ORCA-job run
  C   -0.50945559528781      0.24054307791955     -0.62620647737780
  C   0.96613511558348     -0.10195555825683     -0.32268620954189
  Br  -0.51527944630559      1.38357431140321     -2.22799047932592
  H   1.38901208489408     -0.48536999010458     -1.25645742192082
  N   -1.18043600176331     -0.99770781564546     -1.00001870540798
  H   -2.01940014336244     -0.78318478536973     -1.52686465501189
  H   -1.47255100680068     -1.47677352162003     -0.15292381323126
  C   -1.19102509551220      1.01731244279471      0.49217150361313
  H   -2.21973233938472      1.24518465201172      0.20726340682837
  H   -0.67525651993486      1.95262379560972      0.71426689154775
  H   -1.21539130147514      0.40579362488702      1.40006031863671
  C   1.11522201541631     -1.18123870531782      0.75792548117820
  H   0.68428645507075     -0.86517106574276      1.70984378890569
  H   2.17394472759555     -1.38659932637613      0.92549718504836
  H   0.64141855683562     -2.10503443626188      0.42511365616164
  C   1.71376842817265      1.09646302273889      0.06299674606827
  N   2.31474006625832      2.04054027733042      0.41900878382945
