17
Coordinates from ORCA-job run
  C   -0.59023447559360      0.30059544510588     -0.60205079932047
  C   0.89293387496032     -0.09670796583357     -0.35517359820917
  Br  -0.56243177428261      1.52106925177464     -2.16188976443490
  H   1.27415600954691     -0.50033814651528     -1.30088560452128
  N   -1.43675168974835     -0.80322432617502     -0.96092627237820
  H   -1.02123420585463     -1.39076834081163     -1.67374389007811
  H   -1.67564404337656     -1.35821804473112     -0.14835030636780
  C   -1.20552415877032      1.04662717426234      0.56742721045824
  H   -2.22202271265104      1.34143901350317      0.30698049331486
  H   -1.24842763495539      0.39523386564689      1.44647230615748
  H   -0.62798357130989      1.93598746252706      0.81911943406878
  C   1.05039615195978     -1.16111214563038      0.73849991396469
  H   0.72289800654080     -0.78782854087065      1.70996381748538
  H   2.10059296594490     -1.44471237189551      0.82720357233530
  H   0.48015729437823     -2.05629051127667      0.48662814613322
  C   1.70689381439281      1.07137794297848     -0.01569080809657
  N   2.36222614881864      1.98787023794138      0.31641614948854
