17
Coordinates from ORCA-job run
  C   -0.56816665156751      0.37826819384105     -0.39631525506694
  C   0.59976203790854     -0.56031358226584      0.01440619917710
  Br  0.20855223840593      2.02087472492830     -1.16352182659055
  H   0.10142152751994     -1.45077155597040      0.42548653553222
  N   -1.42846164377070     -0.17656544972161     -1.41151983598871
  H   -0.89986299448583     -0.47411100775362     -2.22425204884576
  H   -1.93764161170035     -0.97045960366140     -1.03655381398695
  C   -1.41588896561481      0.76536125476108      0.80324206088909
  H   -2.25414962241105      1.37056996494446      0.45876671397432
  H   -0.84990923690402      1.33368367019797      1.53944380688713
  H   -1.80802068822761     -0.14006938730309      1.28157322702381
  C   1.57791229209168     -0.02464890497679      1.06241395170660
  H   2.32654117878046     -0.78537080708962      1.29227062534539
  H   1.05465142976777      0.22386409085241      1.98629838859892
  H   2.08933954275076      0.86391896762746      0.69335536279827
  C   1.31890445274444     -1.00509821161912     -1.18171623528275
  N   1.88601671471237     -1.36713235679125     -2.14437785617119
