17
Coordinates from ORCA-job run
  C   -0.60020902193178      0.22309289594497     -0.34966350749521
  C   0.71894661772048     -0.50461562029002     -0.01882147740294
  Br  -0.12907969212650      2.14699933590051     -0.82776586581787
  H   0.40364315485560     -1.52722896768227      0.22873510353233
  N   -1.23958874271746     -0.44437837765900     -1.42092805977639
  H   -2.12835309887030     -0.01633253891225     -1.64833036272543
  H   -0.66577894372972     -0.47396734273244     -2.25610035804041
  C   -1.53164453364586      0.30238453750489      0.84594612520618
  H   -1.10422996821335      0.89135608126092      1.65497414113879
  H   -1.74487964064381     -0.71184308726466      1.19626858135111
  H   -2.47155698404228      0.77411135489683      0.55222203256369
  C   1.53026307650234      0.06228749297278      1.14702948725802
  H   2.41917756102987     -0.55175206029592      1.30293381992914
  H   0.94496045094160      0.04545777944210      2.06703008854386
  H   1.84579520371975      1.08480579980812      0.94259243381087
  C   1.54842046184119     -0.60468026783513     -1.22253367697208
  N   2.20411409931023     -0.69569701505943     -2.19258850510365
