17
Coordinates from ORCA-job run
  C   -0.60762036448278      0.29710442464242     -0.58635791206032
  C   0.88670860592498     -0.07734406901050     -0.37521491892345
  Br  -0.63345933361682      1.53543945952273     -2.13249820781368
  H   1.25600022815071     -0.46233709063061     -1.33336835886517
  N   -1.44262873454270     -0.81701834392833     -0.93971051207841
  H   -1.03143887871121     -1.39167993672915     -1.66535472430562
  H   -1.65808213035123     -1.38258693255462     -0.12803810960448
  C   -1.21059486517116      1.01983583413752      0.60398709272024
  H   -0.64278495332669      1.91601457640470      0.85341653638488
  H   -2.23705479319374      1.30034818720732      0.36815007331991
  H   -1.22411763855323      0.35840097342989      1.47644794637859
  C   1.08487276776492     -1.15211092225142      0.70174675283042
  H   0.52478068573858     -2.05394946918388      0.45093279748632
  H   0.77146155585982     -0.79596167964804      1.68424318663869
  H   2.14141914031742     -1.41838811824624      0.76505025230469
  C   1.68757420205379      1.10034683833755     -0.03704241304038
  N   2.33496450613934      2.02288626850067      0.29361051862777
