17
Coordinates from ORCA-job run
  C   -0.64892686532552      0.20653350605176     -0.41768194372839
  C   0.86216163092490      0.08068366404629     -0.05906072116588
  Br  -0.76312871811389      0.05646242068163     -2.38681117950121
  H   1.39778568689340      0.87869670101719     -0.58550454904267
  N   -1.50287052978698     -0.80813075170225      0.13527972521546
  H   -1.57433415756838     -0.69684684964140      1.14111620910327
  H   -1.18179966217583     -1.74250428569013     -0.08290171311117
  C   -1.19048909825319      1.57393264559571     -0.03578262439781
  H   -0.59444760921073      2.37112302842990     -0.48267025539338
  H   -2.22109641632288      1.66043847221558     -0.37899668984020
  H   -1.17046944478971      1.69033465963652      1.05211204442485
  C   1.50635420105576     -1.26637491492555     -0.39704847208383
  H   2.56334884545395     -1.24939716372001     -0.12566556238655
  H   1.42476801552322     -1.47020173422113     -1.46419953812731
  H   1.03630110161425     -2.07787987970411      0.16156187258005
  C   0.98943679723640      0.32249601517657      1.38220585835113
  N   1.06840622284521      0.47063446675343      2.54504753910365
