16

C	-0.397067	0.068645	-1.471619
C	0.0	0.0	0.0
F	-0.098911	-1.139899	-2.031937
H	1.091634	0.0	0.0
N	-1.922287	0.201102	-1.600722
O	-2.393594	1.29395	-1.898299
O	-2.559057	-0.819199	-1.33723
C	0.225468	1.111166	-2.293185
N	0.716003	1.801248	-3.108758
N	-0.363639	-1.186965	0.668082
H	0.439971	-1.803682	0.696214
H	-1.183181	-1.645939	0.297537
N	-0.428954	1.224316	0.687184
O	-0.39633	2.263417	0.003975
O	-0.654813	1.192048	1.898119
H	2.44995	0.0	0.0
