16

C	-0.521351	-0.039741	-1.411785
C	0.0	0.0	0.0
F	-1.869829	-0.284751	-1.477968
H	1.089054	0.0	0.0
N	-0.252794	1.240972	-2.217877
O	-1.132821	1.604915	-2.982251
O	0.85504	1.727693	-2.063575
C	0.161977	-1.112753	-2.154693
N	0.687804	-1.949043	-2.790149
N	-0.31245	-1.179165	0.73291
H	0.517104	-1.759449	0.803499
H	-1.115597	-1.68692	0.394522
N	-0.46429	1.20887	0.696586
O	-1.087717	2.070919	0.051853
O	-0.123129	1.326665	1.873585
H	2.472477	0.0	0.0
