16

C	-0.487952	-0.048628	-1.449853
C	0.0	0.0	0.0
F	-0.433264	1.138717	-2.091575
H	1.09204	0.0	0.0
N	0.451009	-1.011645	-2.207608
O	1.241543	-0.512492	-2.987723
O	0.334272	-2.194745	-1.911481
C	-1.85071	-0.593431	-1.573569
N	-2.953598	-0.997472	-1.628586
N	-0.357697	-1.108257	0.797243
H	0.401073	-1.777878	0.787183
H	-1.251874	-1.534872	0.606548
N	-0.511682	1.277216	0.579945
O	0.082795	2.307147	0.258258
O	-1.480711	1.224125	1.343723
H	2.562921	0.0	0.0
