16

C	-0.520142	-0.011969	-1.426898
C	0.0	0.0	0.0
F	0.078645	0.910949	-2.216849
H	1.091078	0.0	0.0
N	-0.145329	-1.381531	-2.033112
O	0.978252	-1.453773	-2.504348
O	-0.988508	-2.26622	-1.988064
C	-1.982862	0.115075	-1.529
N	-3.154029	0.19823	-1.583942
N	-0.289211	-1.208186	0.692759
H	-1.136147	-1.142645	1.241906
H	0.498298	-1.401207	1.305617
N	-0.426647	1.20994	0.680305
O	-0.746643	2.200074	-0.001098
O	-0.321723	1.214723	1.91756
H	2.4128	0.0	0.0
