16

C	-0.552065	0.133086	-1.409386
C	0.0	0.0	0.0
F	0.233482	0.891986	-2.211888
H	1.093121	0.0	0.0
N	-0.556162	-1.279443	-2.02841
O	-1.594503	-1.921621	-1.948885
O	0.491234	-1.630083	-2.54504
C	-1.939985	0.625115	-1.480609
N	-3.06353	0.969422	-1.525196
N	-0.300072	-1.243219	0.621117
H	0.520868	-1.504535	1.163237
H	-1.092138	-1.16979	1.244797
N	-0.357501	1.176948	0.767152
O	-0.458356	2.252466	0.148148
O	-0.381168	1.070527	2.003366
H	2.392592	0.0	0.0
