16

C	-0.558249	-0.04336	-1.39914
C	0.0	0.0	0.0
F	-1.905862	-0.313945	-1.406452
H	1.088415	0.0	0.0
N	-0.355526	1.228453	-2.238248
O	0.801208	1.611417	-2.306855
O	-1.333419	1.689368	-2.802542
C	0.112143	-1.112556	-2.158509
N	0.580094	-1.983312	-2.793711
N	-0.269875	-1.20596	0.708876
H	0.586048	-1.749758	0.772963
H	-1.046027	-1.745374	0.356848
N	-0.46618	1.184274	0.730553
O	-0.897639	2.146152	0.070469
O	-0.28743	1.199433	1.947972
H	2.451849	0.0	0.0
