17
Coordinates from ORCA-job run
  C   0.71452495976780     -0.28490180242943     -0.58120568849393
  C   -0.68401764732697      0.31204812232086     -0.34623557141704
  F   0.57444186408488     -1.32594465579254     -1.50060704630995
  H   -1.08066053041632      0.51965630716475     -1.35240250151646
  C   1.55444440009907      0.74832648834907     -1.21857776823459
  N   2.19259524502416      1.60474806674989     -1.70663117577186
  C   1.38897888817986     -0.82158718641646      0.66316556726657
  H   0.82538602412343     -1.67564585998471      1.03988178127489
  H   1.42485588886280     -0.04211135404160      1.42361691341169
  H   2.40099784629262     -1.15177624739054      0.42477671856706
  N   -0.53253886163066      1.50716866856281      0.47714422230857
  H   -0.20385686896529      2.28726865769021     -0.08067257597522
  H   -1.42843844401931      1.76906343821836      0.86983528749974
  C   -1.60621343683578     -0.68054966105918      0.34286084425804
  H   -1.57568672651169     -1.65136725698887     -0.15304950948517
  H   -1.32793566314428     -0.80008613772965      1.39171085003892
  H   -2.63587693758431     -0.31530958722297      0.30438965257873
