17
Coordinates from ORCA-job run
  C   0.80817024138243     -0.00538677502101     -0.41113850236353
  C   -0.71168808004576      0.14384582963518     -0.34250694007471
  F   1.18194561266579      0.30959715450895     -1.72498056791090
  H   -1.10097604258873     -0.60706977341774     -1.05117895471185
  C   1.46366251616154      0.97404452567042      0.47383385799172
  N   2.01354899003077      1.74475209619723      1.16751262966450
  C   1.31049446083840     -1.40720523425309     -0.12420791400022
  H   0.77266595289371     -2.12219064121446     -0.75031515431794
  H   2.37353010852486     -1.45983845612725     -0.36330758887023
  H   1.17669564882481     -1.66968203410041      0.92529825205929
  N   -1.03567632497106      1.51314565863052     -0.71449320476676
  H   -0.74892752850197      1.68999253020166     -1.66922303215921
  H   -2.03580716753223      1.66002633834680     -0.65557432738894
  C   -1.25410132904405     -0.14327704944393      1.04861864676346
  H   -0.81474374540816      0.54292616694332      1.77590150498075
  H   -2.33691053930849      0.00663380226395      1.05806051821524
  H   -1.06488277392184     -1.17231413882015      1.35770077688931
