17
Coordinates from ORCA-job run
  C   0.73644096649905     -0.29502281669816     -0.54809329939373
  C   -0.67314896562131      0.29805726953768     -0.37734966939719
  F   0.63465257460662     -1.36113885678391     -1.44360050096383
  H   -1.03578727433127      0.47682246854186     -1.40180508816450
  C   1.59092638778527      0.72687105131422     -1.18416798867563
  N   2.23825930456238      1.57414619651705     -1.67606746442780
  C   1.37032514191109     -0.79376106562677      0.73284092614608
  H   2.39233903165582     -1.12243192515902      0.53911713725318
  H   1.37372438882166      0.00568711095892      1.47312549101910
  H   0.79949119623958     -1.64204637253342      1.11176506098129
  N   -0.55742279448228      1.51530507382787      0.41903368638033
  H   -0.21545954623828      2.28319645348277     -0.14769920220818
  H   -1.46755125713886      1.78053488472117      0.77480707325200
  C   -1.61289686353639     -0.68264750958678      0.30508953379400
  H   -1.37038462224408     -0.77360632014639      1.36568221870242
  H   -2.64267530547979     -0.32530928440123      0.22157842026392
  H   -1.55983236300921     -1.66565635796589     -0.16425633456144
