17
Coordinates from ORCA-job run
  C   0.84443899043377     -0.06514328180209     -0.48271865406506
  C   -0.67581109836489      0.14987007927381     -0.45299779064005
  F   1.26640320255974      0.05859680398379     -1.79939834038068
  H   -1.06452742420651     -0.54503344197809     -1.20658697846763
  C   1.49219261610516      1.00265745434655      0.30392048485705
  N   1.96077880340495      1.83748760757563      0.98360171122328
  C   1.29253009427629     -1.43052660322695      0.00791507695659
  H   0.73449503411027     -2.20511547315037     -0.52327143130830
  H   2.35428041096766     -1.55232964400261     -0.21092984732225
  H   1.14094428024865     -1.54516890303220      1.08094526648517
  N   -0.95187899183263      1.50237654724714     -0.92062626858373
  H   -1.87980794952506      1.55423137102804     -1.31987694448386
  H   -0.90888271323306      2.15819492448639     -0.14836117019520
  C   -1.27795842046462     -0.17774116490286      0.91254103490932
  H   -2.34636275453230      0.04818047728349      0.89605507400279
  H   -0.81881719477344      0.43761425149007      1.69293255019911
  H   -1.16201688517399     -1.22815100461975      1.18685622681345
