17
Coordinates from ORCA-job run
  C   0.72553617706251     -0.28710468744303     -0.58377163403652
  C   -0.67236944042853      0.31763235403831     -0.35497870123094
  F   0.58393531511899     -1.35578440544972     -1.47340437836987
  H   -1.05311214505135      0.54371618203194     -1.36067759791538
  C   1.55522734744408      0.73069239149860     -1.25656074313424
  N   2.18929985140676      1.55608769898937     -1.79980784264282
  C   1.40868653629034     -0.78906941090483      0.66973356494815
  H   1.47514738482744      0.01833148333742      1.39811655185178
  H   2.41058689340743     -1.14591675996546      0.42689336471576
  H   0.83864051065327     -1.61954902313217      1.08809117546806
  N   -0.50736213050609      1.52209093992238      0.45331886027669
  H   -0.54861888249409      2.35885860228720     -0.11174619327175
  H   -1.22159349200965      1.58123699959264      1.16609185816366
  C   -1.61328265354608     -0.67491129557081      0.30913405027427
  H   -1.59457974151035     -1.63740560360227     -0.20310108349287
  H   -2.63502725110585     -0.28918826381684      0.27724625123381
  H   -1.34111427955903     -0.82871720181315      1.35642249716222
