17
Coordinates from ORCA-job run
  C   0.72017887815350     -0.43619741197330     -0.04493510629857
  C   -0.53945793493333      0.44377073346913     -0.03785115963949
  F   0.41967314111037     -1.59109805256420      0.68913025371048
  H   -0.27887635028360      1.36244886437587     -0.57702093667237
  C   1.03449876703955     -0.86287290485721     -1.42099679965344
  N   1.29973385491172     -1.16684790295818     -2.52358062732882
  C   1.92798176079035      0.22227922877512      0.58982130385825
  H   2.75542583318717     -0.48795164907455      0.62496947162786
  H   2.23289744622868      1.09309642962734      0.00579102569215
  H   1.66001615494328      0.54054544451485      1.59520462692404
  N   -0.80230514360194      0.81091295261426      1.35119683409382
  H   -1.17588054460038      0.00497012890582      1.84019735327292
  H   -1.50615700030700      1.53828121154866      1.38097208924278
  C   -1.71090683833041     -0.24076045268164     -0.74126459561895
  H   -2.59766108531182      0.39429044523029     -0.67753761818329
  H   -1.93591272717620     -1.19323864971402     -0.25581872024511
  H   -1.50624821181995     -0.43162841523824     -1.79727739478224
