17
Coordinates from ORCA-job run
  C   0.82722137452070     -0.01986877743314     -0.37500459055078
  C   -0.69311329529681      0.13777747381804     -0.38521757819461
  F   1.26401811158334      0.24591865873622     -1.68115324877759
  H   -1.05156912570277     -0.63530515130664     -1.08623339714636
  C   1.44399542343210      0.98577605585519      0.50797281061641
  N   1.95865818240439      1.72751918514561      1.25803049111380
  C   1.30910363835893     -1.41188592805853     -0.01466174378892
  H   1.12606710848562     -1.63481876849867      1.03655078273065
  H   0.79691160555551     -2.14744178158872     -0.63836627997644
  H   2.38168818128099     -1.47581090749754     -0.20275842600118
  N   -0.98943046492750      1.49491725422326     -0.81932988069119
  H   -1.98982588542988      1.65109927994755     -0.80930721682456
  H   -0.65967956892701      1.63559107641054     -1.76613870992674
  C   -1.30425450816284     -0.09903729338378      0.98673796158268
  H   -2.38553127523075      0.05434758540089      0.93820172877859
  H   -0.89728765057302      0.61043784662838      1.71048489054061
  H   -1.13497185137103     -1.11721580839864      1.34019240651563
