17
Coordinates from ORCA-job run
  C   0.66414934501978     -0.39326299849042     -0.13268417364970
  C   -0.64667489741040      0.42004494921541     -0.01949767375006
  F   0.46863063582828     -1.60185268812384      0.54514343952210
  H   -0.48225371756781      1.35486497894606     -0.56890382310583
  C   0.94117189625045     -0.71270367605622     -1.54404761487944
  N   1.16886741196344     -0.91747327903636     -2.67774938416868
  C   1.87047226395943      0.28669108704495      0.48563767183457
  H   2.05594253847239      1.25025285669999      0.00617309051975
  H   2.75343623055353     -0.34265543406032      0.36767562716949
  H   1.69474884032400      0.43685812697866      1.55093812929803
  N   -0.99250337070114      0.76624587870753      1.34912713457096
  H   -0.32439579910565      1.40553218366209      1.75890479405006
  H   -1.02993562063528     -0.07105462896796      1.91874740332285
  C   -1.81233080256401     -0.33213124663610     -0.64957667934642
  H   -1.97137798411883     -1.28234230363664     -0.13490927243052
  H   -2.71460476637109      0.27047377997163     -0.54664041019671
  H   -1.64134220389709     -0.53948758621842     -1.70733825876049
