17
Coordinates from ORCA-job run
  C   0.70846054624739     -0.45070687710132     -0.07781337436496
  C   -0.53222428870610      0.45392772510052     -0.01830464207554
  F   0.43535506693974     -1.57659771570835      0.71062062105168
  H   -0.29060803989290      1.34857514639642     -0.60455720852969
  C   0.92446423763084     -0.92708960906921     -1.45646796250093
  N   1.10483852256895     -1.28244716527586     -2.56072569099319
  C   1.96630599052192      0.20226544480061      0.45714697238545
  H   2.24636019449417      1.05090685114502     -0.17043665850657
  H   1.77085801249713      0.55364112041355      1.46821246589876
  H   2.78226982050771     -0.52203431206666      0.45835414010089
  N   -0.69636093404313      0.87185627910321      1.37129217872619
  H   -1.38521232092972      1.61229860921081      1.42213410880369
  H   -1.04969790199133      0.08946511045684      1.91102895671769
  C   -1.75934068094853     -0.22967913183281     -0.62039360571652
  H   -2.62849704700388      0.42475136218107     -0.52043166227456
  H   -1.62817078152162     -0.45906692763293     -1.68038928152215
  H   -1.96880039637065     -1.16106591012092     -0.08926935720025
