17
Coordinates from ORCA-job run
  C   0.72361113000844     -0.26782868921445     -0.57810125755985
  C   -0.68474771899803      0.30767272135008     -0.34754827871092
  F   0.60495041777183     -1.29906416200694     -1.51156593184433
  H   -1.07491968660622      0.52355694404749     -1.35456138934545
  C   1.55401335122381      0.78473118181447     -1.19616332059978
  N   2.18113733203951      1.65681700393502     -1.67054864094305
  C   1.39514303486745     -0.81106620648156      0.66484095137601
  H   0.83794832974748     -1.67485395388621      1.02869804039158
  H   1.41816822843991     -0.03953361528508      1.43382644383561
  H   2.41191436978935     -1.12848701929812      0.42925540663089
  N   -0.55614610187278      1.49330092102037      0.49301073676517
  H   -1.45742806371855      1.73578554897649      0.88541103762451
  H   -0.23654436137172      2.28614797246775     -0.05179110611023
  C   -1.60008362251379     -0.70631464686986      0.31943333395777
  H   -2.63415552247688     -0.35440217472493      0.27559264918787
  H   -1.32998743642731     -0.83651492534304      1.36923296946703
  H   -1.55187367990253     -1.66994690050150     -0.18902164412280
