17
Coordinates from ORCA-job run
  C   0.81775702448871     -0.00835358994661     -0.39574623647991
  C   -0.70369159515592      0.13141953999407     -0.36732486856590
  F   1.21905086580805      0.26949482275698     -1.71081552386949
  H   -1.07167542555313     -0.64173093823635     -1.06325062115781
  C   1.44438551825951      1.00032702707932      0.47708396405764
  N   1.96744565480047      1.74592484828413      1.21746398036019
  C   1.32497076476475     -1.39622904963069     -0.05516214822775
  H   2.39280727939046     -1.44709066710758     -0.27204753323690
  H   1.17282781221783     -1.62675384220423      0.99934725076231
  H   0.80476054078460     -2.13479623429072     -0.66865266896326
  N   -1.02676673700274      1.48734693431140     -0.78636716380547
  H   -0.72662903278076      1.63561300168770     -1.74181794731860
  H   -2.02802286133588      1.63269641392694     -0.74597140755681
  C   -1.27764543581478     -0.12013915798837      1.01813240425000
  H   -2.36152757646621      0.02061802839867      0.99712018073811
  H   -0.86132928944332      0.58992371764113      1.73596436941187
  H   -1.08771750696166     -1.13827085467581      1.36104396960178
