17
Coordinates from ORCA-job run
  C   0.79578861128079     -0.01406162547382     -0.38692192520800
  C   -0.73938498551502      0.09605180005964     -0.43746545777845
  F   1.25915362862423      0.29087309632065     -1.67343211580542
  H   -1.04633408683566     -0.64873915042753     -1.18287318414756
  C   1.33087102282231      1.01475724770532      0.52251741276988
  N   1.70998993530098      1.82240313976239      1.28608710113992
  C   1.32352764777801     -1.38850672898696     -0.02752820159067
  H   0.84340845615191     -2.13540922131308     -0.66371282208633
  H   2.40028491089959     -1.41874336598002     -0.20107818986726
  H   1.13048465688103     -1.62655355272883      1.01857819170215
  N   -1.20657395775385      1.39035638657470     -0.90073598465522
  H   -0.72948422713177      1.65008488139009     -1.75541036297338
  H   -1.01735552141696      2.10420471370540     -0.20523705229567
  C   -1.38302608050692     -0.22995693624684      0.90104796315009
  H   -1.02613805568158      0.44797922377323      1.68255451185131
  H   -1.18445465000207     -1.25516573814861      1.21621210525429
  H   -2.46175730489498     -0.09957416998569      0.80739801054029
