14

C	-0.560133	-0.001349	-1.424976
C	0.0	0.0	0.0
Br	-2.490189	0.323565	-1.387369
H	1.091539	0.0	0.0
H	-0.316075	0.949314	0.449036
C	0.033316	1.013194	-2.283537
N	0.452052	1.875255	-2.963944
N	-0.292436	-1.379241	-2.054436
O	-1.204532	-2.181569	-2.149676
O	0.878277	-1.543569	-2.366485
N	-0.465912	-1.180324	0.702461
H	0.308329	-1.572901	1.219011
H	-1.222454	-0.974256	1.33685
Cl	3.362521	0.0	0.0
