14

C	-0.510866	0.028584	-1.446046
C	0.0	0.0	0.0
Br	0.271593	-1.416954	-2.47986
H	1.090312	0.0	0.0
H	-0.324508	-0.963258	0.407139
C	-1.965014	-0.086148	-1.501886
N	-3.134413	-0.197297	-1.446228
N	-0.141438	1.333363	-2.160903
O	-0.825186	1.629968	-3.13833
O	0.810456	1.957603	-1.713789
N	-0.494943	1.081285	0.819588
H	-1.489397	1.236147	0.728609
H	0.017984	1.927382	0.62784
Cl	3.471866	0.0	0.0
