14

C	-0.561698	0.018447	-1.424061
C	0.0	0.0	0.0
Br	-2.504197	0.25187	-1.3739
H	1.091998	0.0	0.0
H	-0.320449	0.940955	0.463411
C	-0.019045	1.09104	-2.245007
N	0.403728	1.967197	-2.904761
N	-0.233495	-1.321193	-2.102584
O	0.930861	-1.402846	-2.469037
O	-1.095708	-2.17935	-2.175433
N	-0.456939	-1.19287	0.686477
H	-1.206636	-1.000152	1.333266
H	0.323981	-1.592652	1.187713
Cl	3.35624	0.0	0.0
