14

C	-0.526449	0.014054	-1.433054
C	0.0	0.0	0.0
Br	0.245796	-1.438539	-2.457514
H	1.092861	0.0	0.0
H	-0.354083	0.914356	0.482052
C	-1.981511	-0.107111	-1.475574
N	-3.15601	-0.161968	-1.470541
N	-0.197444	1.331508	-2.158584
O	-0.527972	1.409474	-3.333287
O	0.321322	2.212675	-1.488222
N	-0.524282	-1.199683	0.653909
H	-0.960731	-0.954982	1.532191
H	0.255448	-1.813416	0.856401
Cl	3.397734	0.0	0.0
