14

C	-0.460483	0.009009	-1.451701
C	0.0	0.0	0.0
Br	-2.413115	-0.195099	-1.562978
H	1.094833	0.0	0.0
H	-0.347326	-0.93368	0.447033
C	-0.122737	1.23989	-2.148632
N	0.118195	2.233927	-2.727828
N	0.131605	-1.189492	-2.192985
O	0.655739	-0.982568	-3.279646
O	0.012544	-2.268785	-1.626789
N	-0.493837	1.198288	0.659392
H	-1.155781	0.971749	1.386751
H	0.291311	1.685934	1.070673
Cl	3.335408	0.0	0.0
