14

C	-0.444952	-0.045025	-1.487287
C	0.0	0.0	0.0
Br	0.187271	1.489786	-2.468113
H	1.092574	0.0	0.0
H	-0.368908	-0.933681	0.440122
C	-0.008971	-1.25735	-2.162171
N	0.333917	-2.238517	-2.711253
N	-1.980036	-0.056767	-1.477335
O	-2.494206	-1.160402	-1.318186
O	-2.570516	1.016684	-1.496453
N	-0.449795	1.140375	0.752678
H	-1.407256	1.40381	0.56162
H	0.157308	1.928071	0.573713
Cl	3.352228	0.0	0.0
