15
Coordinates from ORCA-job run
  C   0.92667648328697     -0.17843255292068     -0.48909013495816
  C   -0.39678597066276     -0.12559973369721      0.29359910607576
  F   1.06380639211767      0.92443269813537     -1.29500204945521
  H   -0.39439785262464     -0.93166387121262      1.03194134412936
  C   2.02138780390554     -0.16493008605807      0.50147495644822
  N   2.86635025937702     -0.14125807706537      1.31718106571893
  C   1.03685606996964     -1.40598591629930     -1.29509808891643
  N   1.14671551976977     -2.41534368808811     -1.88568921949092
  N   -1.56181588984196     -0.42273859169014     -0.61034756616175
  O   -2.58619557843364     -0.78190196274834     -0.04028863499860
  O   -1.41907096897353     -0.23985704853106     -1.81582808835313
  C   -0.63051822489221      1.22578873208280      0.94880405715176
  H   -1.56172823397806      1.19071707838436      1.51426382883044
  H   0.18488081614129      1.46156070064811      1.63462449600422
  H   -0.69616062516110      2.00621231906025      0.19045492797549
