15
Coordinates from ORCA-job run
  C   0.78828968819643     -0.79267246172568     -0.08371616464214
  C   -0.48277837022229     -0.10684199353390      0.43643279169149
  F   0.57880063306966     -2.15381940392552     -0.09145159188526
  H   -0.64243511625297     -0.44876053343562      1.46082407558222
  C   1.18947779094097     -0.34878035318866     -1.42877479324916
  N   1.58115753376205      0.03646045480814     -2.46700007695674
  C   1.88140991026081     -0.48536827619824      0.85665702255149
  N   2.72355666233960     -0.21920004396697      1.63135982008706
  N   -1.66085760891523     -0.62731321879461     -0.33530137009002
  O   -2.64028623144741     -0.95598634477643      0.32552511064575
  O   -1.56252318118396     -0.64137868529237     -1.55812461419629
  C   -0.44181691591639      1.40539969398727      0.32908187475580
  H   0.39604887194788      1.80626457131898      0.90283097262816
  H   -1.36447031795434      1.82135527537389      0.73698159758671
  H   -0.34257334862480      1.71264131934972     -0.71332465450907
