15
Coordinates from ORCA-job run
  C   0.83810870805450     -0.71060536133573     -0.22695393993033
  C   -0.45415599208698     -0.20676187895698      0.43022389494499
  F   0.72523088645413     -2.06830367310007     -0.43019721733905
  H   -0.54500820150921     -0.70561815269195      1.39706001613092
  C   1.14880797148720     -0.04527278387927     -1.50277093727151
  N   1.46455032499116      0.52052438069492     -2.48252173595227
  C   1.94711205756560     -0.46261121534124      0.71240870605020
  N   2.80325956063281     -0.25167684014812      1.48878831877278
  N   -1.62670429790615     -0.69484579251410     -0.37062378778003
  O   -2.56583625960781     -1.15448380933601      0.27029984243317
  O   -1.56903129717895     -0.55241725587652     -1.58780317479441
  C   -0.52455078720896      1.30366693667480      0.54873926251970
  H   -1.45581529395588      1.58402712724651      1.04340749483545
  H   -0.49198393712572      1.76704804117174     -0.43881412833688
  H   0.30701655739426      1.67833027739200      1.14875738571727
