15
Coordinates from ORCA-job run
  C   0.93814146650056     -0.58445169004654     -0.00411724895063
  C   -0.53220133796229     -0.22406371367136      0.27547038860192
  F   1.44888057674355     -1.01773605019331      1.21011932483635
  H   -1.00847294399565     -1.12127190344599      0.67950678205453
  C   1.05111461995553     -1.69376119029598     -0.96266102301259
  N   1.12741445840201     -2.62257051096437     -1.67783614464832
  C   1.72944145321911      0.57488943191915     -0.44007604792043
  N   2.37555711315687      1.51664569834373     -0.71405662559161
  N   -1.24841908118661      0.08005433887700     -1.00585697776332
  O   -0.56433752482769      0.31623075544690     -2.00077110934959
  O   -2.47106259298966      0.10191776815054     -0.93977050164841
  C   -0.68157821397279      0.95457060683754      1.21946561357099
  H   -0.13067663099837      0.75987326246868      2.13996975091475
  H   -0.29901951197781      1.86859125427064      0.76034309903959
  H   -1.73578185006676      1.09108194230337      1.46027071986678
