15
Coordinates from ORCA-job run
  C   0.91824957945622     -0.21560817471187     -0.48999334253804
  C   -0.37491031608518     -0.08768523650720      0.33354337397285
  F   0.94332786278133      0.70341555854018     -1.50948344210408
  H   -0.28499757647682     -0.72189329218651      1.21933406717370
  C   2.04559060258645      0.07287744995083      0.41865937861172
  N   2.91698609188582      0.31876262124843      1.16710538092363
  C   1.08806365050714     -1.57342254339920     -1.03404352479528
  N   1.24962189678569     -2.67367994250548     -1.41219594838766
  N   -1.54822797700795     -0.63963917430513     -0.42887203069183
  O   -2.52078376642320     -0.93931825101855      0.25503635488648
  O   -1.46546256758300     -0.69989663481345     -1.65223073594121
  C   -0.68328375382423      1.35201530478908      0.71101585671953
  H   -0.83531748481699      1.95245443572631     -0.18611137111256
  H   0.13757314949313      1.77727409958991      1.29079523935204
  H   -1.58742939127842      1.37434377960267      1.31944074393070
