15
Coordinates from ORCA-job run
  C   0.86142289161227     -0.26613372057847     -0.50724937322040
  C   -0.44055715757189     -0.12957307149250      0.30767478289581
  F   0.74640285378954      0.50628363137324     -1.64250299564318
  H   -0.44614704755354     -0.89659136608576      1.08949473364846
  C   1.98461363465002      0.24690411130052      0.29958173293404
  N   2.87008586827330      0.65169463982428      0.95703547749223
  C   1.18858784933172     -1.65316066100401     -0.88004142829120
  N   1.54519345790236     -2.74703949916561     -1.11673044843357
  N   -1.59786011951675     -0.49463188347143     -0.60818210294342
  O   -2.63799596252462      0.13805920297852     -0.47666462549908
  O   -1.41313911246600     -1.42457447492223     -1.38523085094519
  C   -0.62756110278442      1.26016942679795      0.88148288067029
  H   -0.59700989633466      2.00935143409180      0.08961556071931
  H   0.15642591765434      1.47336734103853      1.60879135085602
  H   -1.59146207446167      1.32587488931515      1.38092530575989
