15
Coordinates from ORCA-job run
  C   1.05480153322931     -0.30311763915813      0.11496287170812
  C   -0.41293927712715     -0.02966090597450      0.48966321260267
  F   1.80768676156084      0.29927645106685      1.11156942758631
  H   -0.56695134784813     -0.43668873186772      1.49254205520554
  C   1.36008943907004     -1.74146881194783      0.12707204766891
  N   1.61745192743444     -2.88494346740512      0.20586163879675
  C   1.43342486539208      0.30644083855137     -1.16767973367012
  N   1.76231530917746      0.85781616409052     -2.15118592297512
  N   -1.33358922619780     -0.79621753296231     -0.41127768681297
  O   -2.49607554153335     -0.88324608176487     -0.03583575601160
  O   -0.86729846822033     -1.24078085489810     -1.45950303877129
  C   -0.77238270353331      1.44337643740103      0.42855956549106
  H   -1.78458483007669      1.58279514155466      0.80792508205138
  H   -0.72192593017583      1.81095351715520     -0.59839436299016
  H   -0.08102251115156      2.01646547615894      1.04672060012051
