15
Coordinates from ORCA-job run
  C   0.84032822366119     -0.40929101144725     -0.44336789265799
  C   -0.45235901913352     -0.04431101596801      0.31303846427885
  F   0.81551872793409      0.21217966613666     -1.67286216056123
  H   -0.53270961393039     -0.68422554967944      1.19838026517956
  C   1.99553065244769      0.10158968617310      0.31896025991668
  N   2.90650894047601      0.50883788532729      0.93887693462815
  C   1.04081919880232     -1.85762250273016     -0.62296772956242
  N   1.29842304458070     -3.00010528412474     -0.71205045076507
  N   -1.63249386476238     -0.43538186718711     -0.56200828713249
  O   -1.51012503561968     -1.45267801103443     -1.23516490002333
  O   -2.63190358017782      0.26911260461868     -0.49798873357531
  C   -0.51914314371730      1.42593289425540      0.67487972922537
  H   -1.47801387489459      1.64789305167301      1.13743291313608
  H   0.27389382891546      1.67447426972336      1.38077835127304
  H   -0.41327448458179      2.04459518426362     -0.21693676335988
