15
Coordinates from ORCA-job run
  C   0.82627433192701     -0.71783370869297     -0.23109687856544
  C   -0.45205156381005     -0.19645817569083      0.44006417134604
  F   0.69539062190114     -2.07625991869606     -0.42305343610502
  H   -0.53474643982545     -0.68967949749923      1.41038596811136
  C   1.12505589431544     -0.06946198369188     -1.51832941965130
  N   1.43369925227294      0.47432924587375     -2.51274949914710
  C   1.95059711677388     -0.47420452232175      0.69045299697124
  N   2.81566456755458     -0.26302297947872      1.45676732208042
  N   -1.63512954842476     -0.68259796575773     -0.34579640338509
  O   -1.63044071474166     -0.45195274190655     -1.55112301314670
  O   -2.52554157888210     -1.23466424309024      0.29168191907580
  C   -0.50401485801830      1.31509075828685      0.54783104734068
  H   0.33787948786668      1.68430716848966      1.13689304121041
  H   -1.42675969732541      1.61121043542752      1.04957089801330
  H   -0.47687687158394      1.77019812874817     -0.44349871414860
