15
Coordinates from ORCA-job run
  C   0.89094805674559     -0.28362056519018     -0.45711301867125
  C   -0.39903223051680     -0.04736205886434      0.35446762435320
  F   0.93274233682630      0.56562307981718     -1.53726649390294
  H   -0.36846999721268     -0.69504073731151      1.23301173721065
  C   2.04283840663264      0.00234327332243      0.41655028557140
  N   2.93606301383310      0.24596062083047      1.13958836584983
  C   0.97634725030427     -1.67145879042513     -0.94165178055331
  N   1.04142865969382     -2.77981943009805     -1.32590759817606
  N   -1.55409898413329     -0.55547855732285     -0.46485543108508
  O   -1.94222841875081      0.16086105492071     -1.38295248293413
  O   -2.00192372346141     -1.65731348537670     -0.15500735114752
  C   -0.59795789555088      1.41152227235524      0.70911427205129
  H   0.21377837041032      1.75502694250449      1.35306247016491
  H   -1.53782968666846      1.52904255819609      1.25076061082376
  H   -0.63260515815171      2.02071382264215     -0.19180120955473
