15
Coordinates from ORCA-job run
  C   0.77966723313637     -0.79851868421488     -0.10097509071009
  C   -0.48243414445289     -0.10982944829139      0.43615550437552
  F   0.55678185979310     -2.15742901175530     -0.13181649305301
  H   -0.64206930079376     -0.46825503044030      1.45490786241681
  C   1.18079649879058     -0.33584516775499     -1.43966760840480
  N   1.57408001450501      0.06295770868019     -2.47219197012496
  C   1.87970404092099     -0.51900918467425      0.83995797588023
  N   2.72797557519128     -0.27541063262776      1.61542058733102
  N   -1.66843070160304     -0.60467631565297     -0.34037767107626
  O   -2.65024357715690     -0.93100894796789      0.31800799984543
  O   -1.57323814482522     -0.60092684011110     -1.56352713882255
  C   -0.42705529361283      1.40364451978660      0.35586839876353
  H   -1.34428041088047      1.82149326120186      0.77384542028048
  H   -0.32765394310460      1.72859519969648     -0.68112617011884
  H   0.41640029409238      1.78521857412570      0.93451839341743
