15
Coordinates from ORCA-job run
  C   0.82346971847775     -0.73419802672269     -0.20279810881140
  C   -0.46755003315064     -0.19010890444999      0.42361124254409
  F   0.68101931361021     -2.09107800225824     -0.39025034068830
  H   -0.58936850852140     -0.67473105944790      1.39437333403366
  C   1.17481826166813     -0.09439212248555     -1.48089366540663
  N   1.52820444152734      0.44685270391890     -2.46165233067855
  C   1.92038059627822     -0.50059744408578      0.75389424617138
  N   2.76609548194614     -0.29927815198922      1.54400057208475
  N   -1.63728611672594     -0.65768224557952     -0.39364778150509
  O   -2.60330092851841     -1.07582527976577      0.23558191193312
  O   -1.54923717840836     -0.54164223702143     -1.61179918221998
  C   -0.50167612511097      1.32296106462407      0.52395359312651
  H   -0.43847210401568      1.77438181256110     -0.46800222334339
  H   -1.43491591995866      1.63208069536881      0.99766082912605
  H   0.32781910090226      1.68325719733321      1.13596790363379
