15
Coordinates from ORCA-job run
  C   1.06452906640313     -0.29380639139213      0.00066685455834
  C   -0.35193125184047     -0.01019363505566      0.53291810057900
  F   1.92346601812719      0.35591837811244      0.87447047274785
  H   -0.38409909161701     -0.37716758178107      1.56224350279149
  C   1.38029119416352     -1.72914168630544      0.04381679693433
  N   1.64775691929533     -2.86762917378602      0.15475135758829
  C   1.28458557061071      0.25891977902379     -1.34296958598401
  N   1.48812945887564      0.76865532050408     -2.38139783791173
  N   -1.36427142755677     -0.81698021746137     -0.22314617446223
  O   -1.01718370831100     -1.30743064397641     -1.29681091979426
  O   -2.47563845060563     -0.88939641544930      0.28614620535136
  C   -0.72876406473328      1.45772267324361      0.45663567315198
  H   -0.79821901512089      1.78566393283622     -0.58265807465069
  H   0.02317160505043      2.05699666353236      0.97054054847636
  H   -1.69282282274091      1.60686899795491      0.94279308062393
