15
Coordinates from ORCA-job run
  C   0.93142678193891     -0.58964758508296     -0.06943383056670
  C   -0.52405165682762     -0.23371839375818      0.28369394292688
  F   1.48303960912469     -1.08844767825167      1.10106113486402
  H   -0.99254078697436     -1.14713187920772      0.65956010613052
  C   0.99817226354710     -1.64919701593770     -1.08665542920646
  N   1.04083553510707     -2.54152226115367     -1.84933462466756
  C   1.71793386499313      0.58357945064625     -0.47508439061346
  N   2.36856675396671      1.52906017412280     -0.72498575809971
  N   -1.28495065062424      0.14025682662298     -0.95249840009138
  O   -2.50418293928862      0.16551060719187     -0.84016752191580
  O   -0.63613139559009      0.42453067959164     -1.95844684581415
  C   -0.62773760845149      0.89648897317657      1.29093296305947
  H   -0.25339389882243      1.82966101752747      0.86477553560001
  H   -0.04571770906678      0.65135814832198      2.17972468837568
  H   -1.67126816303199      1.02821893619035      1.57685843001864
