15
Coordinates from ORCA-job run
  C   0.88828601547978     -0.48063887588618     -0.33005618813943
  C   -0.31470575241486      0.19519560313156      0.35039826934399
  F   0.62744466671250     -0.72548061378473     -1.65560358398795
  H   -0.01170434520257      0.51407760755775      1.35112140576083
  C   2.02283923074536      0.46062361156987     -0.24996432435388
  N   2.89983239320766      1.23896371400288     -0.17922649319558
  C   1.26734984713056     -1.73273275015999      0.34606111948403
  N   1.60477885958811     -2.69698057737556      0.92570826221477
  N   -1.42586212213385     -0.79413510012457      0.57137252709213
  O   -1.45709090163924     -1.79571768802844     -0.13780870184895
  O   -2.24530686438413     -0.47628426927678      1.42624932158869
  C   -0.86218120512066      1.35851397077643     -0.46016840511712
  H   -1.22089272488809      1.00811266198465     -1.42816220545773
  H   -1.68591509337605      1.81714480595276      0.08690196839344
  H   -0.08687200370453      2.11033789966033     -0.61682297177724
