15
Coordinates from ORCA-job run
  C   0.87953916056040     -0.66504203121194      0.06071924929663
  C   -0.55047684790072     -0.14487898878235      0.29272665340009
  F   1.35071295751924     -1.01911556124125      1.31626817210365
  H   -1.10649720805627     -0.94941879695751      0.78114623069111
  C   0.88791042155903     -1.87128170458627     -0.78009587255389
  N   0.87946164029772     -2.87222896264232     -1.39478182669516
  C   1.77461793066491      0.36557448665077     -0.48366618575193
  N   2.50918207604071      1.20737604295740     -0.84618024804280
  N   -1.23851461096860      0.09380664149264     -1.01746996041591
  O   -0.53787921179482      0.16411742908301     -2.02635608175767
  O   -2.45374607495395      0.23551280543597     -0.96234710602254
  C   -0.58841352770069      1.13153791952624      1.11259417298127
  H   -1.62515303831257      1.38744397260135      1.33100407981397
  H   -0.05543230220892      0.98091419960008      2.05176258131827
  H   -0.12431136474549      1.95568254807419      0.56667614163494
