15
Coordinates from ORCA-job run
  C   0.81925569801992     -0.73824645873922     -0.17829382024843
  C   -0.46028197418860     -0.16355008181057      0.44596224667432
  F   0.67105308109239     -2.10290684559696     -0.29814296069021
  H   -0.56038088889980     -0.59776639344042      1.44245422736744
  C   1.14296588985986     -0.16450962713188     -1.49477957898002
  N   1.47148491978305      0.31922878935567     -2.51355142474527
  C   1.93619681249688     -0.46049855851818      0.74263180068691
  N   2.79805582172923     -0.22184474604895      1.50450708292946
  N   -1.63826314161057     -0.68461300613529     -0.32559615100221
  O   -1.61814598831557     -0.52027493464217     -1.54141302200170
  O   -2.53733170397958     -1.19954976632496      0.33030523774757
  C   -0.49603502452297      1.35191945291002      0.46340954565517
  H   -0.45414086998519      1.74700474687124     -0.55269475646082
  H   -1.41992160256447      1.68751013961638      0.93728329716737
  H   0.34448897108543      1.74609728963529      1.03791827590041
