15
Coordinates from ORCA-job run
  C   0.82040803707273     -0.73528847953594     -0.20406141409363
  C   -0.46268193805324     -0.18374239806737      0.43261329495448
  F   0.67316777376344     -2.09397128177249     -0.37663660190680
  H   -0.57140168565197     -0.65734099153283      1.41023830627305
  C   1.15656955997034     -0.10945447819203     -1.49339374240073
  N   1.49698102284906      0.42018635483582     -2.48506438642085
  C   1.92974758580111     -0.49378980303278      0.73644279909134
  N   2.78490865612498     -0.28508736171818      1.51447287865882
  N   -1.64031202347169     -0.66378926477039     -0.36559760941313
  O   -2.58314740631198     -1.11497568025453      0.27579342926556
  O   -1.57978377887859     -0.52654020439595     -1.58324566062611
  C   -0.49611607332981      1.33020901610933      0.51448716054895
  H   0.33948279304215      1.69800364821278      1.11309083905011
  H   -0.44381231137260      1.76894239342321     -0.48329786895427
  H   -1.42401021155394      1.64563853069135      0.99415857597321
