15
Coordinates from ORCA-job run
  C   1.05334098029558     -0.33019257922135      0.02276767699727
  C   -0.39097563703866     -0.09065776992007      0.49902044746661
  F   1.86123851786864      0.12002804857749      1.05625244511719
  H   -0.50765386449355     -0.62955670502854      1.44299880722010
  C   1.32897318527558     -1.76099115002683     -0.17436738970771
  N   1.55909197766842     -2.90938594074294     -0.26371730757255
  C   1.38708117913222      0.44371276596137     -1.18119453213894
  N   1.68041603101844      1.11921460566698     -2.09622596596695
  N   -1.36528611510847     -0.71406796562042     -0.45404715595421
  O   -2.51100912232509     -0.83717140933709     -0.03947488145601
  O   -0.95497586985898     -1.01592797433216     -1.57385121721362
  C   -0.72307754434328      1.38136278451312      0.65770032979888
  H   0.00486627673949      1.85227245278414      1.31892289352175
  H   -0.70739529987379      1.88825196650592     -0.30953651676390
  H   -1.71563469495655      1.48110887022038      1.09675236665208
