15
Coordinates from ORCA-job run
  C   1.08411367957900     -0.21353956032829     -0.00961940008785
  C   -0.35462960103847     -0.09119379951653      0.52417643813883
  F   1.88386889023267      0.40070577287463      0.94229124388058
  H   -0.36956076522177     -0.56393768723104      1.50979493126322
  C   1.50483610481270     -1.61861203202792     -0.11362141695015
  N   1.85168510007179     -2.74075260832415     -0.12792164107581
  C   1.27568859594146      0.49217933241171     -1.28440624263209
  N   1.44990759130093      1.11789728841323     -2.26310355794556
  N   -1.29731407272765     -0.88664428026694     -0.32774020250110
  O   -0.90654328555617     -1.23390709112496     -1.44147416653678
  O   -2.40393638727751     -1.09428042726496      0.15406146021593
  C   -0.83908855759888      1.34523865861880      0.59244049492263
  H   -0.92202514325179      1.77343555498443     -0.40875147433542
  H   -1.81652725386997      1.37195944446785      1.07404340658434
  H   -0.13947489539635      1.94145143431414      1.17883012705922
