15
Coordinates from ORCA-job run
  C   0.89908748842330     -0.59709569297938     -0.01983364606549
  C   -0.56016876127397     -0.17692395118646      0.27757385463316
  F   1.50686203642790     -0.82021967726702      1.20314667509101
  H   -1.10487652207607     -1.07613327066925      0.58021610925640
  C   1.01011058634294     -1.84429914900810     -0.79030981315035
  N   1.15521423658148     -2.88122432597944     -1.32313847620103
  C   1.61074193230256      0.49693124922170     -0.70168659444842
  N   2.15343381954357      1.39738119692847     -1.22596294484342
  N   -1.18835548037061      0.24978582954440     -1.02971251044760
  O   -1.74844400738911      1.33849851783531     -1.07331192347088
  O   -1.09067973610567     -0.55329645996392     -1.95466337155017
  C   -0.64083361893895      0.91527256021608      1.31918261516874
  H   -0.20849457952062      0.55849847162070      2.25327804539470
  H   -1.68306639880490      1.18016238123540      1.49138426066826
  H   -0.11153099514184      1.81166232045152      0.99383771996508
