15
Coordinates from ORCA-job run
  C   0.77683449518314     -0.80512886732948     -0.06255756647171
  C   -0.48257501658784     -0.08624167703536      0.44076286622022
  F   0.54787938550482     -2.16320562155039     -0.02753358345614
  H   -0.64196287941750     -0.39344869937759      1.47616402066025
  C   1.17915627456350     -0.40859360328565     -1.42173015070649
  N   1.57304944602022     -0.05743714919295     -2.47128897151451
  C   1.87857423828981     -0.48615004268126      0.86357482675976
  N   2.72762600926748     -0.21071899022311      1.62746988975411
  N   -1.67023880624362     -0.61571194157454     -0.30985173050263
  O   -1.57466203091389     -0.67422960940367     -1.53157826597698
  O   -2.65312516571867     -0.90521413328111      0.36393885940138
  C   -0.42246198667945      1.42119497048469      0.28648812014017
  H   -0.31562975033900      1.69555827862475     -0.76460974174711
  H   -1.34117110014422      1.86127477655176      0.67798293432227
  H   0.41870688721523      1.82805230927392      0.85176849311743
