14

C	-0.595508	0.045934	-1.52624
C	0.112639	0.152085	-0.154633
Cl	0.022621	-1.305141	-2.466282
H	1.184842	0.204574	-0.346778
H	-0.224544	1.110295	0.266893
C	-2.040298	-0.089553	-1.375845
N	-3.201137	-0.208134	-1.238331
N	-0.324926	1.358755	-2.270003
O	-1.10087	2.276328	-2.010903
O	0.682538	1.438993	-2.957129
N	-0.165074	-1.008811	0.629886
H	-0.720419	-0.755207	1.43805
H	0.808563	-1.322929	0.974768
H	2.267638	-1.340006	1.23963
