14

C	-0.56339	0.076836	-1.533408
C	0.13017	0.13339	-0.15231
Cl	0.054272	-1.248425	-2.509917
H	1.211927	0.186174	-0.331747
H	-0.20429	1.079811	0.297141
C	-2.010834	-0.051733	-1.403302
N	-3.174549	-0.163613	-1.285892
N	-0.275254	1.410873	-2.232098
O	-1.043751	2.32687	-1.946664
O	0.736478	1.503908	-2.911239
N	-0.162331	-1.050264	0.59134
H	-0.720756	-0.818226	1.403908
H	0.807284	-1.383544	0.932692
H	2.2616	-1.419492	1.206268
