14

C	-0.619507	0.032351	-1.516054
C	0.047637	0.144171	-0.160392
Cl	-0.51909	1.569409	-2.451472
H	1.119755	0.305847	-0.298446
H	-0.375638	1.02626	0.332542
C	-0.07536	-1.043816	-2.334259
N	0.407952	-1.843474	-3.046162
N	-2.118403	-0.222827	-1.313597
O	-2.675404	0.48484	-0.485354
O	-2.651781	-1.081459	-2.005659
N	-0.148236	-1.120394	0.498056
H	0.831631	-1.335142	0.905193
H	-0.787872	-1.00564	1.27668
H	2.243387	-1.146043	1.284831
