16

C	0.0	0.0	0.0
C	-0.505234	0.073395	-1.448644
Cl	1.775846	0.0	0.0
H	-1.603347	-0.00661	-1.373583
N	-0.575648	1.214532	0.712026
O	-0.344164	1.24548	1.941429
O	-1.728681	1.504822	0.169855
N	-0.499821	-1.181059	0.597129
H	-1.535685	-1.090802	0.508098
H	-0.276231	-1.103719	1.588749
N	-0.046772	-1.1234	-2.237189
O	-0.769496	-2.114456	-2.175338
O	0.993671	-1.0328	-2.886172
C	-0.102407	1.2929	-2.130039
N	0.195151	2.255045	-2.734342
H	-2.782408	0.0	0.0
