15

C	0.0	0.0	0.0
C	-0.518779	0.158922	-1.436054
Br	1.954748	0.0	0.0
H	-1.615975	0.151159	-1.307171
C	-0.345128	1.209409	0.776054
N	-0.562693	2.122559	1.484083
N	-0.492917	-1.2318	0.535622
H	-0.232308	-1.312335	1.51248
H	-1.519495	-1.171627	0.484663
C	-0.138513	-1.003972	-2.253297
N	0.165364	-1.847835	-3.013573
N	-0.119135	1.430972	-2.004504
H	-0.818216	1.742887	-2.664705
H	0.774022	1.355445	-2.474034
Br	-3.667531	0.0	0.0
