15

C	0.0	0.0	0.0
C	-0.528441	0.143438	-1.42223
Cl	1.777583	0.0	0.0
H	-1.60909	-0.054481	-1.355295
H	-0.289157	-0.984546	0.369384
N	-0.504387	1.114713	0.766001
H	-0.244658	0.98523	1.737347
H	-1.527339	1.04273	0.713449
N	-0.016672	-0.989319	-2.286164
O	0.061984	-2.099864	-1.762258
O	0.191923	-0.753991	-3.471905
N	-0.170902	1.403329	-1.993927
H	-0.892834	1.709593	-2.631106
H	-0.109523	2.065252	-1.227637
Br	-3.722053	0.0	0.0
