15

C	0.0	0.0	0.0
C	-0.505638	-0.126076	-1.443328
Cl	1.816791	0.0	0.0
H	-1.570655	-0.372131	-1.357315
H	-0.264021	-0.915553	0.535174
N	-0.503998	1.218477	0.561115
H	-1.527006	1.142482	0.495532
H	-0.273182	1.236915	1.549118
N	0.146598	-1.350875	-2.039659
O	-0.118048	-2.416392	-1.483155
O	0.906016	-1.221889	-2.993252
N	-0.328333	1.002214	-2.29035
H	-1.072339	1.658019	-2.086242
H	0.558079	1.454339	-2.097251
Br	-3.69152	0.0	0.0
