15

C	0.0	0.0	0.0
C	-0.513961	-0.1867	-1.414412
Cl	1.849848	0.0	0.0
H	-1.601514	-0.318648	-1.290453
H	-0.264356	-0.86339	0.603978
N	-0.541788	1.16372	0.506731
H	-0.49944	1.310879	1.497549
H	-0.464034	1.975024	-0.080114
N	0.023133	-1.510568	-1.953128
O	0.580774	-1.506933	-3.051022
O	-0.147675	-2.502578	-1.25231
N	-0.213194	0.924495	-2.243291
H	-0.841559	0.956321	-3.033307
H	0.740073	0.870955	-2.579392
Br	-3.910528	0.0	0.0
