15

C	-0.521462	0.001907	-1.456384
C	0.0	0.0	0.0
Cl	0.02413	-1.462358	-2.348667
H	1.100164	0.0	0.0
C	-1.990051	0.015437	-1.45156
N	-3.164562	0.042228	-1.435611
C	-0.039966	1.184715	-2.173909
N	0.322997	2.14208	-2.750359
N	-0.560612	-1.170562	0.679319
H	-0.143411	-2.004237	0.275808
H	-0.206103	-1.128356	1.631336
N	-0.470907	1.226544	0.594095
H	0.247169	1.631393	1.17875
H	-1.320723	1.065028	1.121391
Cl	3.362472	0.0	0.0
