15

C	-0.478266	0.001831	-1.468857
C	0.0	0.0	0.0
Cl	-2.284924	0.106754	-1.545365
H	1.101408	0.0	0.0
C	0.050767	1.167588	-2.176039
N	0.444012	2.110353	-2.755697
C	-0.092409	-1.229736	-2.161168
N	0.199461	-2.239236	-2.686978
N	-0.535389	-1.190448	0.668739
H	-0.144205	-1.164123	1.606464
H	-0.121802	-2.01627	0.238912
N	-0.446196	1.218304	0.619839
H	-1.316542	1.06175	1.113339
H	0.267708	1.558731	1.249909
Cl	3.323588	0.0	0.0
