15

C	-0.480689	0.110763	-1.464009
C	0.0	0.0	0.0
Cl	-2.285199	0.024141	-1.543815
H	1.105347	0.0	0.0
C	-0.085494	1.387827	-2.065077
N	0.204462	2.432925	-2.517647
C	0.040632	-1.002618	-2.257611
N	0.419276	-1.903103	-2.909068
N	-0.446686	-1.262123	0.526749
H	-1.306834	-1.137455	1.04694
H	0.274539	-1.652417	1.11831
N	-0.53376	1.134431	0.761388
H	-0.148635	1.992593	0.37674
H	-0.113799	1.054689	1.683332
Cl	3.320479	0.0	0.0
