16

C	0.0	0.0	0.0
C	-0.573345	-0.038356	-1.400942
Br	1.948355	0.0	0.0
H	-1.664228	-0.116557	-1.255196
H	-0.279747	-0.92385	0.502732
C	-0.504639	1.209259	0.761409
H	-0.179588	2.128232	0.274034
H	-0.134806	1.189433	1.78884
H	-1.59726	1.162464	0.765111
N	-0.169722	-1.370462	-2.056587
O	0.279837	-1.333323	-3.202382
O	-0.342785	-2.394422	-1.404111
N	-0.24108	1.088659	-2.192059
H	-0.828513	1.124973	-3.012975
H	0.726713	1.04801	-2.484881
Cl	-3.743262	0.0	0.0
