16

C	0.0	0.0	0.0
C	-0.404398	0.032685	-1.491005
Br	1.956117	0.0	0.0
H	0.137996	-0.764823	-2.000415
H	-0.281442	-0.996366	0.34856
C	-0.585777	1.049804	0.918321
H	-0.258326	2.050704	0.645862
H	-1.677279	0.993211	0.85615
H	-0.291444	0.839591	1.948701
N	0.151871	1.288292	-2.151192
O	-0.254997	2.369543	-1.735385
O	0.929589	1.139367	-3.092819
N	-1.781009	-0.038422	-1.812851
H	-2.068834	-0.984575	-2.010797
H	-2.444976	0.330974	-1.130352
Cl	-4.348943	0.0	0.0
