16

C	0.0	0.0	0.0
C	-0.402323	-0.242144	-1.470391
Br	1.953544	0.0	0.0
H	0.126442	-1.129957	-1.819741
H	-0.282291	-0.914198	0.527094
C	-0.584993	1.203635	0.705669
H	-0.286976	1.192181	1.756274
H	-1.67714	1.137636	0.659638
H	-0.259265	2.134499	0.247447
N	0.189168	0.854814	-2.357185
O	-0.167593	2.009733	-2.144063
O	0.937664	0.502818	-3.267806
N	-1.778343	-0.338972	-1.773002
H	-2.446315	0.099025	-1.136315
H	-2.07279	-1.294311	-1.901086
Cl	-4.34639	0.0	0.0
