17

C	-0.400416	-0.167374	-1.463805
C	0.0	0.0	0.0
F	-0.192873	-1.522143	-1.768588
H	1.092925	0.0	0.0
H	-0.362746	-0.86027	0.570909
C	-1.862736	0.109178	-1.761663
H	-2.495934	-0.498712	-1.11038
H	-2.057696	-0.154797	-2.80224
H	-2.113886	1.161645	-1.608914
N	0.439118	0.570293	-2.383571
H	0.24485	1.560306	-2.288357
H	1.409587	0.431433	-2.100183
C	-0.477391	1.306773	0.625164
H	-0.166598	2.165991	0.02249
H	-1.564556	1.34658	0.74569
H	-0.021484	1.433024	1.609954
Br	3.714732	0.0	0.0
