13

C	-0.414826	0.014519	-1.471182
C	0.0	0.0	0.0
Br	-2.366478	0.18939	-1.674053
H	1.096767	0.0	0.0
H	0.012471	0.884621	-1.973682
C	-0.006199	-1.206283	-2.152733
N	0.31111	-2.186056	-2.716861
N	-0.449311	-1.207701	0.664978
H	0.268273	-1.508002	1.312419
H	-1.317866	-1.065299	1.162069
C	-0.43632	1.241011	0.654366
N	-0.793878	2.207998	1.218815
Br	3.378338	0.0	0.0
