13

C	-0.413754	0.017277	-1.470835
C	0.0	0.0	0.0
Br	-2.366623	0.193113	-1.673225
H	1.096678	0.0	0.0
H	0.01336	0.888729	-1.971572
C	-0.006704	-1.202269	-2.15431
N	0.308747	-2.183926	-2.716264
N	-0.450139	-1.209202	0.662012
H	-1.319413	-1.06823	1.1583
H	0.266534	-1.509457	1.309585
C	-0.435531	1.239983	0.65722
N	-0.78927	2.206754	1.224274
Br	3.378643	0.0	0.0
