13

C	-0.553422	0.00332	-1.431943
C	0.0	0.0	0.0
Br	0.111703	-1.539308	-2.428988
H	1.100557	0.0	0.0
H	-1.636353	-0.132171	-1.379831
C	-0.242341	1.218371	-2.174671
N	-0.01241	2.183672	-2.803418
N	-0.525022	-1.192912	0.692022
H	0.121592	-1.944814	0.471196
H	-0.423059	-1.034013	1.689486
C	-0.502875	1.200773	0.669032
N	-0.937468	2.143105	1.2199
Br	3.430824	0.0	0.0
