13

C	-0.542043	-0.025917	-1.439987
C	0.0	0.0	0.0
Br	0.196859	-1.522741	-2.440815
H	1.094142	0.0	0.0
H	-1.619924	-0.204744	-1.408368
C	-0.292776	1.209862	-2.171608
N	-0.110075	2.193232	-2.786303
N	-0.431668	-1.198758	0.70666
H	0.316059	-1.491193	1.32588
H	-1.266633	-1.026289	1.253478
C	-0.480318	1.229985	0.64829
N	-0.919899	2.160156	1.217953
Br	3.431035	0.0	0.0
