13

C	-0.414448	0.003499	-1.470493
C	0.0	0.0	0.0
Br	-2.367626	0.173127	-1.675287
H	1.096747	0.0	0.0
H	0.01099	0.870733	-1.979734
C	-0.003485	-1.221195	-2.143655
N	0.3207	-2.202502	-2.701911
N	-0.449946	-1.204041	0.67325
H	-1.316842	-1.055926	1.170604
H	0.267053	-1.496652	1.325603
C	-0.436337	1.245306	0.64594
N	-0.793023	2.217621	1.201725
Br	3.380346	0.0	0.0
