13

C	-0.333326	0.008663	-1.505049
C	0.0	0.0	0.0
Br	-2.266414	0.207755	-1.840658
H	1.098205	0.0	0.0
H	0.145501	0.86221	-1.989657
C	0.089893	-1.23433	-2.136327
N	0.418076	-2.24238	-2.643053
N	-0.456439	-1.147828	0.747803
H	-1.384645	-1.436922	0.464959
H	0.200123	-1.906759	0.618165
C	-0.476497	1.247033	0.604316
N	-0.871113	2.247532	1.075891
Br	3.379569	0.0	0.0
