13

C	-0.499485	-0.002592	-1.466066
C	0.0	0.0	0.0
Br	0.133166	-1.590434	-2.408558
H	1.095264	0.0	0.0
H	-1.591865	-0.078959	-1.476943
C	-0.115118	1.187672	-2.214231
N	0.16573	2.135365	-2.849837
N	-0.414142	-1.152139	0.775626
H	-1.327032	-1.492728	0.49867
H	0.271582	-1.884483	0.649583
C	-0.521821	1.228077	0.615772
N	-1.007425	2.194093	1.075759
Br	3.4088	0.0	0.0
