11

C	0.0	0.0	0.0
C	-0.548507	0.049873	-1.399624
Cl	1.792511	0.0	0.0
H	-0.244623	-0.860581	-1.943676
H	-0.34879	-0.892169	0.512009
H	-0.339721	0.878781	0.538584
H	-1.642923	0.036984	-1.172873
N	-0.151319	1.289496	-2.075446
H	0.770936	1.187505	-2.484672
H	-0.802966	1.465979	-2.829537
F	-2.835076	0.0	0.0
