11

C	0.0	0.0	0.0
C	-0.393064	0.013992	-1.50176
Cl	1.792202	0.0	0.0
H	0.109054	0.870576	-1.998042
H	-0.261464	0.893577	0.527746
H	-0.268942	-0.913962	0.484516
H	-1.460699	0.178591	-1.575531
N	-0.13661	-1.292126	-2.109168
H	0.850852	-1.396384	-2.291263
H	-0.638298	-1.319474	-2.99013
F	-2.078097	0.0	0.0
