13

C	-0.45429	-0.027578	-1.418337
C	0.0	0.0	0.0
F	-1.825944	0.001023	-1.55003
H	1.089672	0.0	0.0
H	-0.06053	-0.871732	-1.976028
H	-0.38118	0.862932	0.539806
N	0.049528	1.216271	-2.101499
O	0.82945	1.069219	-3.04009
O	-0.37932	2.287683	-1.676743
N	-0.418374	-1.204024	0.688914
O	-0.642782	-1.121264	1.903087
O	-0.408523	-2.268894	0.052818
H	2.574208	0.0	0.0
