13

C	-0.478691	-0.025331	-1.411105
C	0.0	0.0	0.0
F	-0.186195	-1.242493	-1.970781
H	1.090954	0.0	0.0
H	-0.073973	0.768146	-2.033004
H	-0.343552	-0.864447	0.56186
N	-1.988777	0.091192	-1.527357
O	-2.670071	-0.424289	-0.644585
O	-2.423577	0.62903	-2.544181
N	-0.441536	1.199825	0.670496
O	-0.749022	2.176587	-0.038498
O	-0.383526	1.225385	1.903904
H	2.584848	0.0	0.0
