13

C	-0.450531	-0.115636	-1.41409
C	0.0	0.0	0.0
F	-1.820872	-0.043683	-1.5564
H	1.089779	0.0	0.0
H	-0.090133	-1.014107	-1.90498
H	-0.371901	0.900531	0.48073
N	0.094791	1.050848	-2.194937
O	-0.196876	2.172626	-1.788139
O	0.752581	0.796293	-3.20089
N	-0.426017	-1.151947	0.767388
O	-0.440734	-2.25587	0.201499
O	-0.633122	-0.989094	1.976516
H	2.573243	0.0	0.0
