13

C	-0.583942	-0.400164	-1.322176
C	0.0	0.0	0.0
F	-1.296172	0.626306	-1.893079
H	1.090458	0.0	0.0
H	-1.208099	-1.289425	-1.25991
H	-0.279578	1.021247	0.249961
N	0.513471	-0.767532	-2.302219
O	0.891219	-1.932092	-2.24086
O	0.950555	0.108204	-3.037003
N	-0.427595	-0.866098	1.067274
O	-0.606602	-2.072338	0.815905
O	-0.446708	-0.387023	2.212827
H	2.484585	0.0	0.0
