13

C	-0.408531	0.13554	-1.430221
C	0.0	0.0	0.0
F	-0.23515	-1.068561	-2.064376
H	1.089692	0.0	0.0
H	0.132282	0.909779	-1.967815
H	-0.383741	-0.906065	0.459496
N	-1.878925	0.456276	-1.607845
O	-2.67361	-0.110926	-0.861241
O	-2.177536	1.205381	-2.53592
N	-0.427767	1.145362	0.766754
O	-0.577135	2.216023	0.151579
O	-0.505857	1.030223	1.993489
H	2.581333	0.0	0.0
