13

C	-0.421517	0.203975	-1.419405
C	0.0	0.0	0.0
F	-0.184883	-0.945799	-2.124091
H	1.092371	0.0	0.0
H	0.068943	1.041456	-1.908207
H	-0.375396	-0.934362	0.40701
N	-1.910157	0.447922	-1.560088
O	-2.271773	1.394651	-2.256187
O	-2.655062	-0.360798	-1.007019
N	-0.434461	1.092686	0.836939
O	-0.519293	0.894439	2.05447
O	-0.584254	2.201035	0.293648
H	2.573453	0.0	0.0
