15
Coordinates from ORCA-job run
  C   -0.57745044142015      0.07604510335998     -0.00965612649995
  C   0.76712361903274     -0.03276228812138     -0.05726631418375
  C   -1.49350920788265     -1.10015962242772      0.01972307309198
  H   -1.02394295385346     -1.96111654562772     -0.46042117703987
  H   -2.40463602906947     -0.85578405804868     -0.52669094924928
  H   -1.77340746480155     -1.37236740268698      1.04309325371963
  N   -1.20524595478069      1.39047109429154      0.09925829668894
  O   -0.70720473647374      2.20413071640125      0.87565497303034
  O   -2.22544661557700      1.56708306000147     -0.56558094794444
  N   1.63610764235058      1.14247394163889     -0.29390258008912
  O   1.22264245882610      2.01548444715776     -1.04667905275082
  O   2.73853133931176      1.11581054683506      0.25383365221679
  N   1.47458716254086     -1.20913299297362     -0.02390990143807
  H   2.46733348180128     -1.06698659773499      0.09495585668741
  H   1.10551769999541     -1.91018940206486      0.59958794376022
