15
Coordinates from ORCA-job run
  C   -0.57701218373094      0.09117892067848     -0.01880086091994
  C   0.74846708751937     -0.03612927216576      0.30602428256404
  C   -1.18916474748790      0.04101491612909     -1.38361336712758
  H   -1.58016082251719     -0.95306904494119     -1.61120266136904
  H   -2.02349123537697      0.74115293023353     -1.41573978627439
  H   -0.47184340490819      0.30895997278071     -2.15513641710411
  N   -1.52279178661840      0.24645344065482      1.06611067629424
  O   -2.71954303565579      0.16380745568993      0.78518863056510
  O   -1.10475353935068      0.44510378544488      2.21892321390026
  N   1.71047338191798     -0.36943837857154     -0.77635702748884
  O   1.32706291662425     -1.10843396569061     -1.67904907811526
  O   2.84772391882374      0.08451876378608     -0.65482186705660
  N   1.38269498608764      0.14707833518277      1.47688597844544
  H   0.81668545479761      0.29039036663191      2.29730180070632
  H   2.35665300987548     -0.09258822584309      1.54328648298035
