15
Coordinates from ORCA-job run
  C   -0.57456838029730     -0.00331706139817      0.08797901388918
  C   0.78711183010047      0.05762743766825      0.18526593333923
  C   -1.38337509859448     -0.38792226885027     -1.11038851750387
  H   -0.80820402396580     -0.30842009814251     -2.02890728465614
  H   -2.25111449405415      0.26780363650277     -1.17573573427031
  H   -1.74899667853206     -1.41379391168024     -1.02453937578294
  N   -1.35469014377611      0.32875679638530      1.26479783348998
  O   -2.57273469866912      0.15933182568691      1.19636850370974
  O   -0.77878569379067      0.75527664696543      2.27746425451191
  N   1.59005954057155     -0.35017082403371     -0.99377674185932
  O   2.58898059403059      0.33130124319449     -1.22507228936895
  O   1.23616253579878     -1.34195233728966     -1.62335632647381
  N   1.59702804327296      0.38446471602126      1.21780176348415
  H   1.14631886680142      0.84341906295658      1.99401110845555
  H   2.52680780110393      0.67659513601354      0.95908785903560
