15
Coordinates from ORCA-job run
  C   -0.57040446617872      0.03908828469380     -0.11189299165368
  C   0.79562668423050      0.01076557782126     -0.15086171410158
  C   -1.44520102137055     -0.07488715780994      1.09665017210531
  H   -0.93442915015754     -0.56742594988370      1.92011174586634
  H   -2.33258800487983     -0.64988769240409      0.83469906742780
  H   -1.77526574953611      0.90817751144188      1.44025569827145
  N   -1.27988338263561      0.22207036004832     -1.36369800872112
  O   -2.49962658305120      0.38050802407427     -1.30086106232535
  O   -0.64512195798708      0.21624127425189     -2.42968429761588
  N   1.52805695040733     -0.09267787042513      1.13591138835862
  O   2.53548301100196     -0.80014550341281      1.12682339705770
  O   1.11280386212678      0.55217966766079      2.09365571376637
  N   1.66398231438953      0.11343666006614     -1.18210425121801
  H   2.58423096109049     -0.25994124539191     -1.00720534159466
  H   1.26433653255005      0.00249805926923     -2.10079951562332
