15
Coordinates from ORCA-job run
  C   -0.57284808334991      0.08783086266194     -0.06025866229642
  C   0.76832185254448     -0.04711838680395      0.01144523398514
  C   -1.50875165543779     -1.07046826355997     -0.13853993520153
  H   -1.88638877443446     -1.35599301082699      0.84918355547077
  H   -2.36118220994618     -0.79842682321259     -0.76127462336373
  H   -1.01275775116614     -1.93170782974480     -0.59085805083515
  N   -1.18407209259032      1.41215874217571      0.01763754413750
  O   -2.13777415300172      1.62044867165216     -0.73146206709361
  O   -0.74184233703015      2.20252362503503      0.84996160079296
  N   1.67654799359358      1.11481209662527     -0.12011859287298
  O   1.35116863489885      2.00880443327839     -0.89139121480417
  O   2.72171756499996      1.05749764248686      0.52830159765499
  N   1.44863116112892     -1.23695501778324      0.08626534592562
  H   1.01087261866118     -1.94492263409987      0.65485814248403
  H   2.42935723112970     -1.11848410788396      0.29525012601659
