15
Coordinates from ORCA-job run
  C   -0.53649035329687      0.11587608307508      0.19417834005604
  C   0.73888504003188     -0.07341609965073     -0.20547582716529
  C   -1.39250429047366     -0.97368135282204      0.74505883099577
  H   -2.04905635696129     -0.55863844133628      1.51005109883303
  H   -0.77508604730023     -1.74836099517510      1.20433192627605
  H   -2.01836768322811     -1.43054771776327     -0.02908239965933
  N   -1.17717323387698      1.41746232207313      0.02147574190242
  O   -0.99884413225281      2.01099037664879     -1.04093472914309
  O   -1.89512054390235      1.80081272158110      0.94433602114327
  N   1.62224103634661      1.06283985013787     -0.55391590763738
  O   2.46193652893205      0.84388821610876     -1.42754304730750
  O   1.48956448029041      2.10369763833462      0.07769017022385
  N   1.39969957828800     -1.27665321381526     -0.22388868683634
  H   0.84206249765339     -2.06523282242904     -0.51292025491974
  H   2.28725347974998     -1.23103656496765     -0.70336127676176
