15
Coordinates from ORCA-job run
  C   -0.54921826679264      0.12319852511701      0.15178628997800
  C   0.75134323267477     -0.08456951547014     -0.14386732814078
  C   -1.47986982143031     -0.97085608160232      0.55262657140604
  H   -2.03165962062091     -1.37014254154152     -0.30523265382471
  H   -0.92913283406604     -1.78449543511513      1.02925696785208
  H   -2.20300598508787     -0.58030964173049      1.26879336939382
  N   -1.13337035733643      1.45452417098138      0.00977956624365
  O   -0.84074081966416      2.10793744214009     -0.99034044750262
  O   -1.92117728137727      1.80337843395084      0.88812878606504
  N   1.69560316483235      1.03901458296945     -0.33861966995440
  O   2.60223215201368      0.84606554708159     -1.14916014890756
  O   1.53848770822839      2.04195850549484      0.34638596630731
  N   1.37633857858650     -1.30655139117496     -0.17897311106725
  H   2.30265826734839     -1.26273469427373     -0.57871430236592
  H   0.82251188269154     -2.05741790682690     -0.56084985548271
