15
Coordinates from ORCA-job run
  C   -0.58004494969075      0.04347001569657      0.02515015874059
  C   0.75997449227532     -0.05276163003050      0.27570464244629
  C   -1.26363153549639     -0.05675865047453     -1.30205150164821
  H   -1.69025018610828     -1.05119158885162     -1.45214298518788
  H   -2.08154488567157      0.66228181286145     -1.33134208366435
  H   -0.58237814329610      0.14739989166802     -2.12394641274001
  N   -1.46780704079881      0.24912947419690      1.15358586945256
  O   -0.98515775845314      0.44911551308315      2.27885925860810
  O   -2.67842029961796      0.20816426036026      0.93095019034899
  N   1.66343909986705     -0.33947645151034     -0.86631887988461
  O   2.73914661144868      0.25923589840822     -0.86449572775121
  O   1.30320877849603     -1.16605209848404     -1.69838525381009
  N   1.46276913582247      0.01492179320244      1.42895023006267
  H   2.43872948188974      0.24585875386323      1.32411808718385
  H   0.96196719933369      0.38566300601079      2.22136440784331
