15
Coordinates from ORCA-job run
  C   -0.57336208539987      0.08164126169013     -0.06104677753785
  C   0.76916131065884     -0.04002861341066      0.00966356508457
  C   -1.49907154995606     -1.08548217358754     -0.12747365585261
  H   -1.87344895562814     -1.36438755931045      0.86337453070266
  H   -0.99579701586747     -1.94667558222210     -0.57169493573372
  H   -2.35426261781629     -0.82687098974724     -0.75217140888293
  N   -1.19767024895928      1.40057805289308      0.01023121193984
  O   -0.76634386490232      2.19820922647219      0.84117253648671
  O   -2.15123208604881      1.59606669758589     -0.74251819771678
  N   1.66565083031266      1.12990830814446     -0.13235997333536
  O   1.32570569061585      2.01904305079246     -0.90295739558161
  O   2.71666853718182      1.08398386242931      0.50750940581709
  N   1.46069644601964     -1.22292377984431      0.09240535246885
  H   2.44107735084451     -1.09314078660326      0.29638155249181
  H   1.03222825894493     -1.92892097528197      0.67048418964933
