15
Coordinates from ORCA-job run
  C   -0.55654545254120      0.08843418902506      0.04931625339540
  C   0.77126119286273     -0.08148478575594     -0.09385086865146
  C   -1.56206859914355     -1.00926614191510      0.00879822726049
  H   -1.99345917499048     -1.16995112184194      1.00158629237504
  H   -1.09937377090755     -1.93074701331379     -0.34040975706935
  H   -2.37154340520979     -0.72390064956541     -0.66862221506593
  N   -1.16144546369235      1.39760474927993      0.31352474038967
  O   -1.27100330887981      1.72068275175306      1.49141205005310
  O   -1.57006787985705      2.01529721296473     -0.66440620749978
  N   1.68232740927757      1.08343215411056     -0.21610892168714
  O   1.25458710008845      2.19321615303088      0.08050632452412
  O   2.81260832309937      0.83776385909887     -0.63746460898510
  N   1.35736495752078     -1.33532594323408     -0.24672614787348
  H   2.25479166784324     -1.25664429089728     -0.70728392693843
  H   1.45156640452966     -1.83111112273956      0.62972876577286
