15
Coordinates from ORCA-job run
  C   -0.57802364632086      0.07600249267963      0.00376708951731
  C   0.76447435638147     -0.03660159664088     -0.08119540101960
  C   -1.48709709773781     -1.09550234248850      0.16224981317628
  H   -1.03652760254116     -1.98956534600869     -0.27380224611412
  H   -1.71864793214506     -1.29164568989320      1.21474626769533
  H   -2.42319335710219     -0.89366040205101     -0.35860640556104
  N   -1.20660636547138      1.39431749335380      0.02544861409717
  O   -0.68489976188830      2.27004671018865      0.71375877859719
  O   -2.24953116037291      1.51436780431906     -0.61637645534121
  N   1.62208450259180      1.11465916178138     -0.44231317891874
  O   1.18110264302253      1.92469490522309     -1.24810001223733
  O   2.74256842905720      1.13246944616078      0.06807564206655
  N   1.47587619878273     -1.20627131695916      0.02291276410973
  H   1.12703972174930     -1.85754485638655      0.70886407765492
  H   2.47138107199465     -1.05476646327839      0.09957065227757
