15
Coordinates from ORCA-job run
  C   -0.56143385077199      0.09432468529977      0.12562485944570
  C   0.76079766282988     -0.05517105210973     -0.10161748771693
  C   -1.49365875530379     -1.05420402802819      0.31379425499043
  H   -1.98501101514516     -1.33760749804089     -0.62321376480427
  H   -2.26608981068050     -0.77297820301090      1.02977039015636
  H   -0.95622112555921     -1.91932190245550      0.70771126948034
  N   -1.16235384614750      1.42573799738116      0.12087932517215
  O   -2.01689010740988      1.64399466211241      0.97891519580744
  O   -0.81413313486143      2.21181450061477     -0.75868307877100
  N   1.69169183011883      1.09580438387453     -0.07611461314690
  O   2.65635251063250      1.02518663741654     -0.83810407123678
  O   1.46635469594159      1.99436717093651      0.72497036526193
  N   1.41275970563810     -1.25336505420098     -0.25559461791716
  H   2.36469489165405     -1.14661570910523     -0.57495881751479
  H   0.90414034906451     -1.95296659068427     -0.77337920920652
