15
Coordinates from ORCA-job run
  C   -0.57316462298690      0.02991470662214      0.09670346383662
  C   0.79127363593592      0.01924264581866      0.17372684278125
  C   -1.41206513228586     -0.05491957272482     -1.13941296320083
  H   -2.28534820887405     -0.67162784865332     -0.93021521478427
  H   -0.86285299167101     -0.48822419672405     -1.97121468745233
  H   -1.76729707699215      0.93251950155244     -1.44317205755433
  N   -1.32184476421050      0.14836108642601      1.33356545432196
  O   -2.54301302313311      0.27881523033397      1.24077581663712
  O   -0.71685490349009      0.12072723176646      2.41631065005421
  N   1.56039746900406     -0.02660594622150     -1.09449239034447
  O   1.17043853145957      0.65768687074943     -2.03532586387956
  O   2.56941759146248     -0.73187463398560     -1.08645170959183
  N   1.62927257513485      0.09705467087583      1.23212837441644
  H   1.20436608269803     -0.05216098474674      2.13400254906661
  H   2.55827483794875     -0.26090876108890      1.07207173569340
