15
Coordinates from ORCA-job run
  C   -0.57037152612587      0.11539117259789      0.02937946811891
  C   0.75647396818781     -0.05687643047851     -0.13377833540151
  C   -1.54392169863765     -1.01385764218812      0.07237116662824
  H   -1.73313206561510     -1.34107768505225      1.09863804323588
  H   -1.16045159895670     -1.85576728961888     -0.50839728209843
  H   -2.49967494888372     -0.70520643366142     -0.35397819799615
  N   -1.14206034016005      1.44387750937142      0.21600424882167
  O   -0.81844589454410      2.33670024628636     -0.56375588545932
  O   -1.96307820750269      1.54334176585760      1.12812475842219
  N   1.69990193651772      1.07854708985263     -0.14942571329539
  O   1.55592502242680      1.95721630169604      0.69245680468628
  O   2.59529559660806      1.01222324150364     -0.99025036782685
  N   1.36982244328439     -1.27697894837339     -0.33376295669364
  H   1.09275807831518     -2.01492096652046      0.29363767953569
  H   2.36295923508592     -1.22261193127254     -0.49626343067757
