15
Coordinates from ORCA-job run
  C   -0.57281843322105      0.10103637596044      0.02769457410482
  C   0.76241908311410     -0.05528653410432     -0.09470323516962
  C   -1.54487278573455     -1.02153469955742     -0.10859690117665
  H   -1.13211256973215     -1.80827706812725     -0.74332577721365
  H   -1.80942086373923     -1.45103778418250      0.86365982812996
  H   -2.45762080896825     -0.64778367969540     -0.57305358814913
  N   -1.13140458904828      1.40134025848838      0.38929510337791
  O   -0.56844083358658      2.04439892808781      1.27385505782572
  O   -2.16336845322231      1.73479526299939     -0.19198431392031
  N   1.67953090733085      1.10511453528401     -0.16068642163534
  O   1.28307427662599      2.11418543097924     -0.73034804143980
  O   2.79830157195688      0.93575541821248      0.32497269426516
  N   1.41188786488242     -1.24837719326697     -0.29287122061763
  H   1.03059235545178     -2.03137557474106      0.21480036878405
  H   2.41425327789037     -1.17195367633683     -0.19770812716548
