15
Coordinates from ORCA-job run
  C   -0.57104045814003      0.10865058328380      0.02646930850410
  C   0.76215159005304     -0.06541111925819     -0.09339132593819
  C   -1.56054898104534     -0.99489011570013     -0.13628940440668
  H   -1.83868011986481     -1.43670390784218      0.82661768347502
  H   -2.46413737006112     -0.59787460862945     -0.59933848615028
  H   -1.15697890927038     -1.77713250997041     -0.78230524913874
  N   -1.11094401382912      1.40954309251910      0.41387721572313
  O   -0.54485050639883      2.02198738188477      1.31795234677247
  O   -2.13304624452419      1.77348094929129     -0.16656642210087
  N   1.69675740757778      1.08262264448436     -0.13014917895423
  O   1.31672148936489      2.11043343225430     -0.67695229760307
  O   2.81149811569861      0.88520779578164      0.35407889676198
  N   1.39493755758359     -1.26342403631822     -0.31422450603588
  H   1.00112505924330     -2.05104911212215      0.17636928445699
  H   2.39803538361260     -1.20344046965853     -0.21514786536577
