15
Coordinates from ORCA-job run
  C   -0.56816824406042      0.08577117592427      0.09927391750100
  C   0.76578173631488     -0.04613221515415     -0.06011168482927
  C   -1.50008838377560     -1.07569689591395      0.17809273920394
  H   -0.98143188617052     -1.95430710578324      0.56728895275840
  H   -1.92923864092435     -1.32044388898628     -0.79951440124912
  H   -2.31840253523023     -0.83121106920773      0.85555594439685
  N   -1.17909276336382      1.41236328381366      0.12193093871850
  O   -2.08335585762270      1.58494216127835      0.93838284668019
  O   -0.78775737204722      2.24095142366904     -0.69849184146732
  N   1.68468536777134      1.10739864552855      0.07058550412262
  O   1.40823807051144      1.96611525510742      0.89887955258205
  O   2.69030143334730      1.07793616899623     -0.63930498593857
  N   1.43568370598320     -1.23224312792050     -0.23118941700098
  H   0.96180625612392     -1.91079027126637     -0.80679436129170
  H   2.40203911314277     -1.10365354008528     -0.49458370418661
