15
Coordinates from ORCA-job run
  C   -0.57846561942008      0.07632334483032      0.00554388158313
  C   0.76394410912564     -0.03605622243585     -0.08270076577016
  C   -1.48723777356096     -1.09570107482096      0.16100161035348
  H   -2.42598693290915     -0.88978883661615     -0.35337428459600
  H   -1.71286513132084     -1.29970861664433      1.21330938100893
  H   -1.03814734541533     -1.98644766358401     -0.28340956879067
  N   -1.20616684142490      1.39480085267386      0.03447173712582
  O   -0.68418419058228      2.26657473751894      0.72757268150585
  O   -2.24910600315587      1.51889211512592     -0.60670170597337
  N   1.62169802428983      1.11599141251472     -0.44228583516188
  O   1.17767924480269      1.93182177753189     -1.24040408048380
  O   2.74572824067403      1.12748379461454      0.06056835894232
  N   1.47326710658941     -1.20675217060551      0.01803686147104
  H   2.47032579100553     -1.06061875494736      0.08173503300383
  H   1.12951732130230     -1.85781469515602      0.70663669578146
