15
Coordinates from ORCA-job run
  C   -0.56717428199191      0.09305152474368      0.09455481419625
  C   0.76623709168836     -0.05767271772195     -0.05234100991715
  C   -1.51697891082641     -1.05348069364044      0.17667534492802
  H   -1.95789887739747     -1.28755084968707     -0.79823973247665
  H   -1.00960180420684     -1.94156489887307      0.55888204457712
  H   -2.32595439349594     -0.79718329157269      0.86104532898975
  N   -1.16154981250085      1.42765830517706      0.09521190995331
  O   -2.07231039812413      1.62090228506801      0.89977889887632
  O   -0.75118573133377      2.24158103869544     -0.73057648048511
  N   1.69874920157446      1.08527326045640      0.07958531095255
  O   1.42238827380574      1.95617650216480      0.89499871253223
  O   2.71379201859270      1.03471552869763     -0.61562797640841
  N   1.42118319556994     -1.25421423215142     -0.20926476554452
  H   2.39265495859893     -1.13989169786079     -0.46016303166350
  H   0.94664947004719     -1.92580006349560     -0.79251936851022
