15
Coordinates from ORCA-job run
  C   -0.57303503358096      0.10138121695362      0.01103968760636
  C   0.76463769746468     -0.05849517593460     -0.07364209457527
  C   -1.54468345241121     -1.01940358934746     -0.14059130589596
  H   -1.84226447550116     -1.43461963526114      0.82821956068060
  H   -1.11511380430176     -1.81618617281921     -0.75119573631662
  H   -2.44031760281857     -0.64855217240902     -0.63959163900579
  N   -1.13823266564535      1.40629051618921      0.34656174103271
  O   -2.15042284342842      1.73920217995996     -0.26875665089266
  O   -0.60078226027401      2.05313389025075      1.24410667836078
  N   1.68517025051231      1.10098451925453     -0.12615560500685
  O   2.79186762480424      0.93372146861302      0.38700499703561
  O   1.30319452616679      2.10668488734114     -0.71137866431410
  N   1.41791490987667     -1.25357202309827     -0.24259296169626
  H   1.02505841217235     -2.03236706216077      0.26260616780539
  H   2.41800871696439     -1.17720284753177     -0.12663417481793
