15
Coordinates from ORCA-job run
  C   -0.57284783678837      0.09801567761440      0.03426637658263
  C   0.76092101474600     -0.05436322031040     -0.10660175777168
  C   -1.54001513909179     -1.03400978391199     -0.04616613483566
  H   -2.46361581680129     -0.68145838529885     -0.50571903214289
  H   -1.13444393682058     -1.83942037500139     -0.66183868180523
  H   -1.78370657850114     -1.43216350724979      0.94469236004539
  N   -1.13332106147743      1.40686754263471      0.36116753102632
  O   -2.17490499159875      1.71630525432362     -0.21623011704773
  O   -0.56158009565730      2.08090512511855      1.21647563374480
  N   1.66903889936879      1.10883723300170     -0.22780035310517
  O   1.25511154619207      2.09683849176099     -0.82149474151127
  O   2.79797993362974      0.96206255837843      0.24142515535505
  N   1.41489848158195     -1.24952627282007     -0.27596242340253
  H   1.04919992041305     -2.01670190572687      0.26619670604252
  H   2.41828566080506     -1.16318843251303     -0.20241052117454
