15
Coordinates from ORCA-job run
  C   -0.57721648946419      0.08247370746420      0.00938547461733
  C   0.76319283211021     -0.04343267715734     -0.08965063777958
  C   -1.49622450723549     -1.08190801668758      0.16328266245698
  H   -1.71415107111425     -1.29217997960478      1.21600995857129
  H   -1.06044039904177     -1.97357856186377     -0.29236176906083
  H   -2.43756437573003     -0.86273251455619     -0.34080710737891
  N   -1.19226311646691      1.40659555684947      0.05229714803975
  O   -2.23654108628476      1.54581949249142     -0.58348000211125
  O   -0.65932541522114      2.26713785862815      0.75100230617051
  N   1.63035123166868      1.10281125277830     -0.44373570796076
  O   2.75807983154433      1.09841914053480      0.05073428860924
  O   1.18801364830818      1.93164044882845     -1.22953895874407
  N   1.46118755727782     -1.22249976650119     -0.00408368069696
  H   1.11419941649042     -1.87516782398123      0.68148323805566
  H   2.45970194315892     -1.08539811722272      0.05846278721160
