15
Coordinates from ORCA-job run
  C   -0.56645567195267      0.07809553298600      0.03736922222051
  C   0.77276820991880     -0.03782154031134     -0.07652455145439
  C   -1.50499611928528     -1.06339997505939      0.25304529108994
  H   -2.45908727738310     -0.86356026366166     -0.23582099575776
  H   -1.10492344960411     -1.99109519893292     -0.16256961635034
  H   -1.70227697012649     -1.21575129773886      1.31700976838056
  N   -1.17775542952074      1.40020934903133      0.03523038154612
  O   -0.71617489336879      2.26109977007845     -0.71220329616324
  O   -2.15615031379584      1.53930918513272      0.77051795862171
  N   1.66108471146116      1.14184106788300     -0.14458829240872
  O   1.57095902997385      1.97636786621768      0.74549302809965
  O   2.46940316979315      1.13723556338886     -1.07140036985053
  N   1.52378402485651     -1.18641989862036     -0.02245065985813
  H   1.01608483566573     -2.04488588297418     -0.16715507646417
  H   2.37273614336783     -1.13022427741931     -0.56795279165120
