16

C	-0.492985	0.010499	-1.442056
C	0.0	0.0	0.0
Cl	-0.30007	1.634231	-2.222533
H	1.095268	0.0	0.0
H	0.187652	-0.630001	-2.016813
N	-1.891718	-0.37169	-1.532152
H	-1.933876	-1.24312	-1.00866
H	-2.127714	-0.571712	-2.497843
N	-0.363477	-1.348225	0.519457
H	0.503877	-1.748349	0.85241
H	-0.981002	-1.257918	1.315537
C	-0.571964	1.106631	0.865399
H	-0.183672	0.990423	1.882115
H	-1.669546	1.082301	0.891223
H	-0.258265	2.088244	0.50472
F	2.691948	0.0	0.0
