16

C	-0.218311	0.186404	-1.518633
C	0.0	0.0	0.0
Cl	-0.299953	-1.43238	-2.359617
H	1.096391	0.0	0.0
H	-1.169712	0.666512	-1.773838
N	0.887899	0.928513	-2.075536
H	0.696853	1.919053	-1.982562
H	1.721432	0.690928	-1.507813
N	-0.597176	-1.193459	0.591352
H	0.155651	-1.754367	0.973595
H	-1.206704	-0.936296	1.35891
C	-0.46208	1.265405	0.709709
H	-0.046847	2.159684	0.239103
H	-1.559337	1.351572	0.712881
H	-0.110702	1.252664	1.745751
F	2.746729	0.0	0.0
