16

C	-0.434603	0.006007	-1.42221
C	0.0	0.0	0.0
Cl	-2.486402	0.397877	-1.457182
H	1.096261	0.0	0.0
H	-0.149363	0.891756	-1.982197
N	-0.204297	-1.174103	-2.069346
H	-0.607599	-1.256635	-2.987624
H	-0.386725	-1.950829	-1.445146
N	-0.390341	-1.272302	0.616691
H	0.357814	-1.540892	1.245132
H	-1.249449	-1.167648	1.146774
C	-0.409998	1.232311	0.784628
H	0.180702	1.264537	1.704701
H	-1.477915	1.240282	1.027867
H	-0.183436	2.141397	0.218852
F	2.626086	0.0	0.0
