16

C	-0.087314	-0.018185	-1.513918
C	0.0	0.0	0.0
Cl	-1.797039	-0.303936	-2.118861
H	1.101021	0.0	0.0
H	0.178098	0.969017	-1.89989
N	0.809066	-0.995992	-2.08727
H	1.706462	-0.742991	-1.63855
H	0.551471	-1.870731	-1.633469
N	-0.429343	-1.287528	0.540292
H	0.134857	-1.492539	1.35556
H	-1.404022	-1.252498	0.820336
C	-0.61952	1.215203	0.656439
H	-1.71129	1.220711	0.544118
H	-0.38283	1.227808	1.724548
H	-0.226462	2.138863	0.220178
F	2.714788	0.0	0.0
