16

C	-0.380058	0.042687	-1.445246
C	0.0	0.0	0.0
Cl	-2.396077	0.080004	-1.563353
H	1.096552	0.0	0.0
H	-0.187841	1.003822	-1.91585
N	0.096562	-1.011708	-2.204743
H	-0.284927	-1.059014	-3.136327
H	0.020622	-1.891173	-1.717145
N	-0.383001	-1.242346	0.669977
H	0.372915	-1.909192	0.581794
H	-1.251173	-1.624393	0.311794
C	-0.488864	1.206358	0.776724
H	-1.570307	1.18178	0.943947
H	0.022016	1.210373	1.7415
H	-0.23397	2.135392	0.255497
F	2.63843	0.0	0.0
