16

C	-0.140835	0.296776	-1.500383
C	0.0	0.0	0.0
Cl	-0.327757	-1.400582	-2.509981
H	1.104399	0.0	0.0
H	-1.078031	0.749171	-1.834505
N	0.994932	0.989593	-1.869343
H	1.092865	1.177348	-2.853449
H	1.852651	0.652522	-1.372379
N	-0.681115	-1.209917	0.465081
H	-0.346787	-1.981637	-0.101005
H	-0.322689	-1.38194	1.399734
C	-0.518151	1.198349	0.778778
H	-0.295511	1.071768	1.843743
H	-1.604314	1.297862	0.667429
H	-0.021285	2.108673	0.439816
F	2.797862	0.0	0.0
