16

C	-0.041304	-0.024106	-1.525845
C	0.0	0.0	0.0
Cl	-1.699846	-0.438535	-2.197379
H	1.099493	0.0	0.0
H	0.157163	0.983344	-1.898406
N	0.949433	-0.913136	-2.099842
H	1.806987	-0.662659	-1.566481
H	0.713084	-1.854671	-1.796892
N	-0.432894	-1.235953	0.648875
H	-1.245616	-1.621814	0.177603
H	0.324496	-1.906702	0.592463
C	-0.663201	1.208277	0.617355
H	-0.442889	1.235082	1.687155
H	-0.292101	2.133697	0.164721
H	-1.753208	1.174681	0.492754
F	2.729727	0.0	0.0
