17

C	0.047598	-0.036768	-1.537742
C	0.0	0.0	0.0
Br	-1.785225	-0.14614	-2.355043
H	1.101478	0.0	0.0
N	0.682309	1.145323	-2.087895
H	0.16691	1.97674	-1.813709
H	1.586098	1.158353	-1.601835
N	0.794528	-1.212699	-1.89227
H	1.026965	-1.125016	-2.876431
H	1.667708	-1.107249	-1.351331
C	-0.60134	-1.213817	0.685281
H	-1.6871	-1.247543	0.557642
H	-0.169107	-2.114376	0.250506
H	-0.371325	-1.19242	1.753567
C	-0.53353	1.251552	0.490711
N	-0.978506	2.25935	0.904241
F	2.645959	0.0	0.0
