17

C	-0.139418	0.081733	-1.538757
C	0.0	0.0	0.0
Br	-0.125545	-1.912857	-2.308569
H	1.096796	0.0	0.0
N	-1.434109	0.523168	-2.009645
H	-1.482007	0.416254	-3.016777
H	-1.491479	1.515248	-1.790404
N	0.974937	0.771587	-1.989071
H	1.833033	0.520737	-1.44132
H	1.08892	0.779769	-2.99266
C	-0.655389	-1.167356	0.718753
H	-0.08997	-2.077114	0.526321
H	-1.686215	-1.308816	0.384483
H	-0.653523	-0.981292	1.795782
C	-0.475722	1.273608	0.521182
N	-0.886774	2.287513	0.954749
F	2.668922	0.0	0.0
