17

C	0.050032	-0.020571	-1.528826
C	0.0	0.0	0.0
Br	-1.735933	-0.104902	-2.419234
H	1.102052	0.0	0.0
N	0.671957	1.228457	-1.925165
H	1.578473	1.198242	-1.440691
H	0.846187	1.210377	-2.925366
N	0.764729	-1.231724	-1.886198
H	0.951257	-1.212245	-2.883631
H	1.660331	-1.118074	-1.386845
C	-0.594477	-1.231985	0.659477
H	-0.374811	-1.219641	1.730733
H	-0.153668	-2.124785	0.217484
H	-1.680459	-1.269526	0.524634
C	-0.551027	1.229467	0.531424
N	-1.002721	2.181668	1.052699
F	2.657363	0.0	0.0
