17

C	-0.582985	-0.142212	-1.382447
C	0.0	0.0	0.0
Br	0.231174	1.612597	-2.520381
H	1.092801	0.0	0.0
N	-0.086005	-1.268644	-2.044449
H	0.871078	-1.121712	-2.388123
H	-0.687315	-1.540736	-2.800282
N	-1.962434	0.004686	-1.516791
H	-2.314781	0.728922	-0.917969
H	-2.259966	0.19853	-2.469653
C	-0.361035	-1.255213	0.782941
H	0.054906	-1.149906	1.791495
H	-1.445116	-1.467047	0.833145
H	0.161398	-2.106015	0.324628
C	-0.532519	1.181675	0.653948
N	-1.070512	2.071002	1.225528
F	2.514419	0.0	0.0
