17

C	-0.152265	0.048664	-1.546817
C	0.0	0.0	0.0
Br	0.082501	-1.816687	-2.24493
H	1.095405	0.0	0.0
N	-1.456302	0.46605	-1.988252
H	-1.69557	1.33234	-1.513943
H	-1.40117	0.645666	-2.985611
N	0.935564	0.801868	-2.130472
H	0.745362	1.781356	-1.929141
H	1.783951	0.551173	-1.585441
C	-0.655272	-1.137878	0.767306
H	-1.702102	-1.272249	0.475933
H	-0.60993	-0.933659	1.841523
H	-0.110807	-2.06237	0.575888
C	-0.441743	1.296017	0.489903
N	-0.826534	2.346805	0.857126
F	2.634862	0.0	0.0
