16

C	-0.43202	0.036072	-1.451046
C	0.0	0.0	0.0
Cl	0.338825	-1.267295	-2.377327
H	1.096041	0.0	0.0
N	-1.961572	-0.156629	-1.529401
O	-2.630431	0.874208	-1.480692
O	-2.39277	-1.303666	-1.515959
C	-0.122138	1.310481	-2.094331
N	0.138241	2.33196	-2.61414
C	-0.397423	-1.26529	0.752985
H	0.142335	-1.254126	1.703028
H	-1.470175	-1.338931	0.945456
H	-0.068747	-2.144019	0.197844
C	-0.463389	1.187198	0.689069
N	-0.813786	2.124003	1.309662
H	2.529074	0.0	0.0
