16

C	-0.504147	-0.001275	-1.440123
C	0.0	0.0	0.0
Cl	0.107159	1.399298	-2.327757
H	1.095245	0.0	0.0
N	0.009212	-1.293545	-2.119705
O	-0.724379	-2.269305	-1.975117
O	1.091858	-1.263721	-2.674288
C	-1.963349	-0.021614	-1.536374
N	-3.139395	0.001701	-1.562429
C	-0.392974	-1.246757	0.791976
H	-1.467016	-1.450415	0.785211
H	-0.06092	-1.095494	1.821306
H	0.148883	-2.110901	0.404549
C	-0.483066	1.202868	0.649883
N	-0.871569	2.161887	1.21081
H	2.595441	0.0	0.0
