16

C	-0.504299	0.015253	-1.439059
C	0.0	0.0	0.0
Cl	0.120169	1.416377	-2.317914
H	1.09521	0.0	0.0
N	0.004004	-1.276197	-2.122252
O	1.110931	-1.258772	-2.628432
O	-0.751695	-2.239944	-2.021643
C	-1.963087	0.007506	-1.537466
N	-3.139033	0.034232	-1.561757
C	-0.389759	-1.260851	0.770423
H	-0.057963	-1.128018	1.802393
H	0.155725	-2.11582	0.367648
H	-1.46316	-1.468624	0.759924
C	-0.483138	1.193654	0.66626
N	-0.874885	2.148309	1.23245
H	2.594669	0.0	0.0
