16

C	-0.430183	0.030259	-1.45181
C	0.0	0.0	0.0
Cl	0.328326	-1.285934	-2.369086
H	1.096122	0.0	0.0
N	-1.960708	-0.147635	-1.532524
O	-2.403016	-1.289628	-1.495374
O	-2.619996	0.889844	-1.512254
C	-0.105926	1.297905	-2.102389
N	0.180927	2.298041	-2.649345
C	-0.395946	-1.261371	0.760615
H	0.14432	-1.243732	1.710327
H	-0.065887	-2.143416	0.210781
H	-1.468834	-1.335298	0.953578
C	-0.461227	1.193214	0.680493
N	-0.789161	2.146098	1.289431
H	2.52497	0.0	0.0
