16

C	-0.478551	0.016046	-1.438067
C	0.0	0.0	0.0
Cl	0.26846	1.379734	-2.322462
H	1.107477	0.0	0.0
N	-0.057728	-1.257189	-2.199181
O	0.802678	-1.963567	-1.697295
O	-0.600487	-1.420109	-3.288653
C	-1.930287	0.116431	-1.578508
N	-3.101713	0.214474	-1.630013
C	-0.50894	-1.181864	0.826356
H	-0.079407	-1.087615	1.826222
H	-0.152975	-2.121441	0.407835
H	-1.600257	-1.196524	0.914171
C	-0.440414	1.241877	0.617401
N	-0.791867	2.220478	1.167481
H	2.589083	0.0	0.0
