16

C	-0.529274	-0.006412	-1.395844
C	0.0	0.0	0.0
Cl	-2.336087	0.250552	-1.510206
H	1.107752	0.0	0.0
N	0.076443	1.132578	-2.242187
O	-0.051634	1.021539	-3.456621
O	0.623602	2.041485	-1.638446
C	-0.246	-1.255145	-2.09572
N	-0.058913	-2.281453	-2.637397
C	-0.358888	-1.269653	0.773274
H	0.069694	-2.139327	0.270651
H	0.112563	-1.19963	1.756028
H	-1.436819	-1.404425	0.896969
C	-0.444281	1.171486	0.73281
N	-0.783429	2.076378	1.403648
H	2.529217	0.0	0.0
