11

C	-0.559501	0.007212	-1.426124
C	0.0	0.0	0.0
Br	0.085315	-1.516485	-2.459784
H	1.092731	0.0	0.0
H	-1.646464	-0.099303	-1.418234
H	-0.31851	0.925305	0.494225
C	-0.233989	1.244678	-2.125975
N	-0.047021	2.261159	-2.684879
C	-0.534275	-1.130769	0.749611
N	-1.009021	-2.022379	1.347896
Cl	3.291142	0.0	0.0
