11

C	-0.473401	-0.013576	-1.457083
C	0.0	0.0	0.0
Br	0.116194	1.613295	-2.362157
H	1.092605	0.0	0.0
H	0.005377	-0.838975	-1.989274
H	-0.355156	0.902858	0.502679
C	-1.924938	-0.111218	-1.592165
N	-3.094542	-0.196082	-1.680961
C	-0.503107	-1.181522	0.693418
N	-0.908121	-2.141861	1.234595
Cl	3.307434	0.0	0.0
