11

C	-0.564756	0.12059	-1.418227
C	0.0	0.0	0.0
Br	-0.003135	-1.410533	-2.492725
H	1.091249	0.0	0.0
H	-1.655646	0.069933	-1.404149
H	-0.324086	-0.957318	0.419041
C	-0.182967	1.35628	-2.091809
N	0.048305	2.367308	-2.64351
C	-0.534441	1.079295	0.825227
N	-1.010048	1.938677	1.469214
Cl	3.297002	0.0	0.0
