11

C	-0.460518	0.182205	-1.450653
C	0.0	0.0	0.0
Br	0.081729	1.941882	-2.100131
H	1.089824	0.0	0.0
H	0.056483	-0.539148	-2.08706
H	-0.361752	0.824214	0.619065
C	-1.90335	0.053888	-1.625631
N	-3.065704	-0.057326	-1.754434
C	-0.501408	-1.267161	0.52249
N	-0.926441	-2.285877	0.922944
Cl	3.296707	0.0	0.0
