11

C	-0.424667	0.041216	-1.464788
C	0.0	0.0	0.0
Br	-2.380457	0.16656	-1.687193
H	1.094993	0.0	0.0
H	-0.022826	0.934446	-1.946228
H	-0.351136	-0.91859	0.476289
C	0.019743	-1.143497	-2.189427
N	0.346381	-2.097861	-2.791508
C	-0.494984	1.156815	0.733597
N	-0.896496	2.090009	1.322077
Cl	3.271877	0.0	0.0
