11

C	-0.41789	0.133149	-1.461683
C	0.0	0.0	0.0
Br	-2.362856	0.359688	-1.684376
H	1.092904	0.0	0.0
H	0.029596	1.028554	-1.896117
H	-0.357432	-0.943142	0.419349
C	-0.025357	-1.03603	-2.238487
N	0.250306	-1.985672	-2.872332
C	-0.487096	1.114498	0.801712
N	-0.880047	2.013609	1.446077
Cl	3.262338	0.0	0.0
