11

C	-0.557097	0.003865	-1.427076
C	0.0	0.0	0.0
Br	-0.028574	-1.632201	-2.354132
H	1.094701	0.0	0.0
H	-1.649277	-0.01822	-1.415929
H	-0.329146	-0.916151	0.498371
C	-0.136447	1.16177	-2.2099
N	0.163279	2.081242	-2.877693
C	-0.529306	1.150095	0.726759
N	-0.993405	2.063309	1.301546
Cl	3.303089	0.0	0.0
