11

C	-0.460543	-0.013426	-1.459094
C	0.0	0.0	0.0
Br	-0.062254	1.669308	-2.360675
H	1.092889	0.0	0.0
H	0.122752	-0.770061	-1.98798
H	-0.309759	-0.948175	0.455313
C	-1.884406	-0.297468	-1.608397
N	-3.02719	-0.55446	-1.702989
C	-0.5719	1.095307	0.768923
N	-1.057191	1.959274	1.398348
Cl	3.291588	0.0	0.0
