17

C	-0.413242	-0.007351	-1.444126
C	0.0	0.0	0.0
Cl	-2.274861	-0.555594	-1.614734
H	1.094582	0.0	0.0
N	-0.154323	1.173266	-2.107745
H	-0.388312	1.139991	-3.088303
H	-0.492319	1.994956	-1.630596
N	0.261149	-1.116101	-2.253194
O	0.752977	-2.058426	-1.652759
O	0.253248	-0.967554	-3.472726
C	-0.463282	-1.153311	0.886355
H	0.094503	-1.087534	1.824017
H	-0.221217	-2.104451	0.420163
H	-1.533957	-1.107297	1.093038
C	-0.42482	1.263497	0.573839
N	-0.750757	2.297688	1.032021
H	2.583487	0.0	0.0
