17

C	-0.541148	-0.009089	-1.412601
C	0.0	0.0	0.0
Cl	0.359167	-1.286762	-2.374598
H	1.092022	0.0	0.0
N	-1.943252	-0.147294	-1.504765
H	-2.240911	-0.981302	-1.017835
H	-2.230433	-0.184319	-2.475532
N	-0.203408	1.286289	-2.156191
O	0.624473	2.0359	-1.661364
O	-0.791797	1.452361	-3.223678
C	-0.359442	-1.276757	0.768148
H	-1.423042	-1.356115	1.015525
H	0.214092	-1.266125	1.698022
H	-0.037733	-2.152245	0.202114
C	-0.503808	1.15785	0.719733
N	-0.875628	2.080623	1.347349
H	2.657559	0.0	0.0
