17

C	-0.202648	-0.025191	-1.506232
C	0.0	0.0	0.0
Cl	-0.142496	1.695289	-2.183926
H	1.098306	0.0	0.0
N	0.741478	-0.887618	-2.049762
H	1.65879	-0.699938	-1.601819
H	0.778856	-0.85095	-3.05806
N	-1.614073	-0.45859	-1.941397
O	-1.717533	-1.012706	-3.031983
O	-2.538717	-0.203924	-1.177049
C	-0.407136	-1.311397	0.674552
H	-0.02752	-2.147491	0.086042
H	0.066234	-1.351383	1.658954
H	-1.48894	-1.399052	0.789819
C	-0.546451	1.146844	0.692143
N	-0.941989	2.049181	1.334003
H	2.682508	0.0	0.0
