17

C	-0.200354	-0.021627	-1.506698
C	0.0	0.0	0.0
Cl	-0.130103	1.70003	-2.181162
H	1.098245	0.0	0.0
N	0.739217	-0.887348	-2.048711
H	0.770457	-0.856364	-3.056973
H	1.657608	-0.701141	-1.604013
N	-1.610059	-0.448101	-1.952363
O	-2.540421	-0.191129	-1.195252
O	-1.706508	-0.999903	-3.044744
C	-0.409857	-1.31217	0.67106
H	0.061846	-1.353098	1.656342
H	-0.029158	-2.148134	0.082439
H	-1.492275	-1.399711	0.784618
C	-0.544873	1.145874	0.694464
N	-0.94397	2.046306	1.336888
H	2.680492	0.0	0.0
