17

C	-0.263874	0.061938	-1.505995
C	0.0	0.0	0.0
Cl	-1.971877	0.462816	-1.918026
H	1.096607	0.0	0.0
N	0.612392	0.957271	-2.186246
H	1.551413	0.79023	-1.789579
H	0.342335	1.904983	-1.941617
N	0.001935	-1.347808	-2.06807
O	-0.869921	-2.196469	-1.90753
O	1.09725	-1.531256	-2.580186
C	-0.541966	-1.17939	0.791866
H	-1.617688	-1.310363	0.662174
H	-0.324172	-1.016802	1.84815
H	-0.034697	-2.094368	0.486562
C	-0.403273	1.271579	0.572496
N	-0.705373	2.301669	1.054089
H	2.669894	0.0	0.0
