17

C	-0.611029	-0.198632	-1.385779
C	0.0	0.0	0.0
Cl	0.247693	-1.525205	-2.225303
H	1.093766	0.0	0.0
N	-2.016118	-0.472435	-1.47369
H	-2.527869	0.313065	-1.082636
H	-2.210429	-1.299727	-0.922919
N	-0.35413	1.06929	-2.226997
O	0.704171	1.646915	-2.018293
O	-1.204505	1.386458	-3.055604
C	-0.3387	-1.158861	0.941475
H	-0.016875	-2.099712	0.490545
H	0.251388	-1.024185	1.851165
H	-1.398026	-1.215621	1.210264
C	-0.520445	1.240177	0.545965
N	-0.982557	2.221981	1.000779
H	2.653581	0.0	0.0
