17

C	-0.244519	0.240897	-1.494238
C	0.0	0.0	0.0
Cl	-0.270996	1.994738	-1.842608
H	1.106368	0.0	0.0
N	0.723111	-0.386748	-2.319996
H	0.491599	-1.366437	-2.424677
H	1.62854	-0.297624	-1.830378
N	-1.643259	-0.296639	-1.849664
O	-2.606544	0.289777	-1.372334
O	-1.69753	-1.345159	-2.491565
C	-0.378244	-1.419459	0.419855
H	0.010888	-1.596107	1.426085
H	-1.459352	-1.586395	0.42236
H	0.101953	-2.142104	-0.244481
C	-0.575007	0.973741	0.899553
N	-1.022401	1.71564	1.69543
H	2.668416	0.0	0.0
