17

C	-0.54512	-0.075923	-1.411094
C	0.0	0.0	0.0
Cl	0.253375	-1.382082	-2.334587
H	1.097712	0.0	0.0
N	-1.948588	-0.275774	-1.476883
H	-2.25883	-0.182078	-2.437786
H	-2.406795	0.424503	-0.901768
N	-0.1516	1.216062	-2.196645
O	0.708559	1.94702	-1.730063
O	-0.757736	1.392783	-3.254918
C	-0.362187	-1.244915	0.816427
H	-1.438756	-1.387977	0.928905
H	0.07374	-2.121009	0.334422
H	0.105764	-1.146281	1.798756
C	-0.537702	1.185248	0.642819
N	-1.02282	2.111879	1.184331
H	2.649317	0.0	0.0
