17

C	-0.27045	0.076385	-1.502874
C	0.0	0.0	0.0
Cl	-1.986062	0.45667	-1.896881
H	1.096532	0.0	0.0
N	0.584784	0.992387	-2.179331
H	0.301294	1.930626	-1.919358
H	1.528776	0.832512	-1.797417
N	0.007649	-1.32468	-2.08351
O	-0.852528	-2.186166	-1.925842
O	1.101217	-1.489273	-2.60562
C	-0.532389	-1.191635	0.781001
H	-0.299322	-1.044122	1.838794
H	-0.027322	-2.102943	0.456663
H	-1.611309	-1.319679	0.663268
C	-0.405719	1.262815	0.590019
N	-0.716044	2.293173	1.065693
H	2.668134	0.0	0.0
