17

C	-0.196668	0.067217	-1.50491
C	0.0	0.0	0.0
Cl	-0.109744	1.829272	-2.07278
H	1.106275	0.0	0.0
N	0.738567	-0.76904	-2.098757
H	0.769356	-0.678753	-3.10399
H	1.658363	-0.611947	-1.645363
N	-1.608349	-0.320644	-1.978746
O	-2.5387	-0.092685	-1.213903
O	-1.705837	-0.810965	-3.099805
C	-0.408649	-1.350151	0.590834
H	0.043749	-1.440923	1.581661
H	-0.007823	-2.147764	-0.035398
H	-1.491925	-1.454198	0.678598
C	-0.548753	1.101355	0.759697
N	-0.965617	1.947535	1.461766
H	2.674727	0.0	0.0
