15

C	-0.415248	0.077037	-1.459369
C	0.0	0.0	0.0
Br	-0.485215	-2.139861	-1.930405
H	1.088643	0.0	0.0
H	-0.447308	-0.818465	0.551258
N	-1.72918	0.519671	-1.675027
H	-2.368138	-0.005266	-1.094513
H	-1.997059	0.378687	-2.639503
N	0.510332	0.662552	-2.261536
H	0.216452	1.431673	-2.832612
H	1.469914	0.6669	-1.931892
N	-0.445147	1.264892	0.653702
O	0.060307	2.317727	0.279488
O	-1.319072	1.169344	1.519988
Br	3.469693	0.0	0.0
