15

C	-0.572122	0.013196	-1.411145
C	0.0	0.0	0.0
Br	-0.255152	1.95281	-2.055367
H	1.088643	0.0	0.0
H	-0.388956	0.827932	0.587068
N	0.148165	-0.819672	-2.290043
H	0.398425	-1.687346	-1.830318
H	-0.334156	-0.977616	-3.163395
N	-1.981031	-0.226778	-1.370864
H	-2.37173	-0.19649	-2.305208
H	-2.452817	0.471979	-0.807879
N	-0.462652	-1.23997	0.686333
O	-1.16368	-1.111792	1.689179
O	-0.119442	-2.32022	0.210221
Br	3.548062	0.0	0.0
