15

C	-0.586835	-0.021608	-1.407464
C	0.0	0.0	0.0
Br	0.00792	-1.732003	-2.191297
H	1.089031	0.0	0.0
H	-0.354247	-0.864637	0.559498
N	-2.042375	-0.131483	-1.338352
H	-2.385008	0.77247	-1.02759
H	-2.397445	-0.297361	-2.274194
N	-0.01776	1.008224	-2.233065
H	-0.229906	1.909733	-1.822247
H	-0.38584	0.95437	-3.175633
N	-0.445008	1.177966	0.799369
O	-1.043127	2.106895	0.237308
O	-0.174226	1.159826	1.992991
Br	3.476499	0.0	0.0
