15

C	-0.47282	0.066432	-1.439959
C	0.0	0.0	0.0
Br	-0.205826	-2.003454	-2.209108
H	1.08666	0.0	0.0
H	-0.369619	0.903686	0.493338
N	-1.832264	0.359895	-1.609289
H	-2.118736	0.23306	-2.571915
H	-2.376837	-0.25046	-1.011633
N	0.393918	0.893979	-2.133998
H	1.371228	0.668961	-1.95567
H	0.196088	0.957319	-3.122947
N	-0.559777	-1.135496	0.771304
O	-1.792644	-1.242643	0.778246
O	0.205284	-1.860347	1.391278
Br	3.502228	0.0	0.0
