15

C	-0.377276	-0.036964	-1.468501
C	0.0	0.0	0.0
Br	-2.517882	-0.373674	-1.435896
H	1.094009	0.0	0.0
H	-0.366275	-0.891117	0.502725
N	-0.027249	1.071811	-2.186206
H	-0.243261	1.004206	-3.167946
H	-0.217308	1.95568	-1.741456
N	0.116076	-1.205243	-2.133736
H	1.131891	-1.173468	-2.05361
H	-0.228121	-2.040356	-1.677032
N	-0.509841	1.146474	0.781298
O	-0.893705	0.917272	1.926624
O	-0.493533	2.267216	0.267489
Br	3.440046	0.0	0.0
