15

C	-0.384262	-0.037726	-1.46618
C	0.0	0.0	0.0
Br	-2.517741	-0.40286	-1.422518
H	1.09402	0.0	0.0
H	-0.360768	-0.892221	0.50446
N	-0.051105	1.073425	-2.189503
H	-0.264875	1.95093	-1.745754
H	-0.286435	0.999056	-3.164998
N	0.124281	-1.201731	-2.131472
H	-0.19444	-2.043323	-1.663473
H	1.143484	-1.148346	-2.058564
N	-0.508051	1.144124	0.789087
O	-0.848736	0.912995	1.947123
O	-0.530611	2.263095	0.268591
Br	3.440233	0.0	0.0
