14

C	0.0	0.0	0.0
C	-0.236407	0.023113	-1.579302
Cl	1.77186	0.0	0.0
H	0.53494	-0.635294	-1.976378
H	0.030995	1.04899	-1.856773
C	-0.543968	1.125005	0.729344
N	-0.620371	2.153318	1.311744
N	-0.437555	-1.286218	0.622021
O	-0.536179	-1.329418	1.850009
O	-0.42516	-2.277818	-0.121259
N	-1.469984	-0.349133	-2.228402
H	-2.218646	0.145386	-1.751741
H	-1.631109	-1.323755	-1.991825
H	-2.082624	0.0	0.0
