14

C	0.0	0.0	0.0
C	-0.380183	0.181329	-1.496899
Cl	1.754799	0.0	0.0
H	0.35148	0.895997	-1.891526
H	-1.371857	0.624355	-1.50103
C	-0.507742	1.156865	0.746856
N	-0.555755	2.1969	1.307466
N	-0.462653	-1.235503	0.737932
O	-0.518345	-2.304534	0.126086
O	-0.497274	-1.130919	1.964459
N	-0.276436	-1.042678	-2.284658
H	-0.978825	-1.683465	-1.934004
H	-0.537244	-0.796121	-3.233194
H	-2.267257	0.0	0.0
