14

C	0.0	0.0	0.0
C	-0.31993	0.149347	-1.520125
Cl	1.770475	0.0	0.0
H	-1.403352	0.095493	-1.59802
H	0.007717	1.169122	-1.751414
C	-0.726221	1.025954	0.749702
N	-0.713824	2.045008	1.369718
N	-0.41083	-1.353657	0.558454
O	-0.443095	-1.453364	1.780304
O	-0.505392	-2.297784	-0.226431
N	0.401324	-0.768532	-2.404094
H	0.242773	-0.448661	-3.351992
H	-0.02301	-1.682144	-2.308046
H	-2.208156	0.0	0.0
