14

C	0.0	0.0	0.0
C	-0.200854	0.012832	-1.579467
Cl	1.786432	0.0	0.0
H	0.309763	-0.890406	-1.915496
H	0.392369	0.872088	-1.904669
C	-0.553044	1.155447	0.672612
N	-0.630272	2.228611	1.168861
N	-0.435627	-1.260789	0.668302
O	-0.528231	-1.24743	1.89845
O	-0.433533	-2.28427	-0.028328
N	-1.480373	0.088242	-2.24048
H	-2.045285	-0.678767	-1.886852
H	-1.957517	0.911696	-1.891672
H	-2.040485	0.0	0.0
