14

C	-0.302267	-0.015021	-1.489566
C	0.0	0.0	0.0
Br	-2.237573	-0.163284	-1.886214
H	1.099287	0.0	0.0
H	0.128642	-0.933301	-1.894678
C	0.286184	1.200618	-2.169012
H	0.173369	1.134339	-3.253309
H	-0.196592	2.115447	-1.818353
H	1.350305	1.225613	-1.900972
C	-0.452096	-1.194929	0.689209
N	-0.774017	-2.192358	1.222626
C	-0.469772	1.204567	0.659045
N	-0.811815	2.211235	1.162505
H	2.536912	0.0	0.0
