14

C	-0.271139	-0.022462	-1.497989
C	0.0	0.0	0.0
Br	-2.193631	-0.180196	-1.941816
H	1.099319	0.0	0.0
H	0.172187	-0.94107	-1.889189
C	0.336244	1.189377	-2.167523
H	1.390865	1.214064	-1.86954
H	0.25417	1.117735	-3.252311
H	-0.152996	2.106494	-1.835376
C	-0.462607	-1.19094	0.687219
N	-0.79837	-2.185503	1.217539
C	-0.476357	1.208229	0.645647
N	-0.816333	2.217725	1.144863
H	2.539058	0.0	0.0
