14

C	-0.274169	-0.017847	-1.496954
C	0.0	0.0	0.0
Br	-2.198521	-0.18108	-1.93905
H	1.099378	0.0	0.0
H	0.17345	-0.932626	-1.891091
C	0.324851	1.201094	-2.164039
H	1.380772	1.231141	-1.868904
H	0.240532	1.132302	-3.250482
H	-0.172157	2.113009	-1.829109
C	-0.457538	-1.195183	0.683868
N	-0.778944	-2.19493	1.213411
C	-0.478459	1.205828	0.648814
N	-0.818829	2.216027	1.146711
H	2.532497	0.0	0.0
