19

C	0.0	0.0	0.0
C	-0.68484	-0.051376	-1.345858
Br	1.956647	0.0	0.0
H	-1.820662	0.064186	-1.030832
C	-0.441693	1.255926	0.747335
H	-0.057735	2.165837	0.293219
H	-1.539291	1.257326	0.736539
H	-0.085013	1.190496	1.777953
C	-0.481969	-1.214345	0.790562
H	-1.582782	-1.190028	0.743939
H	-0.095065	-2.147978	0.386148
H	-0.164543	-1.118571	1.831197
N	-0.577247	-1.344334	-2.083009
O	0.378237	-2.090791	-1.881572
O	-1.493551	-1.564722	-2.874117
N	-0.242101	0.983774	-2.305957
O	-0.477836	2.155214	-2.004214
O	0.337532	0.624679	-3.335063
H	-3.027886	0.0	0.0
