16

C	-0.242576	-0.092742	-1.534383
C	0.0	0.0	0.0
Br	0.127815	-1.927864	-2.14647
H	1.109301	0.0	0.0
C	-1.630074	0.195186	-1.892346
N	-2.738777	0.502224	-2.142285
C	0.745405	0.842725	-2.23312
H	0.746492	0.680616	-3.311953
H	1.723552	0.639597	-1.77639
H	0.459169	1.879221	-2.034374
C	-0.638695	-1.080992	0.735784
N	-1.168033	-1.931621	1.351794
N	-0.387042	1.287953	0.554282
H	0.378768	1.9344	0.420455
H	-1.24366	1.659154	0.15934
F	2.592037	0.0	0.0
