16

C	-0.161225	-0.329359	-1.492957
C	0.0	0.0	0.0
Br	-2.076832	-0.611359	-2.014374
H	1.103757	0.0	0.0
C	0.263865	0.839031	-2.262536
N	0.592618	1.782194	-2.882705
C	0.673764	-1.548971	-1.85247
H	1.67232	-1.318917	-1.45859
H	0.27231	-2.429161	-1.347107
H	0.690393	-1.722226	-2.929532
C	-0.504832	-1.094677	0.815618
N	-0.897175	-1.982045	1.480612
N	-0.502487	1.276724	0.452294
H	-1.404585	1.491932	0.038303
H	0.16696	1.989681	0.191455
F	2.565838	0.0	0.0
