16

C	-0.319452	0.056346	-1.509784
C	0.0	0.0	0.0
Br	0.002069	-1.717538	-2.303965
H	1.095003	0.0	0.0
C	-1.721378	0.380744	-1.763665
N	-2.845323	0.679932	-1.9371
C	0.644637	1.051614	-2.151552
H	0.583839	1.016254	-3.24049
H	1.641576	0.789594	-1.778272
H	0.384363	2.050608	-1.796588
C	-0.588412	-1.139905	0.688411
N	-1.070115	-2.007406	1.321726
N	-0.386203	1.282829	0.587596
H	0.355932	1.563388	1.216771
H	-1.259243	1.223998	1.096403
F	2.584901	0.0	0.0
