16

C	0.0	0.0	0.0
C	-0.400236	0.009266	-1.493336
Cl	1.769195	0.0	0.0
H	0.419332	0.455024	-2.067365
H	-0.36656	-0.887	0.492194
N	-0.370681	1.125563	0.924969
O	-0.23377	2.277129	0.53345
O	-0.640822	0.786491	2.071959
N	-1.580386	0.828693	-1.965658
O	-2.371636	0.279307	-2.727425
O	-1.542432	2.03391	-1.764276
C	-0.614066	-1.44501	-1.870859
H	-0.731524	-1.567192	-2.946399
H	0.236818	-2.044016	-1.534988
H	-1.526565	-1.74391	-1.358786
F	-2.307274	0.0	0.0
