19

C	0.0	0.0	0.0
C	-0.575482	-0.527242	-1.328409
F	1.369709	0.0	0.0
H	-1.474728	-1.077542	-1.049355
C	-0.509098	1.334306	0.456415
H	-0.213854	2.092759	-0.270115
H	-1.598824	1.287909	0.522135
H	-0.075243	1.576718	1.424632
N	-0.281413	-1.036041	1.118543
O	-0.109838	-0.654459	2.27375
O	-0.546283	-2.190051	0.795606
C	0.409671	-1.450815	-2.03686
H	0.795576	-2.223058	-1.371229
H	1.252045	-0.881505	-2.438824
H	-0.110584	-1.923754	-2.869878
N	-1.03366	0.501381	-2.252995
H	-0.360575	1.253904	-2.334558
H	-1.909951	0.872131	-1.893673
Cl	-3.720328	0.0	0.0
