19

C	0.0	0.0	0.0
C	-0.400016	-0.016349	-1.493693
F	1.372126	0.0	0.0
H	0.338241	-0.690829	-1.940848
C	-0.600026	1.064811	0.861156
H	-0.299559	2.043175	0.485751
H	-1.690918	0.974378	0.823381
H	-0.266527	0.951552	1.891903
N	-0.280219	-1.383387	0.622119
O	-0.23657	-2.353698	-0.130557
O	-0.39672	-1.446293	1.841523
C	-0.199131	1.378908	-2.079457
H	0.764291	1.812291	-1.797204
H	-1.002689	2.044734	-1.755704
H	-0.252123	1.301731	-3.166335
N	-1.705677	-0.501878	-1.862884
H	-2.468703	-0.045364	-1.360138
H	-1.784796	-1.485169	-1.640905
Cl	-4.271785	0.0	0.0
