19

C	0.0	0.0	0.0
C	-0.596193	-0.119668	-1.397666
F	1.370293	0.0	0.0
H	-1.680846	-0.078897	-1.228143
C	-0.510154	1.195986	0.752691
H	-1.598168	1.13734	0.820429
H	-0.216081	2.082705	0.193896
H	-0.074556	1.216684	1.753209
N	-0.309471	-1.272083	0.81373
O	-1.128665	-1.208613	1.721481
O	0.341193	-2.27391	0.5129
C	-0.242893	-1.398192	-2.151218
H	-0.637587	-1.311833	-3.167557
H	0.841218	-1.536095	-2.202519
H	-0.678147	-2.285009	-1.69305
N	-0.192884	1.092236	-2.124338
H	-0.938129	1.352448	-2.757143
H	0.633411	0.893459	-2.676481
Cl	-3.927047	0.0	0.0
