16

C	-0.366114	-0.170579	-1.466597
C	0.0	0.0	0.0
F	-1.763977	-0.256126	-1.608568
H	1.09721	0.0	0.0
H	0.033771	-1.138215	-1.791366
C	0.15817	0.941508	-2.343823
H	-0.306164	1.890728	-2.065826
H	1.239474	1.017609	-2.207756
H	-0.064755	0.734494	-3.393188
C	-0.502741	-1.154884	0.867417
H	-0.181462	-1.017912	1.901656
H	-1.591718	-1.228132	0.834504
H	-0.069126	-2.089753	0.502633
C	-0.495348	1.279809	0.506846
N	-0.941862	2.285868	0.917729
Cl	3.371435	0.0	0.0
