16

C	-0.458168	0.013499	-1.462858
C	0.0	0.0	0.0
F	-0.061627	-1.192276	-2.045349
H	1.096063	0.0	0.0
H	0.086515	0.805919	-1.986019
C	-1.951637	0.15109	-1.676372
H	-2.170622	0.133023	-2.74665
H	-2.321011	1.089414	-1.257637
H	-2.482191	-0.680231	-1.20668
C	-0.477483	-1.230559	0.774412
H	-0.015094	-1.235467	1.762836
H	-0.151668	-2.125663	0.244605
H	-1.563812	-1.255284	0.89575
C	-0.461275	1.229275	0.640565
N	-0.883833	2.210163	1.130789
Cl	3.387601	0.0	0.0
