16

C	-0.409484	-0.024157	-1.465701
C	0.0	0.0	0.0
F	-1.809385	-0.133208	-1.566285
H	1.097087	0.0	0.0
H	0.001233	-0.938436	-1.907208
C	0.042771	1.190548	-2.238177
H	-0.248785	1.099288	-3.287461
H	-0.416692	2.090961	-1.824731
H	1.129495	1.277054	-2.164116
C	-0.488831	-1.236479	0.756017
H	-0.090969	-2.130998	0.270385
H	-0.118139	-1.220936	1.782243
H	-1.579274	-1.290621	0.766403
C	-0.491099	1.223319	0.632571
N	-0.923729	2.199556	1.12339
Cl	3.374617	0.0	0.0
