12
Coordinates from ORCA-job run
  C   -0.26746632988975     -0.45402214952792      0.20646941863620
  C   0.89864463164991      0.40689221704218     -0.27965212111501
  Br  -0.06672349540439     -0.79289835971118      2.11927160692326
  H   0.92614631582107      1.34405290219169      0.28368010695410
  H   -0.22011623567734     -1.43894986737941     -0.26138125697897
  H   0.73209275925304      0.65923603841528     -1.33315257013708
  C   -1.60393486367443      0.21169346899190     -0.06455353921280
  H   -2.42672598952183     -0.40675665524519      0.29496204707852
  H   -1.72993655204255      0.36179076163656     -1.14129707851506
  H   -1.66112212128409      1.18158554363951      0.43402073748033
  C   2.19274611114875     -0.26167134543520     -0.16453682646163
  N   3.22739576962160     -0.80995255461821     -0.09183052465188
