18

C	-0.222391	0.141416	-1.5097
C	-0.017616	0.221257	0.032987
Br	-2.146118	0.152162	-1.992831
H	1.010787	0.579274	0.122429
N	0.294011	1.432116	-2.156144
O	0.267607	2.46243	-1.481981
O	0.688788	1.384719	-3.31673
C	0.457192	-1.046286	-2.127574
H	1.462509	-1.120897	-1.669204
H	-0.088621	-1.931349	-1.803035
H	0.464216	-0.978402	-3.213848
N	-0.127072	-1.1267	0.554314
H	0.843824	-1.489409	0.39534
H	-0.22442	-1.002989	1.557848
N	-0.898129	1.099757	0.777042
H	-1.844001	0.747727	0.676302
H	-0.860619	2.025807	0.373444
F	2.407904	-1.313641	-0.121337
