18

C	-0.211599	0.150701	-1.505339
C	-0.002942	0.200988	0.039278
Br	-2.133894	0.226188	-1.987904
H	1.035802	0.538957	0.131507
N	0.342956	1.43728	-2.12724
O	0.788745	1.388783	-3.269172
O	0.295731	2.466272	-1.452271
C	0.430765	-1.046719	-2.143486
H	-0.139226	-1.919676	-1.827632
H	1.436038	-1.157231	-1.692979
H	0.43411	-0.964535	-3.228757
N	-0.138592	-1.151723	0.539659
H	-0.231928	-1.042093	1.545186
H	0.823618	-1.533497	0.371957
N	-0.864167	1.084871	0.799246
H	-1.816154	0.749685	0.697716
H	-0.813845	2.014948	0.406381
F	2.386729	-1.387629	-0.151623
