15

C	-0.441437	0.108218	-1.446009
C	0.0	0.0	0.0
F	-0.116278	-1.026393	-2.157411
H	1.091092	0.0	0.0
H	0.129212	0.937815	-1.877941
C	-1.877214	0.396787	-1.627341
N	-2.996241	0.699149	-1.812825
N	-0.519259	-1.247884	0.626762
O	-1.506723	-1.784837	0.117144
O	0.038743	-1.624817	1.652162
C	-0.468407	1.179591	0.837472
H	-0.037146	1.091497	1.834722
H	-1.558828	1.226294	0.907018
H	-0.094967	2.106646	0.396471
Cl	3.294792	0.0	0.0
