15

C	-0.458888	0.002442	-1.442916
C	0.0	0.0	0.0
F	-1.84756	-0.1372	-1.510125
H	1.094229	0.0	0.0
H	-0.016776	-0.841231	-1.97302
C	-0.109863	1.259605	-2.118174
N	0.103636	2.260574	-2.692143
N	-0.398246	-1.331689	0.570966
O	-0.250497	-2.319763	-0.145501
O	-0.81258	-1.365989	1.727494
C	-0.545373	1.140654	0.828208
H	-1.636735	1.136692	0.853287
H	-0.165671	1.070426	1.845378
H	-0.193551	2.081205	0.400044
Cl	3.245872	0.0	0.0
