15

C	-0.439513	0.094889	-1.447347
C	0.0	0.0	0.0
F	-0.042547	-1.002608	-2.177452
H	1.091072	0.0	0.0
H	0.077201	0.96592	-1.864992
C	-1.8907	0.297643	-1.622917
N	-3.027021	0.543919	-1.783533
N	-0.504044	-1.246638	0.642456
O	-1.364079	-1.905473	0.053857
O	-0.04907	-1.51306	1.750493
C	-0.472555	1.187578	0.823548
H	-1.563203	1.229058	0.895842
H	-0.106432	2.111292	0.369771
H	-0.040122	1.113526	1.820712
Cl	3.281753	0.0	0.0
