15

C	-0.464754	-0.025038	-1.43967
C	0.0	0.0	0.0
F	-0.210459	-1.254112	-2.014516
H	1.091076	0.0	0.0
H	0.135544	0.718507	-1.974834
C	-1.887936	0.308481	-1.638315
N	-2.988364	0.655142	-1.851055
N	-0.520801	-1.194453	0.724857
O	0.194342	-1.692078	1.592388
O	-1.66307	-1.569287	0.444171
C	-0.468531	1.243154	0.740594
H	-1.557663	1.291	0.812299
H	-0.029505	1.239753	1.739551
H	-0.099172	2.13247	0.224177
Cl	3.319047	0.0	0.0
