15

C	-0.450338	8.7e-05	-1.445917
C	0.0	0.0	0.0
F	-1.837868	-0.146378	-1.52284
H	1.094233	0.0	0.0
H	-0.000196	-0.841871	-1.971835
C	-0.102467	1.258296	-2.119557
N	0.111353	2.260238	-2.691648
N	-0.401722	-1.332288	0.566789
O	-0.216899	-2.321988	-0.13886
O	-0.85956	-1.365173	1.70739
C	-0.549994	1.141088	0.823809
H	-0.184107	1.066688	1.845788
H	-0.187774	2.080839	0.402477
H	-1.641533	1.142401	0.835205
Cl	3.246609	0.0	0.0
