15

C	0.0	0.0	0.0
C	-0.284302	0.195862	-1.510856
Cl	1.830671	0.0	0.0
H	-0.23117	1.248077	-1.771873
H	0.469989	-0.369721	-2.058329
N	-0.392423	1.276934	0.773016
O	-0.617778	1.155823	1.963556
O	-0.360473	2.335705	0.15488
N	-0.511912	-1.104611	0.666794
H	-0.320852	-1.925103	0.101443
H	-1.566375	-0.859692	0.577271
N	-1.556516	-0.338609	-2.079186
O	-1.687902	-1.560071	-2.063342
O	-2.267068	0.444536	-2.697972
F	-2.597036	0.0	0.0
