15

C	0.0	0.0	0.0
C	-0.539391	-0.015201	-1.431186
Cl	1.755345	0.0	0.0
H	-0.23002	0.852482	-2.001412
H	-1.644703	-0.063196	-1.248229
N	-0.387824	1.408195	0.552471
O	-0.651855	1.497881	1.737388
O	-0.325703	2.344267	-0.239659
N	-0.523618	-0.947647	0.899843
H	-0.303331	-1.861655	0.522011
H	-1.555409	-0.777311	0.78723
N	-0.085028	-1.195	-2.195332
O	0.19593	-1.015202	-3.382561
O	-0.045165	-2.297242	-1.645271
F	-2.760643	0.0	0.0
