15

C	0.0	0.0	0.0
C	-0.521306	0.107359	-1.421763
Cl	1.827032	0.0	0.0
H	-0.155624	1.010639	-1.89459
H	-1.620319	0.070749	-1.289082
N	-0.283786	1.421095	0.662476
O	-0.284061	2.419912	-0.045128
O	-0.440106	1.409168	1.876595
N	-0.565311	-1.028036	0.712008
H	-1.610881	-0.841835	0.554378
H	-0.320616	-0.941155	1.691347
N	-0.058638	-1.027135	-2.255327
O	-0.550325	-2.136709	-2.058669
O	0.780519	-0.777003	-3.127551
F	-2.78655	0.0	0.0
