15

C	0.0	0.0	0.0
C	-0.531027	0.009039	-1.419527
Cl	1.826559	0.0	0.0
H	-0.187626	0.886161	-1.95283
H	-1.631719	-0.029104	-1.271088
N	-0.282526	1.468566	0.566692
O	-0.397301	1.543877	1.783101
O	-0.328537	2.413143	-0.211903
N	-0.55919	-0.970537	0.794005
H	-0.311208	-0.804719	1.76228
H	-1.603543	-0.804843	0.625939
N	-0.065107	-1.164183	-2.193342
O	0.653965	-0.939238	-3.173418
O	-0.444424	-2.281286	-1.852999
F	-2.783927	0.0	0.0
