15

C	0.0	0.0	0.0
C	-0.540007	0.01333	-1.424476
Cl	1.776593	0.0	0.0
H	-0.085444	0.810896	-2.001483
H	-1.634497	0.08435	-1.279435
N	-0.318083	1.449867	0.571474
O	-0.464572	1.517786	1.784401
O	-0.346598	2.397085	-0.205086
N	-0.576354	-0.996948	0.758547
H	-0.326169	-0.87552	1.73269
H	-1.622072	-0.812012	0.599251
N	-0.211581	-1.260102	-2.110886
O	-0.97385	-2.212513	-1.962241
O	0.802096	-1.278284	-2.81817
F	-2.801386	0.0	0.0
