14
Coordinates from ORCA-job run
  C   -0.52111787879729     -0.38805553115548      0.11201238229199
  C   0.56697238456156      0.71325301828238     -0.09077580404043
  Cl  -2.10739158204190      0.34076973405256      0.07453992318857
  H   1.53102959934590      0.19116876647527     -0.12267395970658
  N   -0.32269363730342     -1.34594534476078     -1.08403458840011
  O   0.78574405358958     -1.87599085891927     -1.07915645513841
  O   -1.21638351579643     -1.50769290516883     -1.89362586618340
  N   -0.37450464225538     -1.19034951099304      1.27258773866283
  H   -0.64343353166852     -0.69342773905571      2.11139830882576
  H   0.56113422073509     -1.56989701106798      1.34965711349097
  C   0.55411132905088      1.61206390568525      1.06209608450565
  N   0.53767465780215      2.29199128391724      2.01925185237031
  C   0.39207066638963      1.43393256781095     -1.35181260962141
  N   0.25778787638815      1.98817962489743     -2.37846412024575
