14
Coordinates from ORCA-job run
  C   -0.38649855300480     -0.39684464507213      0.06400372816297
  C   0.62742346329203      0.75472878792008     -0.10223303518680
  Cl  -2.05136308502482      0.24062795657140     -0.19240665898939
  H   1.62072568434463      0.29496133534653     -0.14904557087205
  N   -0.15272438653566     -1.43427177457616     -1.04047914734588
  O   -0.80827786360934     -2.46011694127333     -0.93619913206242
  O   0.67229887719962     -1.16674067326085     -1.90479629840440
  N   -0.16922220994588     -1.07830136755811      1.27341127779164
  H   -0.75918993638608     -1.90099652986565      1.32748094733337
  H   -0.32915882685221     -0.48428146910667      2.07851098829986
  C   0.55807402946864      1.60655308749079      1.08847304248279
  N   0.49615203419934      2.24878311854842      2.06948630801314
  C   0.41419460289965      1.55000117432739     -1.31259317650400
  N   0.26756616995488      2.22489794050830     -2.26161327271883
