14
Coordinates from ORCA-job run
  C   -0.51113732123474     -0.38184682609198      0.19805737795420
  C   -0.01764725119796      1.03262469593464     -0.17275877044124
  Cl  -2.19167473874085     -0.30314014224914      0.73335872232505
  H   -0.68042523136160      1.42682032438302     -0.94858138122229
  N   -0.55759654260746     -1.18601083081869     -1.15311298869904
  O   -0.24479813265391     -2.36564336041399     -1.07771202051297
  O   -0.91657454802326     -0.57658723405542     -2.15213468879029
  N   0.29009792722292     -0.97647545672352      1.17491835104117
  H   1.25558953423847     -1.05981857789404      0.87673825263672
  H   -0.06368977090586     -1.88199956851342      1.45479040558972
  C   1.34098429405818      0.93488079778620     -0.71557416901606
  N   2.42899764564971      0.79570390291427     -1.13553375050259
  C   -0.04975582638698      1.90694360615637      0.99997180340565
  N   -0.08137003805666      2.63554866958569      1.91957285623196
