14
Coordinates from ORCA-job run
  C   -0.50158616568179     -0.41549753236352      0.09725700963041
  C   0.52627947259897      0.74642973810223     -0.08131887667846
  Cl  -2.12548688389408      0.21376287201863     -0.02748844886594
  H   1.52003824164369      0.28287405713809     -0.06021574163950
  N   -0.19070430063303     -1.38283983638164     -1.06710884383098
  O   -1.03567200778933     -1.61673644620005     -1.91073521167802
  O   0.94681643348729     -1.84273641081794     -1.00173716615525
  N   -0.36024946316257     -1.18463843429860      1.28014933752136
  H   -0.69560823877873     -0.69036103209205      2.09616727097347
  H   0.59031970351590     -1.50980835698612      1.40530210213861
  C   0.40817734554878      1.66367799887874      1.05067037409028
  N   0.30919557852792      2.35711803076508      1.99307975020794
  C   0.36516258479727      1.43050228466318     -1.36436486593256
  N   0.24431769981973      1.95025306757398     -2.41065668978135
