14
Coordinates from ORCA-job run
  C   -0.54694678186242     -0.44181365197261      0.21056825558366
  C   -0.05085960685127      0.98501904390715     -0.20261467929513
  Cl  -2.16499393483391     -0.25577798818207      0.89303494453001
  H   -0.80045693560105      1.43529780689722     -0.86136504442611
  N   -0.66200295995150     -1.19270463773957     -1.13613544629767
  O   0.02525116727869     -2.19336307597042     -1.27629587294765
  O   -1.39820740504511     -0.67467365038963     -1.96464226189373
  N   0.25959139790321     -1.19360294715642      1.07691298933437
  H   1.15499237278026     -1.43994864121175      0.67626667854750
  H   0.34382242965495     -0.77240179046123      1.99198408297372
  C   1.21980254687000      0.85381800756301     -0.91864187827916
  N   2.23593109085386      0.68577956343274     -1.48363076447442
  C   0.12118158998659      1.79634379231694      1.00131328679085
  N   0.26389502881770      2.41002816896662      1.99224570985377
