14
Coordinates from ORCA-job run
  C   -0.44945202306877     -0.41426159424559      0.13101037157463
  C   0.00111598227596      1.02286208293774     -0.19899372030517
  Cl  -2.16481804037977     -0.30902823399629      0.72483057149423
  H   -0.74908543332006      1.47674450202196     -0.85239581717635
  N   -0.55157847142203     -1.20441017916096     -1.17826499357172
  O   -0.42125508551088     -2.41585868324342     -1.08550431890250
  O   -0.79906372979892     -0.56007676173898     -2.18851223279940
  N   0.45494995861807     -1.06873127831977      0.96252520759760
  H   0.54046280366883     -0.62950558013850      1.87046180822856
  H   0.24874525661153     -2.05582675146287      1.04757979091082
  C   1.29389736073695      1.00444764278877     -0.88980029794643
  N   2.32322560620771      0.99801652859733     -1.45408246349648
  C   0.09653913615618      1.78741563900957      1.04695978948812
  N   0.17631667922520      2.37021266695100      2.06318630490409
