14
Coordinates from ORCA-job run
  C   -0.46293650576135     -0.40085165017687      0.12771339948008
  C   0.03679728582117      1.02540463592867     -0.17738461387846
  Cl  -2.16774094254022     -0.24609039086584      0.73940169514603
  H   -0.70294538970995      1.52052343137236     -0.81260232020133
  N   -0.60422512612523     -1.15975647486148     -1.19638082298669
  O   -0.83946716555112     -0.48634009081217     -2.19054818976391
  O   -0.51551110783360     -2.37669357566403     -1.12992912821777
  N   0.42439387656919     -1.10429704870500      0.93776915518208
  H   0.18328019224613     -2.08503425870610      1.00395471929547
  H   0.53036975502922     -0.68794097882529      1.85434437632645
  C   1.32016365046649      0.97554323988918     -0.88433670615301
  N   2.33934630124933      0.94929007081743     -1.46606942232250
  C   0.17385294571072      1.75902839672582      1.08327094695310
  N   0.28562223042922      2.31621469388333      2.11079691114046
