16

C	-0.46457	0.033727	-1.457139
C	0.0	0.0	0.0
Cl	-2.240966	0.141817	-1.587753
H	1.09592	0.0	0.0
N	0.1338	1.278663	-2.153863
O	-0.389986	2.349173	-1.892785
O	1.102446	1.072994	-2.870679
C	-0.024677	-1.149509	-2.189281
N	0.270029	-2.142535	-2.745712
C	-0.425291	-1.289727	0.707066
H	0.001795	-2.150667	0.1908
H	-0.011576	-1.271019	1.716416
H	-1.511	-1.389078	0.764725
C	-0.485746	1.163776	0.732268
N	-0.875195	2.050865	1.396833
Br	3.352937	0.0	0.0
