16

C	-0.389899	0.04804	-1.480817
C	0.0	0.0	0.0
Cl	0.107458	-1.425479	-2.328359
H	1.106881	0.0	0.0
N	-1.923461	0.154429	-1.671529
O	-2.34086	0.967368	-2.487061
O	-2.599207	-0.612982	-1.001168
C	0.206793	1.204958	-2.14302
N	0.662829	2.145095	-2.681366
C	-0.409142	-1.229997	0.814794
H	0.163051	-1.191907	1.743476
H	-0.118356	-2.138326	0.287736
H	-1.473667	-1.258917	1.037109
C	-0.47524	1.226788	0.629485
N	-0.894375	2.190632	1.156455
Br	3.348634	0.0	0.0
