16

C	-0.492944	-0.061669	-1.448717
C	0.0	0.0	0.0
Cl	-2.258689	-0.18403	-1.547211
H	1.094161	0.0	0.0
N	-0.030987	1.231823	-2.177729
O	-0.866881	2.077218	-2.453771
O	1.174041	1.2729	-2.369564
C	0.091723	-1.187053	-2.172086
N	0.486348	-2.122003	-2.765048
C	-0.409635	-1.238071	0.800544
H	-0.038119	-2.134141	0.299452
H	0.074181	-1.183344	1.776626
H	-1.489959	-1.309256	0.933917
C	-0.489708	1.224393	0.623526
N	-0.903	2.203073	1.12556
Br	3.414402	0.0	0.0
