16

C	-0.476689	0.16154	-1.453034
C	0.0	0.0	0.0
Cl	0.226151	1.597796	-2.184749
H	1.108216	0.0	0.0
N	-0.017557	-1.089984	-2.238488
O	1.096447	-1.074361	-2.727222
O	-0.821987	-2.018574	-2.238527
C	-1.933145	0.222715	-1.566095
N	-3.102936	0.31246	-1.649708
C	-0.459249	-1.309242	0.646767
H	-1.5434	-1.440257	0.602679
H	0.031085	-2.15512	0.165865
H	-0.140554	-1.295035	1.690493
C	-0.498714	1.144817	0.754574
N	-0.958631	2.031449	1.371723
Br	3.393278	0.0	0.0
