15

C	-0.578966	-0.028393	-1.41637
C	0.0	0.0	0.0
Cl	0.030823	1.39392	-2.346768
H	1.098056	0.0	0.0
H	-0.343432	-0.918884	0.492332
C	-0.148419	-1.237383	-2.12362
N	0.095468	-2.238425	-2.688399
C	-2.101866	0.040001	-1.421207
H	-2.489739	0.07846	-2.441081
H	-2.393678	0.933104	-0.870081
H	-2.504853	-0.844363	-0.917856
N	-0.500798	1.185814	0.713045
H	-0.7169	0.920832	1.665385
H	0.286457	1.824904	0.772922
H	2.934298	0.0	0.0
