15

C	-0.58244	-0.05454	-1.414627
C	0.0	0.0	0.0
Cl	0.026925	1.347826	-2.372017
H	1.098129	0.0	0.0
H	-0.345268	-0.906096	0.511355
C	-0.15083	-1.277806	-2.093913
N	0.12687	-2.296157	-2.606925
C	-2.105373	0.016079	-1.422653
H	-2.508303	-0.85439	-0.898442
H	-2.491604	0.03028	-2.442537
H	-2.39684	0.920965	-0.893752
N	-0.499274	1.201909	0.68799
H	-0.670835	0.963028	1.656196
H	0.278252	1.854641	0.699741
H	2.939612	0.0	0.0
