15

C	-0.586888	0.004144	-1.411266
C	0.0	0.0	0.0
Cl	-0.045613	1.507522	-2.254061
H	1.097428	0.0	0.0
H	-0.350385	0.913389	0.496219
C	-0.110963	-1.142742	-2.190451
N	0.179536	-2.083822	-2.830992
C	-2.110947	-0.008504	-1.402285
H	-2.471447	0.876756	-0.872078
H	-2.511942	-0.0011	-2.418557
H	-2.440986	-0.907809	-0.879644
N	-0.448996	-1.221443	0.682444
H	-0.967064	-0.994662	1.520844
H	0.390359	-1.718597	0.964998
H	2.915921	0.0	0.0
