15

C	-0.383163	0.061672	-1.495682
C	0.0	0.0	0.0
Cl	-0.083656	-1.560136	-2.229702
H	1.094017	0.0	0.0
H	-0.402665	-0.917407	0.437146
C	-1.813652	0.33922	-1.663541
N	-2.956017	0.609883	-1.736412
C	0.471009	1.091693	-2.222079
H	1.518974	0.863337	-2.001882
H	0.277088	1.078052	-3.296585
H	0.242905	2.087002	-1.832722
N	-0.414471	1.164494	0.76304
H	0.275241	1.8962	0.663943
H	-1.329362	1.511717	0.505643
H	2.969449	0.0	0.0
