15

C	-0.5088	-0.025383	-1.447526
C	0.0	0.0	0.0
Cl	0.146075	1.416652	-2.312995
H	1.092834	0.0	0.0
H	-0.372759	0.925454	0.455483
C	-0.048733	-1.228213	-2.148637
N	0.204676	-2.223813	-2.718651
C	-2.030814	0.048219	-1.558484
H	-2.378793	0.953707	-1.057323
H	-2.343601	0.075746	-2.604167
H	-2.491258	-0.822771	-1.085217
N	-0.387886	-1.168326	0.77906
H	0.338215	-1.867594	0.67917
H	-1.275322	-1.570505	0.510765
H	2.915021	0.0	0.0
