15

C	-0.507284	-0.008851	-1.453331
C	0.0	0.0	0.0
Cl	0.069545	1.468743	-2.32063
H	1.09279	0.0	0.0
H	-0.354537	-0.937091	0.449655
C	0.019227	-1.177777	-2.163587
N	0.320729	-2.162383	-2.730354
C	-2.029852	-0.033488	-1.570271
H	-2.340084	-0.049893	-2.616603
H	-2.418709	-0.922016	-1.064245
H	-2.455818	0.857599	-1.104264
N	-0.413399	1.141449	0.799358
H	0.289618	1.862091	0.687155
H	-1.309407	1.519538	0.524604
H	2.919754	0.0	0.0
