15

C	-0.383889	0.062568	-1.49394
C	0.0	0.0	0.0
Cl	-0.065363	-1.555235	-2.230892
H	1.09402	0.0	0.0
H	-0.401616	-0.918718	0.435803
C	-1.816668	0.325782	-1.663373
N	-2.956208	0.599361	-1.756648
C	0.45677	1.104166	-2.220114
H	0.213776	2.096248	-1.831069
H	0.265296	1.087073	-3.294759
H	1.50725	0.888011	-1.999668
N	-0.415592	1.164241	0.764699
H	-1.319645	1.527755	0.493259
H	0.287723	1.886454	0.682826
H	2.971061	0.0	0.0
