19

C	0.0	0.0	0.0
C	-0.527341	0.023187	-1.439439
Br	1.973443	0.0	0.0
H	-1.622353	0.067883	-1.343713
C	-0.462664	1.197681	0.814018
H	-1.55504	1.237078	0.759277
H	-0.044455	2.13593	0.451389
H	-0.157741	1.058889	1.854051
C	-0.464496	-1.295196	0.651563
H	-1.559601	-1.289683	0.650417
H	-0.10353	-1.334067	1.682397
H	-0.102887	-2.163348	0.103501
N	-0.11361	-1.103552	-2.201271
H	0.872562	-1.024211	-2.4197
H	-0.635782	-1.147138	-3.066993
N	-0.138347	1.340769	-2.125141
O	-0.787171	2.345127	-1.84293
O	0.797389	1.312389	-2.928186
Cl	-3.810229	0.0	0.0
