19

C	0.0	0.0	0.0
C	-0.201217	0.354142	-1.523305
Br	1.978451	0.0	0.0
H	0.460965	-0.30806	-2.080153
C	-0.554328	1.046111	0.937559
H	-1.646867	1.028504	0.822632
H	-0.307301	0.792753	1.971014
H	-0.169811	2.043951	0.722999
C	-0.495436	-1.386934	0.353729
H	-1.590489	-1.360704	0.334445
H	-0.159837	-1.651743	1.36046
H	-0.140488	-2.135839	-0.354755
N	0.055545	1.721064	-1.90455
H	-0.743655	2.286741	-1.644826
H	0.881148	2.052344	-1.423814
N	-1.547947	-0.010913	-2.1188
O	-1.71667	-1.208198	-2.334568
O	-2.30847	0.894666	-2.426855
Cl	-3.964442	0.0	0.0
