15
Coordinates from ORCA-job run
  C   -1.11083699462384      0.22429065213344     -0.14757988834578
  C   0.40514959423519      0.30487365321495     -0.22774774996522
  H   -1.58383092642334      1.00812288104840     -0.73940132615962
  H   0.72514328800778      0.25181309216243     -1.26923312235909
  H   -1.47387848163234      0.24359212009889      0.87612037018711
  N   -1.51671371189116     -1.08015307442494     -0.74537751118231
  O   -1.27305542144964     -1.23287187376431     -1.94068221317952
  O   -2.03462778683851     -1.91093464818165     -0.00285351177086
  C   1.11218050282054     -0.74586022629012      0.61165019803620
  H   0.81431060735075     -0.66122024479374      1.65933182339762
  H   0.85710989374542     -1.74591445726866      0.25710451655684
  H   2.19258325189500     -0.62001886395098      0.53350870882200
  N   0.84324638385836      1.65931390516959      0.24994148089057
  O   1.95448216821513      2.02887405863940     -0.11564890546912
  O   0.08873763273067      2.27709302620731      0.99986713054118
