15
Coordinates from ORCA-job run
  C   -1.12525045913837      0.18556308131662      0.07282252414811
  C   0.34711214138415      0.33734386845749     -0.27427376042114
  H   -1.72236424553756      0.98624085950409     -0.36399228883474
  H   0.47190563584848      0.37003187031941     -1.35738748682357
  H   -1.29405859370678      0.12050405401629      1.14397033544154
  N   -1.59397787147855     -1.09224830481865     -0.53618035112828
  O   -1.56821941751979     -1.15429996358315     -1.76374324662451
  O   -1.94208254470425     -1.99217159479435      0.22452539193875
  C   1.22760752199948     -0.73671793462126      0.34192855476467
  H   0.94404194777436     -1.72002687358081     -0.03695019089152
  H   1.12286041850325     -0.73863279922201      1.42936089535385
  H   2.27128216409631     -0.55745846377197      0.08132932795372
  N   0.82404135127839      1.67360844712221      0.21730615550826
  O   1.83143390036912      2.12065274955336     -0.32157116283100
  O   0.20766805083178      2.19961100410272      1.14285530244584
