15
Coordinates from ORCA-job run
  C   -0.78668411321148     -0.09059564464339     -0.92738403520594
  C   0.60227062174410      0.17107184467849     -0.37455827557042
  H   -1.17400135348983      0.79429345340442     -1.43196597425132
  H   1.27051367327886      0.27237039771847     -1.23586213774538
  H   -0.78490714217358     -0.94733434537759     -1.59918254673330
  N   -1.73365100743559     -0.41581934552218      0.17771428290301
  O   -2.37880427769060     -1.45698242198515      0.09061963426052
  O   -1.78598031783769      0.39456005901841      1.10012380124874
  C   1.10243250999556     -0.89601616661417      0.57560173348361
  H   2.13457523183527     -0.70317495077080      0.86354629827407
  H   1.05290326260792     -1.86939827443103      0.08138829326567
  H   0.50074080306983     -0.92646844037486      1.48337171223405
  N   0.64081962511784      1.54847627702750      0.25731598400632
  O   1.12908151713629      1.65845067636981      1.37521017226588
  O   0.21269096705311      2.46656688150207     -0.43493894243551
