17

C	0.0	0.0	0.0
C	-0.513896	-0.187475	-1.436957
F	1.377662	0.0	0.0
H	-1.544145	-0.54016	-1.342877
C	-0.340655	1.352953	0.53019
N	-0.549337	2.42607	0.960123
N	-0.477568	-1.072684	0.815683
H	-0.224173	-0.897006	1.782408
H	-1.500503	-1.045151	0.754306
C	0.337898	-1.229117	-2.144171
H	1.326611	-0.820934	-2.363801
H	-0.141959	-1.520903	-3.083581
H	0.446618	-2.117409	-1.520899
N	-0.444863	1.091412	-2.151013
H	-0.561779	0.90029	-3.140231
H	-1.25448	1.638461	-1.870264
Cl	-3.580905	0.0	0.0
