17

C	0.0	0.0	0.0
C	-0.353698	0.211959	-1.513406
F	1.387895	0.0	0.0
H	0.477433	-0.323777	-1.988059
C	-0.35669	1.152854	0.869232
N	-0.560117	2.075124	1.568152
N	-0.501796	-1.250002	0.465693
H	-1.517161	-1.223766	0.350342
H	-0.316859	-1.345487	1.458845
C	-0.265476	1.686307	-1.882893
H	0.657368	2.141159	-1.512793
H	-1.11629	2.230529	-1.464771
H	-0.302105	1.777049	-2.969861
N	-1.573529	-0.353158	-2.023874
H	-1.561271	-1.361128	-1.927086
H	-2.39714	-0.019736	-1.519929
Cl	-4.000545	0.0	0.0
