17

C	0.0	0.0	0.0
C	-0.523953	0.056259	-1.463849
F	1.409042	0.0	0.0
H	0.375177	-0.121668	-2.066083
C	-0.293963	1.233176	0.780696
N	-0.482817	2.215538	1.394568
N	-0.50971	-1.105916	0.679998
H	-0.673727	-1.893828	0.070689
H	-0.053082	-1.299644	1.556769
C	-1.116103	1.417708	-1.823066
H	-1.377814	1.420434	-2.885788
H	-2.031011	1.57737	-1.247667
H	-0.415681	2.238676	-1.640606
N	-1.440571	-1.058297	-1.686619
H	-1.629895	-1.121253	-2.680074
H	-2.331099	-0.84213	-1.219142
Cl	-4.157985	0.0	0.0
