17

C	0.0	0.0	0.0
C	-0.526075	-0.385169	-1.414111
F	1.407202	0.0	0.0
H	0.380763	-0.639414	-1.975218
C	-0.275998	1.419595	0.364402
N	-0.408373	2.539833	0.690829
N	-0.541856	-0.825538	0.975844
H	-0.198705	-0.683796	1.910657
H	-0.690224	-1.774996	0.671873
C	-1.247835	0.772939	-2.100736
H	-1.603985	0.443541	-3.081913
H	-2.126347	1.042101	-1.509846
H	-0.600278	1.642446	-2.238929
N	-1.349433	-1.587352	-1.304055
H	-1.484434	-1.972058	-2.230308
H	-2.269661	-1.303497	-0.951209
Cl	-4.183283	0.0	0.0
