17

C	0.0	0.0	0.0
C	-0.46728	0.105491	-1.469677
F	1.388752	0.0	0.0
H	-0.002184	-0.773999	-1.94594
C	-0.394649	1.192754	0.778585
N	-0.622516	2.182237	1.367693
N	-0.525828	-1.162107	0.601725
H	-0.275965	-1.988976	0.076928
H	-0.272432	-1.255901	1.573966
C	0.091352	1.359799	-2.128315
H	1.173645	1.438127	-2.012806
H	-0.162127	1.336055	-3.188963
H	-0.372924	2.250207	-1.692518
N	-1.889489	0.040097	-1.675868
H	-2.332462	-0.721031	-1.171797
H	-2.371372	0.860519	-1.320513
Cl	-4.742118	0.0	0.0
