17

C	0.0	0.0	0.0
C	-0.412493	0.215099	-1.511013
F	1.377947	0.0	0.0
H	0.552925	0.084371	-2.013604
C	-0.334719	1.151136	0.88685
N	-0.505288	2.044801	1.630948
N	-0.490003	-1.245767	0.491952
H	-0.281464	-1.321006	1.482369
H	-1.508626	-1.211713	0.399323
C	-0.922858	1.622787	-1.770062
H	-0.204831	2.378021	-1.440319
H	-1.865738	1.772418	-1.239789
H	-1.108899	1.753231	-2.83781
N	-1.32804	-0.746267	-2.084582
H	-2.250599	-0.612024	-1.670924
H	-1.0199	-1.683168	-1.854312
Cl	-3.722147	0.0	0.0
