17

C	0.0	0.0	0.0
C	-0.365568	0.30364	-1.49683
F	1.387731	0.0	0.0
H	0.505237	-0.128617	-2.005212
C	-0.349125	1.097555	0.942928
N	-0.560354	1.972747	1.69792
N	-0.497724	-1.275975	0.39756
H	-1.515719	-1.234157	0.314409
H	-0.282499	-1.433719	1.376444
C	-0.396666	1.801836	-1.758224
H	-0.458936	1.967452	-2.834932
H	0.497142	2.297723	-1.369246
H	-1.277083	2.249309	-1.288925
N	-1.535122	-0.319078	-2.058841
H	-1.459842	-1.325607	-1.978721
H	-2.383947	-0.043744	-1.562012
Cl	-3.947849	0.0	0.0
