17

C	0.0	0.0	0.0
C	-0.54049	0.262749	-1.396318
F	1.419176	0.0	0.0
H	-1.613433	0.429809	-1.230916
C	-0.338191	1.121444	0.906199
N	-0.502201	2.024639	1.636096
N	-0.482633	-1.207373	0.541076
H	-0.251987	-1.310175	1.518129
H	-0.173797	-2.007294	0.009112
C	-0.368854	-0.948949	-2.310327
H	-1.009762	-1.774769	-1.994421
H	0.676481	-1.277085	-2.342987
H	-0.670992	-0.673727	-3.32376
N	0.075009	1.491008	-1.887265
H	-0.501197	1.88396	-2.619541
H	0.991919	1.291535	-2.269503
Cl	-3.925969	0.0	0.0
