18

C	-0.266331	0.05729	-1.514078
C	0.0	0.0	0.0
Br	-0.104168	-1.89755	-2.295636
H	1.097094	0.0	0.0
N	-1.642947	0.368755	-1.860808
H	-1.804341	0.163684	-2.840589
H	-1.742047	1.372832	-1.73222
N	0.705941	0.884234	-2.082661
H	0.718962	0.857937	-3.094074
H	1.635947	0.690173	-1.678733
N	-0.553491	-1.122479	0.730077
H	-1.469084	-1.335859	0.345534
H	0.037471	-1.926498	0.55497
C	-0.48011	1.301718	0.635237
H	-0.103645	2.171312	0.09161
H	-1.574624	1.339366	0.683793
H	-0.091992	1.332373	1.65513
H	2.960848	0.0	0.0
