18

C	-0.422771	0.028895	-1.462262
C	0.0	0.0	0.0
Br	0.077904	-1.86825	-2.243355
H	1.094292	0.0	0.0
N	-1.803705	0.24526	-1.619681
H	-2.296627	-0.388385	-0.999172
H	-2.081511	0.0903	-2.580401
N	0.335334	0.918483	-2.285224
H	0.029227	1.860622	-2.06654
H	1.317059	0.821502	-2.020986
N	-0.631313	-1.12432	0.706848
H	-0.134247	-1.964219	0.424681
H	-0.418267	-1.001461	1.691462
C	-0.421509	1.292968	0.691858
H	0.071472	1.332473	1.669163
H	-1.504911	1.347554	0.826301
H	-0.083684	2.169101	0.136105
H	2.993135	0.0	0.0
