19

C	-0.416953	-0.115603	-1.473922
C	0.0	0.0	0.0
F	-1.733889	-0.535101	-1.557254
H	1.095432	0.0	0.0
N	-0.40383	1.263216	-2.107482
O	0.699	1.70581	-2.410949
O	-1.474088	1.854082	-2.229206
C	0.45771	-1.036812	-2.281255
H	0.359185	-2.044041	-1.874313
H	1.498376	-0.722743	-2.191763
H	0.140992	-1.044323	-3.327108
N	-0.391899	-1.206454	0.732766
H	0.333242	-1.905943	0.640542
H	-1.263614	-1.579283	0.380407
C	-0.56	1.235777	0.68406
H	-0.268132	1.191388	1.733254
H	-1.652464	1.263302	0.621912
H	-0.156359	2.154654	0.253051
Br	3.597449	0.0	0.0
