19

C	-0.490148	-0.010204	-1.446482
C	0.0	0.0	0.0
F	0.040602	1.069886	-2.102504
H	1.102752	0.0	0.0
N	0.090213	-1.235876	-2.156251
O	-0.577939	-2.271111	-2.095175
O	1.167724	-1.108897	-2.718025
C	-1.984961	-0.017414	-1.641047
H	-2.221863	-0.140418	-2.69979
H	-2.426424	-0.825996	-1.065197
H	-2.382004	0.940386	-1.302298
N	-0.540754	-1.177662	0.697576
H	0.031595	-1.979559	0.449598
H	-0.374997	-1.029678	1.687919
C	-0.463609	1.264475	0.704531
H	-0.194405	2.148737	0.126504
H	-1.542686	1.251621	0.886599
H	0.052864	1.333674	1.665617
Br	3.548532	0.0	0.0
