15
Coordinates from ORCA-job run
  C   -0.47054568783523      0.34151404527443     -0.02405257541336
  C   0.42882313835444     -0.67846457165232      0.11100498030259
  N   -1.85015363386031      0.08245571719355      0.34335588978599
  O   -2.67095376396566      0.96906266926972      0.10461386511295
  O   -2.14678749868360     -1.00196248939794      0.86779601941089
  C   -0.20575260855306      1.72360901400004     -0.53221860010434
  H   -0.51307652756553      1.82518727108314     -1.57559791415179
  H   -0.78838842493507      2.43208407416730      0.05556582164314
  H   0.84663760152433      1.98586571181238     -0.46193346355280
  N   1.82474205102989     -0.43983340069671     -0.33337262024418
  O   2.70562319849434     -0.92853978645318      0.37437336283943
  O   2.00445406583130      0.18057389465747     -1.37656923555695
  N   0.28250106487792     -1.95047999360402      0.54604883937198
  H   -0.57663213547510     -2.14596877867227      1.03581617063291
  H   1.12950916076133     -2.39510337698157      0.86516945992354
