15
Coordinates from ORCA-job run
  C   -0.46881154271521      0.33167941048993     -0.10937990189486
  C   0.43019857082000     -0.66397939260115      0.17073213460019
  N   -1.86957390418911      0.06273672834699      0.13693531583529
  O   -2.64664504838465      1.01615352565400      0.06539670516785
  O   -2.23151928903621     -1.09260669661389      0.41534225657077
  C   -0.17081685739145      1.71298763285918     -0.60235537992563
  H   -0.14857958315638      2.43481492871964      0.21697237660950
  H   0.78426317632044      1.75713900149606     -1.11979480340903
  H   -0.96041613729533      2.01465612471184     -1.29000487460517
  N   1.87903939600579     -0.34811078686222      0.08813763819742
  O   2.24213192192276      0.77436647662111      0.42882245060250
  O   2.61811522910340     -1.26420883210975     -0.27044221832224
  N   0.23362334144627     -1.95960296419859      0.47087739956269
  H   -0.71218756926604     -2.25823945309215      0.64556266834199
  H   1.02017829581573     -2.51778570342101      0.75419823266873
