15
Coordinates from ORCA-job run
  C   -0.47410116792530      0.33314349078017     -0.05193486533101
  C   0.45277382516466     -0.62708916424960      0.24213814116811
  N   -1.84502999386952      0.10195749155898      0.36245109681814
  O   -2.15292129674185     -0.98862290310006      0.86732390962140
  O   -2.64561270019435      1.02251511828585      0.19331302842749
  C   -0.24281595832222      1.63244358529639     -0.75675582502544
  H   -0.18457455450698      2.46058106711983     -0.04661413281687
  H   0.67543395834943      1.61920404405630     -1.33787237022299
  H   -1.08286221661130      1.82605040766192     -1.42287978729249
  N   1.86832103015437     -0.36241968672710     -0.11669412398570
  O   2.31613611640508      0.76297447228335      0.07902182496946
  O   2.50141687328064     -1.32386576544598     -0.55294391805611
  N   0.34076534063237     -1.81688251395533      0.87488765650397
  H   -0.59964148093478     -2.16008324582341      0.99299161962027
  H   1.07371222511974     -2.47990639774130      0.67456774560178
