15
Coordinates from ORCA-job run
  C   -0.46708728104411      0.34731778451291     -0.00606136769867
  C   0.44056696455335     -0.66099162519532      0.16017162067644
  N   -1.83547650005656      0.10317363787062      0.40976632914162
  O   -2.16444082162562     -1.03290956404749      0.78409906066239
  O   -2.61231933253764      1.05819291938113      0.37409137671696
  C   -0.21444351562717      1.71172645057746     -0.56578178222120
  H   -1.07030654503132      2.00714183306662     -1.17153892245177
  H   0.68073865637666      1.73603883984086     -1.18181015630249
  H   -0.09980676517051      2.45047466327955      0.23075965318694
  N   1.85638739666739     -0.38934244595608     -0.19195128293391
  O   2.46243304868386     -1.31328465951747     -0.73487540628136
  O   2.33125339453662      0.70121903413360      0.10908581033522
  N   0.30838302194718     -1.91120155251035      0.65813537979183
  H   -0.63859799756547     -2.24461263553655      0.74893423438764
  H   1.02371627589336     -2.56394267989949      0.37697545299035
