15
Coordinates from ORCA-job run
  C   -0.42076325141408      0.34887478900006     -0.17911993152758
  C   0.57629203257726     -0.49271957377826      0.16411721886277
  N   -1.08138586468873      0.19672865400241     -1.46807086071465
  O   -2.29083400700505      0.42951192879891     -1.48159001115130
  O   -0.40009754178964     -0.10789852945692     -2.44578300390587
  C   -0.97862257980940      1.40623384124958      0.71645916306953
  H   -1.80488660187310      1.02107807183826      1.31945970158217
  H   -1.36005897838632      2.23786321814335      0.12385293338354
  H   -0.21123184568026      1.79996206507745      1.38765318556804
  N   0.99893535802350     -1.61130389448622     -0.70459536856334
  O   0.14158337416874     -2.40128953787453     -1.07567806803456
  O   2.20780618846990     -1.68075802540860     -0.91954318813129
  N   1.25230407192178     -0.54482528329480      1.35788791423030
  H   2.20294345982246     -0.87429972910013      1.26353812433293
  H   1.16901618566292      0.27184200528944      1.94241219099931
