15
Coordinates from ORCA-job run
  C   -0.47709738544396      0.31865359661380     -0.09845375217975
  C   0.44006182901827     -0.63334518351613      0.24837869736880
  N   -1.85683488853955      0.10755215445613      0.29695997339336
  O   -2.14049987547421     -0.85575576992416      1.02551202257695
  O   -2.69144113020591      0.90842692056541     -0.12600103675472
  C   -0.22980990371586      1.57953799305793     -0.86521780104548
  H   0.81545135786002      1.87536124892090     -0.83064739212647
  H   -0.51718134259901      1.46664419049062     -1.91309523345815
  H   -0.83831403467126      2.37574706483592     -0.43791104040761
  N   1.83771149199736     -0.45769001613522     -0.21929412381396
  O   2.71680231812751     -0.77593830944502      0.58172911865653
  O   2.02119266473382     -0.05244443033517     -1.36276392466850
  N   0.31155185695163     -1.79589837467407      0.92696742737827
  H   -0.55146319178153     -1.90869565695039      1.43557444626408
  H   1.16187023374268     -2.15015542796055      1.33726261881666
