15
Coordinates from ORCA-job run
  C   -0.46931977247597      0.33798538158710     -0.06881640668870
  C   0.43940279603198     -0.62672488797876      0.26507646296316
  N   -1.85053790713958      0.13353890345239      0.32426434689700
  O   -2.18360996848680     -0.94385676289672      0.84149255288257
  O   -2.63472710850005      1.06211909337843      0.12453826697731
  C   -0.20673512937621      1.61694746665395     -0.79964728335918
  H   -1.03651256965224      1.81037702821679     -1.47851999202228
  H   0.71637052742628      1.57265216826614     -1.37174455220441
  H   -0.13886894999389      2.46016378843398     -0.10846754845155
  N   1.86529163523839     -0.38728707227980     -0.07043947038072
  O   2.32140714350187      0.73852149675751      0.10261148703110
  O   2.49649288082296     -1.36697959845257     -0.46710735125746
  N   0.29900760862349     -1.80016826621994      0.92165640846088
  H   -0.64794043422430     -2.12946816309479      1.02662515585148
  H   1.02927924820406     -2.47582057582371      0.75747792330078
