15
Coordinates from ORCA-job run
  C   -0.46427676701083      0.35154661884365     -0.05070029811208
  C   0.43706790385160     -0.64425061266283      0.22187655213254
  N   -1.86711782431690      0.06561570864267      0.16287078469368
  O   -2.19675457999894     -0.97910662445960      0.74864212037060
  O   -2.67999504726957      0.88742246676789     -0.26358080643380
  C   -0.17741441855785      1.71169199258214     -0.60511705201292
  H   0.84358853898086      2.02231886061610     -0.39831124054235
  H   -0.86443170016877      2.42464802438926     -0.15014174322083
  H   -0.33152688600163      1.74420477308028     -1.68589196960594
  N   1.85820162094055     -0.42979635857218     -0.15314756580897
  O   2.09206081501320      0.20219635294383     -1.17987038458597
  O   2.70052587126411     -0.95262821740451      0.57569344850293
  N   0.27537697444559     -1.82093365094941      0.85201781288403
  H   1.03915862953061     -2.47448706466285      0.86086637214252
  H   -0.66546313070205     -2.10944226915443      1.06579396959656
