15
Coordinates from ORCA-job run
  C   -0.45822085761575      0.35602704345989     -0.06107228435332
  C   0.41096140238769     -0.68990066347249      0.10826516374948
  N   -1.84897493646940      0.13634682183943      0.27727979394183
  O   -2.58116187014501      1.12645631554543      0.31499033597670
  O   -2.24570761522536     -1.01527098939413      0.52084685765951
  C   -0.13448336681849      1.74503469983551     -0.51446666629211
  H   -0.95995013740888      2.11309953965742     -1.12315729737311
  H   0.77895978612977      1.77180431394730     -1.10320557636394
  H   -0.01544727627927      2.42535900128728      0.33156133434192
  N   1.86409179812099     -0.43291313263455     -0.06292100885024
  O   2.53643623590425     -1.36650827206050     -0.49922652950164
  O   2.29941530992182      0.66053845151552      0.28804246701039
  N   0.17440603994870     -1.99087031712997      0.35496039058567
  H   0.95222796966568     -2.58800437056497      0.57710873229324
  H   -0.76955248211673     -2.25219844183118      0.58999428717563
