15
Coordinates from ORCA-job run
  C   -0.45461601865605      0.36211018813691     -0.00615760080455
  C   0.41692956798850     -0.67835146635886      0.15366697595619
  N   -1.83996696163460      0.15083807697063      0.36989909743933
  O   -2.58507235122881      1.13100636586980      0.33906317491054
  O   -2.21378230940469     -0.98326653824487      0.70601255603269
  C   -0.14915161941017      1.73149442744914     -0.52569341186002
  H   0.77276871456789      1.74929171765695     -1.10083247660321
  H   -0.05530635074474      2.45054493898614      0.29135651352817
  H   -0.97106713093357      2.05863523205647     -1.16168908306209
  N   1.84841194596573     -0.44297567766627     -0.15834696514801
  O   2.43589125031674     -1.36926840733903     -0.71755115209436
  O   2.35213398719209      0.62058930616616      0.18864621967227
  N   0.23394716392686     -1.93613566074790      0.61557162299358
  H   -0.72494453787611     -2.24156995272461      0.67436102735762
  H   0.93382464993092     -2.60394255021066      0.33069350168182
