15
Coordinates from ORCA-job run
  C   -0.47062741995402      0.33664902410243     -0.06063589997298
  C   0.43390800889822     -0.65131009756587      0.21019882109597
  N   -1.87281085288732      0.05922224380711      0.18771735553458
  O   -2.66197040983616      0.99593478721517      0.05865210095805
  O   -2.21761984323936     -1.08542654697387      0.51939609653175
  C   -0.18606469168157      1.70907300892345     -0.58388003788058
  H   -0.20016342495368      2.44886272614689      0.21981590033660
  H   0.78161854306605      1.76157872072371     -1.07592112338559
  H   -0.96262067159655      1.98124028567082     -1.29793974309268
  N   1.87493451333654     -0.34559418212657      0.02984917961303
  O   2.56142359333984     -1.25089892474098     -0.44426777126663
  O   2.28612079011362      0.75128351045010      0.39481242118800
  N   0.27315251994734     -1.90626963433834      0.68768819997413
  H   1.03069658145687     -2.54170507627224      0.48939986558467
  H   -0.66997723600979     -2.26163984502181      0.66511463478168
