15
Coordinates from ORCA-job run
  C   -0.45906707316352      0.35804910602280     -0.01155692267873
  C   0.41393478969887     -0.68348279014573      0.13385429833987
  N   -1.86183962165001      0.11034663310197      0.26356105960844
  O   -2.61635306677837      1.08376000772839      0.25363011049444
  O   -2.24068156809944     -1.04708704235084      0.49991266353712
  C   -0.13704822953599      1.76125975811833     -0.41919530590770
  H   -0.08187512295074      2.42205727506098      0.44897045853014
  H   0.80933462620852      1.82025891557099     -0.95042876276353
  H   -0.93174836337612      2.13042183142235     -1.06645390239121
  N   1.85927641237710     -0.41522352647009     -0.07089161587172
  O   2.32431392240976      0.63078133246195      0.37078182555969
  O   2.49462503829945     -1.30004916459237     -0.64458770846724
  N   0.21855475197404     -1.97095856075630      0.49811658261691
  H   -0.73827709791414     -2.28748918163441      0.47600417052789
  H   0.94485060250061     -2.61164459353801      0.21728304886564
