15
Coordinates from ORCA-job run
  C   -0.47223458397904      0.32191986890733     -0.11526752332811
  C   0.43910153340255     -0.64226087641514      0.22750313115088
  N   -1.84771761479427      0.12278856403643      0.29076948150715
  O   -2.61624922778498      1.07625549057002      0.15576789117019
  O   -2.19593408748337     -0.97349224257049      0.75958392301346
  C   -0.21040986241130      1.60857642746545     -0.83304158825988
  H   -1.05497847885995      1.81898656107410     -1.48880619161755
  H   -0.11496977301296      2.44414866479156     -0.13621667890639
  H   0.69730932749677      1.55766146548556     -1.42886563316591
  N   1.87770664786093     -0.37224860188295     -0.02402502760134
  O   2.27721143638356      0.78139568766627      0.10997559375912
  O   2.57672528941298     -1.34676037301022     -0.29911310595292
  N   0.25633385277133     -1.88135613051699      0.71905326415125
  H   1.05963885137630     -2.39479082296845      1.03866972633770
  H   -0.67253331037857     -2.12182368263246      1.02601273774234
