15
Coordinates from ORCA-job run
  C   -0.46846385206849      0.34414367703619     -0.05878567305737
  C   0.44336073998213     -0.63849290045117      0.22620031549296
  N   -1.87051972639629      0.03545303305605      0.12961072467714
  O   -2.19371996097771     -1.01592254624076      0.70683319825757
  O   -2.68848173018655      0.84532602596649     -0.30959866648600
  C   -0.19367664028641      1.71192880019922     -0.60029453134103
  H   -0.32351845401433      1.74763440125374     -1.68415941102629
  H   0.81647952754209      2.03985049854650     -0.36837926874794
  H   -0.90377605004778      2.40977232483820     -0.15750921026079
  N   1.86737339707644     -0.40079452117441     -0.12390804069548
  O   2.70500649690570     -0.92119435700297      0.61210308361549
  O   2.10924763674666      0.24645428751292     -1.13917800615005
  N   0.28896121133959     -1.81952961804351      0.85004216517293
  H   -0.65075841073852     -2.12328606439113      1.04691007691326
  H   1.06248581512346     -2.46134304110534      0.86911324363560
