15
Coordinates from ORCA-job run
  C   -0.46525228457602      0.32048363851882     -0.14369384828041
  C   0.56496459459408     -0.44695344530196      0.27085158772604
  N   -1.07324170610237      1.28949916899148      0.76440825247464
  O   -2.29911783611121      1.38657393590704      0.72105280961954
  O   -0.32580925324311      1.96893631594686      1.46620400764974
  C   -0.99299109939693      0.29534468951450     -1.53820552958467
  H   -0.53761725676868      1.07381754255452     -2.15984362720386
  H   -2.06927288268398      0.46688891508486     -1.51526289486539
  H   -0.80861612188819     -0.67789606488285     -1.99776024347497
  N   0.93228435841251     -0.55336181133556      1.70110234890049
  O   0.02791311437524     -0.52160036030951      2.52635983276144
  O   2.12907628115675     -0.71801185198762      1.93903808606631
  N   1.30030755822745     -1.29170114727283     -0.52337603253864
  H   1.49272467136070     -0.94498090857748     -1.45025869035022
  H   2.12464786264374     -1.64803861685027     -0.06161605890005
