15
Coordinates from ORCA-job run
  C   -0.47551484440808      0.31826509717737     -0.12008462507106
  C   0.44295867700687     -0.63270835236412      0.24135942135009
  N   -1.84949550123189      0.11449206512815      0.28740051584783
  O   -2.62850990656570      1.05588446232888      0.12965296475985
  O   -2.18705415871769     -0.97534271050464      0.77886133014485
  C   -0.22153894199723      1.59512060987843     -0.85816845571942
  H   0.68189272320248      1.53772189567577     -1.46003170590891
  H   -0.12240958757833      2.44077457332963     -0.17413274569657
  H   -1.07109955420174      1.79381063801900     -1.51093098344176
  N   1.87967425567064     -0.35942625865022     -0.01822550576085
  O   2.58381895932147     -1.33576845988848     -0.27353960056344
  O   2.27306085452826      0.79894956030216      0.08912933198744
  N   0.27136221694817     -1.85726451763538      0.76814109935558
  H   -0.65626182121893     -2.11432916664405      1.06358341106155
  H   1.08011662924169     -2.38017943615250      1.05598554765483
