15
Coordinates from ORCA-job run
  C   -0.45945894581645      0.35743048136931     -0.02401362050900
  C   0.41871752753574     -0.67122825942282      0.17332285930322
  N   -1.84848549489346      0.14051849504212      0.33434941361590
  O   -2.60212745417884      1.11291172160262      0.27661604199322
  O   -2.21715814680270     -0.99112477903785      0.68452422661973
  C   -0.15441027284684      1.71905857626899     -0.56409341334034
  H   -0.04973052712583      2.45000734304636      0.24094103057755
  H   -0.98127078538387      2.03872317427163     -1.19718099949839
  H   0.76226145399808      1.72520067687562     -1.14821011978562
  N   1.85388016836709     -0.42789896932885     -0.11732872034059
  O   2.33744992952757      0.65193808831622      0.20762129058082
  O   2.46387462523877     -1.36290328596649     -0.63630103385908
  N   0.23941930244792     -1.92129876916086      0.65607906203343
  H   0.95343097958943     -2.58723154435875      0.40451343843662
  H   -0.71739235965662     -2.23410294951723      0.70816054417254
