15
Coordinates from ORCA-job run
  C   -0.45880579579579      0.35739334201794     -0.01317663724930
  C   0.42258431257078     -0.67207410286290      0.16344582821225
  N   -1.84329991004270      0.13666535099102      0.35943375764749
  O   -2.59995809040494      1.10717567823603      0.30896320195239
  O   -2.20540722977877     -0.99587081864001      0.71369408033196
  C   -0.16354950574260      1.72360297688510     -0.54696669911642
  H   -0.98763472637134      2.03697191149626     -1.18701501988316
  H   0.75869589764076      1.74251889916706     -1.12163076863678
  H   -0.07601155730892      2.45233462068491      0.26218628815874
  N   1.85307048030469     -0.42638734910703     -0.14623963373937
  O   2.34436423074296      0.64636783864038      0.19034082441699
  O   2.45205244437706     -1.35327420646026     -0.69193763778167
  N   0.25051411489089     -1.92599702848500      0.63925165071443
  H   -0.70559515810114     -2.23913196367811      0.70252866047426
  H   0.95898049301908     -2.59029514888538      0.36812210449820
