13
Coordinates from ORCA-job run
  C   0.98408697084598      0.29810825226270      0.44878706111847
  C   -0.31860576841233      0.16420933772580      0.16794378997790
  H   1.35407991344261      0.90682789906830      1.26196584993713
  N   2.02639493530822     -0.43863584652174     -0.24742790337573
  O   3.01395680371894     -0.70716410975912      0.43643230803248
  O   1.87147004686614     -0.72213275976886     -1.43444686236363
  N   -1.20996226882637      1.02161290032624      0.99479662259040
  O   -0.77977387703124      1.47277919255011      2.05221052044453
  O   -2.33059777715901      1.22496997337137      0.53110367989389
  C   -1.01382737578399     -0.65805627757973     -0.85676398479071
  H   -1.35010824837589     -0.02208754336700     -1.67829309370024
  H   -0.34836353965973     -1.41756963368582     -1.25758978283117
  H   -1.89774981493332     -1.12186138462223     -0.41771820493333
