13
Coordinates from ORCA-job run
  C   1.04396111668351      0.38133124945894     -0.15403082231420
  C   -0.28682571279302      0.26743244386973     -0.05454170500221
  H   1.53733412671955      1.29608128429501     -0.45155001571085
  N   1.95239682313476     -0.73842904863446      0.03113724939593
  O   1.65809583187577     -1.62497146878692      0.83161563862223
  O   2.98056344408873     -0.68651127626074     -0.64362089569538
  N   -1.02386662046213      1.54124054835955     -0.26964812056642
  O   -2.16698717282919      1.57624654843830      0.18240365984197
  O   -0.45711364359990      2.45949910055482     -0.85484954708963
  C   -1.14093617480904     -0.90289807826080      0.27707254344038
  H   -0.57704522399205     -1.82774173546714      0.19270491413446
  H   -2.00669368599067     -0.92500891147101     -0.38570510403284
  H   -1.51288310802634     -0.81527065609528      1.30001220497656
