13
Coordinates from ORCA-job run
  C   0.99253151283410     -0.37579222144837     -0.28870924144495
  C   -0.29324398287185     -0.09654888111128     -0.06087404392438
  H   1.31202901904995     -1.25106579033127     -0.83871714493936
  N   2.10311128612434      0.41826664868222      0.21423054719453
  O   3.20247008443379     -0.13345336268590      0.17121350689933
  O   1.87530217904127      1.55181981811454      0.62784054161579
  N   -0.70674007584281      1.07320218601818      0.72829385699578
  O   -0.67291660622465      0.95222946397335      1.94713514339692
  O   -1.12574662945990      2.02782134888862      0.08408301277491
  C   -1.44760672069056     -0.89619574416239     -0.55627550254553
  H   -2.07240877091187     -0.27408895666852     -1.20175338194679
  H   -1.11023944300343     -1.76862615686721     -1.11568994777661
  H   -2.05654185247840     -1.22756835240198      0.28922265370037
