13
Coordinates from ORCA-job run
  C   1.01591527671372      0.39936761959244      0.25881382466135
  C   -0.30460595259849      0.20102510182609      0.15466582248348
  H   1.44959884709892      1.18960127544515      0.85558865784266
  N   2.00117696893650     -0.48712197095794     -0.33869577047669
  O   3.05859250644449     -0.57942521815271      0.28451246792275
  O   1.73516004438303     -1.05461180057917     -1.39726587462795
  N   -1.13038253005608      1.23654463078868      0.83204301112156
  O   -2.29609507201663      1.32014737865930      0.44968024792510
  O   -0.60848125427441      1.93465605920692      1.69635359916210
  C   -1.07675482756071     -0.84895252933577     -0.55999625086519
  H   -1.90537594871267     -1.18458855957262      0.06438545450534
  H   -1.50272117552084     -0.43828374514521     -1.47786402594375
  H   -0.43702688283682     -1.68735824177516     -0.82122116371077
