13
Coordinates from ORCA-job run
  C   1.00273851768357     -0.36673919504086     -0.26279297798676
  C   -0.29067394083269     -0.10277845629165     -0.06070809774731
  H   1.34425757465547     -1.24745646201409     -0.79037781853708
  N   2.09373052470458      0.45720825103744      0.23530198680143
  O   1.83845202247666      1.58683995741218      0.64354703081271
  O   3.20634818444368     -0.06767153314239      0.19503550283942
  N   -0.73653349054908      1.07857182882133      0.69268103227454
  O   -1.14465631575324      2.01646231027569      0.01766450953577
  O   -0.73785409606452      0.98114554300717      1.91403593398624
  C   -1.42370799757771     -0.93254888334727     -0.55592503487712
  H   -1.06310114671057     -1.81144983035535     -1.09015886111087
  H   -2.04011347593500     -1.25565203458115      0.28738430258095
  H   -2.04888636054116     -0.33593149578104     -1.22468750857190
