13
Coordinates from ORCA-job run
  C   0.97838586673322      0.52219371362347      0.22770943297935
  C   -0.31609003091332      0.20428437980919      0.17807641159147
  H   1.37746848414591      1.37389266346611      0.76133976145683
  N   1.97592449661168     -0.30549386749658     -0.43442857337731
  O   2.96861636477630     -0.56608913730206      0.24184961799323
  O   1.80918233427734     -0.57958282417379     -1.62094274610520
  N   -1.22735273173930      1.14490905727932      0.85986663217532
  O   -0.77884086663136      1.83944361684983      1.76738986773471
  O   -2.41755468690694      1.02841542281250      0.56922006304651
  C   -0.96574627799711     -0.94869019623781     -0.50449991627658
  H   -0.23903887926868     -1.73398095668019     -0.70671851649875
  H   -1.39794637964683     -0.63477743181741     -1.45646741976649
  H   -1.76800769344090     -1.34452444013258      0.11760538504692
