13
Coordinates from ORCA-job run
  C   0.98328557263164      0.32242471233884      0.43398899465273
  C   -0.32010646038210      0.15169604962429      0.17730836909804
  H   1.35201365325031      0.97814150604541      1.21037181991267
  N   2.03559895897414     -0.27914507383701     -0.36885713228654
  O   1.84237344084144     -1.37803762886388     -0.88697719725872
  O   3.06957246118579      0.38414902282978     -0.44614309541181
  N   -1.22423190911863      0.84816530654651      1.13138416171003
  O   -0.77402703386706      1.77118538178142      1.80382010984960
  O   -2.37638184603478      0.42108930024700      1.17934005477119
  C   -1.00868875772347     -0.64976469378728     -0.86814542500876
  H   -1.42281372307659     -1.55907328829082     -0.42751666712383
  H   -0.31579519918993     -0.93225880727014     -1.65588182275254
  H   -1.83979915749074     -0.07757178736413     -1.28169217015206
