13
Coordinates from ORCA-job run
  C   0.98963829390656      0.39143859471055      0.35554519793515
  C   -0.31570282462812      0.20706428320824      0.11896537752688
  H   1.37461751975114      1.22135507436128      0.93149436226720
  N   2.02654145482060     -0.45076327294192     -0.21780114461072
  O   1.79064352395277     -1.64111920777302     -0.42000486263389
  O   3.09237350179759      0.12259432829044     -0.44256196473851
  N   -1.20288055812320      1.17586476384478      0.81722951780489
  O   -2.37439805588540      0.82520610944563      0.94665221892512
  O   -0.72151339666695      2.22936111218361      1.22378011764558
  C   -1.02275464702211     -0.82446413860159     -0.68444731426961
  H   -1.82275973508504     -0.35721920308463     -1.25955125604404
  H   -1.48128382965278     -1.56211840127191     -0.02246867858798
  H   -0.33152124716507     -1.33820004237145     -1.34683157122007
