13
Coordinates from ORCA-job run
  C   1.02400509667174      0.44447331970908     -0.11198011699866
  C   -0.29983157751641      0.25697231953681     -0.03164222719889
  H   1.47283058591523      1.40592143943789     -0.31892203082410
  N   1.98607967071643     -0.64216884063735     -0.02733969485012
  O   3.01259380248370     -0.47528319933140     -0.68582844437237
  O   1.73339786345404     -1.61482890921976      0.68222868512841
  N   -1.09815706109623      1.50846790974569     -0.13011495734429
  O   -2.24314959682182      1.44440889032997      0.31393586032539
  O   -0.57539144919342      2.50463072407307     -0.62126921485552
  C   -1.09559642112344     -0.97968238915904      0.18473889117006
  H   -0.48820262884403     -1.86383210719460      0.01221458679111
  H   -1.96206615042937     -0.97947808920667     -0.47739961141702
  H   -1.46651213421642     -1.00860106808369      1.21137827444601
