13
Coordinates from ORCA-job run
  C   0.99707417744583     -0.35325209720536     -0.29984268738446
  C   -0.29228695818362     -0.09743056739855     -0.06438517225883
  H   1.32812468260134     -1.20251362609025     -0.88279332786107
  N   2.09764250832055      0.43266801187018      0.23748231658713
  O   3.20287569711011     -0.10562752157651      0.17734940723526
  O   1.85659925912200      1.54670277242001      0.69424418508662
  N   -0.72075819749916      1.03524389653217      0.76934034810529
  O   -1.14862903243152      2.01010630907065      0.16224339676252
  O   -0.68764877334178      0.86704612593235      1.98260371842270
  C   -1.43587839376801     -0.88880051327235     -0.59685530335532
  H   -2.04320595147133     -1.26335490115887      0.23163598555750
  H   -2.06639744962864     -0.24725472052415     -1.21722342556024
  H   -1.08651156827578     -1.73253316859931     -1.19179944133708
