13
Coordinates from ORCA-job run
  C   1.00197792658237      0.49500476579407     -0.10431770504204
  C   -0.30486921048319      0.24715455335166      0.05099011230745
  H   1.42284225875360      1.49027102051448     -0.07297471211774
  N   1.99927843692208     -0.55540142137788     -0.23276231100389
  O   3.09946066447279     -0.28391470599946      0.24765533442134
  O   1.69991536076658     -1.60163005435399     -0.80622729076788
  N   -1.14904499754106      1.46778484008035      0.15552270591306
  O   -2.34872235057250      1.30444459490000     -0.06013327482494
  O   -0.61046176759740      2.53630159842534      0.42906473763875
  C   -1.05200462389945     -1.03695386747254      0.09566943814548
  H   -1.77943045343916     -1.01093685119332      0.90779971107030
  H   -0.37204002792010     -1.87436972597493      0.22504093393998
  H   -1.60490121604458     -1.17775474669379     -0.83532767967986
