13
Coordinates from ORCA-job run
  C   1.00517417637956     -0.42774330681421     -0.12365806207007
  C   -0.29004698333688     -0.12028272703052     -0.01839514174479
  H   1.35418744248153     -1.43511942269092     -0.30816499780533
  N   2.08920651867684      0.52830839251337      0.04450478229311
  O   1.82547049590534      1.72727907105611      0.01659542468425
  O   3.20517441033650      0.03210989096254      0.19738113901614
  N   -0.74378219801886      1.24751471706744      0.27372825841971
  O   -1.17303688331315      1.88059699007816     -0.68380870883045
  O   -0.72919877761305      1.59075278986863      1.44982617975263
  C   -1.41655867532929     -1.08028896278881     -0.18211529339749
  H   -1.04885386260167     -2.08813246247048     -0.37435349582567
  H   -2.04879078722162     -0.76269068089080     -1.01484065331585
  H   -2.02794487634528     -1.09030428886051      0.72430056882381
