13
Coordinates from ORCA-job run
  C   1.01036687711176      0.33488625017979      0.35555814142567
  C   -0.30747231891082      0.16872063240334      0.18391186867611
  H   1.43094711132274      1.03830090791556      1.06055525922853
  N   2.00760145935331     -0.34199716933385     -0.45764435417742
  O   1.77338427428724     -1.47457031023899     -0.87674472595857
  O   3.04134120811616      0.29900778214787     -0.64639921617597
  N   -1.14798183602430      0.95014475631516      1.13019322307588
  O   -2.30245721702779      0.55023651744004      1.26973229307099
  O   -0.64805432972333      1.91114479172805      1.70758184009709
  C   -1.06382757425212     -0.69384482930960     -0.76127411423275
  H   -1.90392879196687     -0.13570548554808     -1.17596882551132
  H   -1.47201126863375     -1.55732464654394     -0.23191740067375
  H   -0.41790759365222     -1.05099919715535     -1.55858398884448
