13
Coordinates from ORCA-job run
  C   0.95498921816834     -0.45023048493694     -0.30695560809512
  C   -0.29256931628659     -0.11576389236456      0.03173244367328
  H   1.21942609231873     -1.43519287104264     -0.66831265603687
  N   2.07944871478848      0.47344626551295     -0.28955124559416
  O   1.98717594394063      1.49845116915912      0.38030021291176
  O   3.05023731519905      0.12779905461551     -0.96232454807951
  N   -0.63600425964574      1.24471596839067      0.47157675377055
  O   -0.75580000285783      2.09354200905908     -0.40406299434248
  O   -0.84801789265204      1.37607593837583      1.67170107918207
  C   -1.46335158183453     -1.03549924005279      0.01843601113790
  H   -1.17859704337022     -2.02721378023094     -0.33281362960584
  H   -1.87612267405280     -1.11516911829157      1.02687189881048
  H   -2.24181451371548     -0.63496101819370     -0.63659771773204
