13
Coordinates from ORCA-job run
  C   0.98271818570035      0.53726841499287      0.06520006204844
  C   -0.31037405993327      0.19789595504522      0.14797374466513
  H   1.36656962562419      1.49026324737672      0.40154720281556
  N   1.98358271985424     -0.30125547724972     -0.57392828963160
  O   1.86497519455416     -1.52459554524729     -0.52132446952014
  O   2.90208936352192      0.31275314023676     -1.11649842250779
  N   -1.15709375320514      1.19632834249916      0.85423583684401
  O   -2.22766453535747      0.77334598309482      1.28689785287443
  O   -0.74042268440606      2.34479405397832      0.97296003609489
  C   -1.02495934579938     -1.02486717880737     -0.30332563185871
  H   -0.41911963273755     -1.58686323674137     -1.00874844589085
  H   -1.24338168260156     -1.66601210157262      0.55331292257814
  H   -1.97691939521442     -0.74805559760550     -0.75730239851153
