13
Coordinates from ORCA-job run
  C   0.98414798250718      0.52908753244083     -0.09020617822348
  C   -0.30557393096483      0.22732689077464      0.10726285530193
  H   1.37889351893048      1.53050841600177      0.01012897823742
  N   1.96614862185849     -0.43837603650446     -0.55152642627677
  O   2.87884001185130      0.03449794544257     -1.22872349538472
  O   1.83970938904191     -1.62063167677662     -0.23591436530865
  N   -1.12694091985016      1.36665594713164      0.59647441497218
  O   -2.16874898802186      1.06043826751329      1.17327352197762
  O   -0.71856471342232      2.50962022060916      0.41293206383182
  C   -1.03773261266324     -1.05880007475260     -0.03194095292927
  H   -2.00517493618153     -0.88133694875025     -0.50291136368052
  H   -0.45903730342099     -1.77056271940301     -0.61406741958206
  H   -1.22596611966443     -1.48842776372697      0.95421836706450
