13
Coordinates from ORCA-job run
  C   0.99919305417793     -0.25810457174437     -0.37922963691829
  C   -0.29138642266190     -0.08321556284172     -0.08438587648776
  H   1.33182098372558     -0.85677800875570     -1.21685790231029
  N   2.09568831993597      0.36618090751748      0.34537150969803
  O   1.86688039771441      0.86107740541596      1.44568944590711
  O   3.18570084163422      0.33371693826191     -0.22539162730534
  N   -0.72571305803525      0.76877757029362      1.03250022373272
  O   -0.77129840091420      1.97411769090948      0.81697405996815
  O   -1.08081607552257      0.17725806806356      2.04534700282271
  C   -1.43086375751370     -0.70704001298902     -0.81227592221587
  H   -2.09707175768160      0.07249318945015     -1.19181982947150
  H   -2.00181134575339     -1.33727069165998     -0.12613353773307
  H   -1.07932277910551     -1.31221292192136     -1.64778790968660
