13
Coordinates from ORCA-job run
  C   0.99299265869767     -0.33130046270809     -0.33649853218645
  C   -0.29253816403730     -0.09959998493199     -0.05919493012528
  H   1.31818208191897     -1.15687098380948     -0.95565645910669
  N   2.09819629682013      0.45250884278887      0.19421198597182
  O   1.85466972292724      1.54461197393082      0.70018603842163
  O   3.20945421764406     -0.06350078651074      0.07696177751386
  N   -0.71260237584072      1.00141340760015      0.82005009129500
  O   -1.16421024536090      1.99048516252316      0.25457996746553
  O   -0.65031872329395      0.79436677641680      2.02614402676124
  C   -1.44034780409438     -0.88921305163254     -0.58511833007050
  H   -2.02099563810708     -1.29541794712530      0.24755936581305
  H   -2.09458116588903     -0.23775536470841     -1.16957535409570
  H   -1.09690086138469     -1.71072758183326     -1.21364964765751
