12

C	-0.50836	0.035774	-1.416292
C	0.0	0.0	0.0
F	-1.902307	0.104216	-1.433747
H	1.091684	0.0	0.0
H	-0.129134	0.922312	-1.926519
H	-0.395389	-0.846156	0.558384
C	-0.112844	-1.176943	-2.147829
N	0.145413	-2.144428	-2.759765
N	-0.446987	1.228916	0.706812
O	-0.432009	2.285762	0.079471
O	-0.772029	1.111272	1.88543
Cl	3.266036	0.0	0.0
