12

C	-0.503832	0.04545	-1.417957
C	0.0	0.0	0.0
F	-1.896097	0.137624	-1.439407
H	1.091656	0.0	0.0
H	-0.107736	0.925824	-1.925147
H	-0.397441	-0.848484	0.553049
C	-0.128616	-1.172995	-2.148701
N	0.106027	-2.148147	-2.757509
N	-0.445598	1.225643	0.712194
O	-0.785674	1.10123	1.886208
O	-0.414059	2.287679	0.093735
Cl	3.258077	0.0	0.0
