12

C	-0.49057	-0.003741	-1.437411
C	0.0	0.0	0.0
F	-0.144688	1.212213	-2.000444
H	1.091501	0.0	0.0
H	-0.006171	-0.79739	-2.004831
H	-0.38984	0.852782	0.552483
C	-1.955676	-0.14559	-1.533711
N	-3.124794	-0.215802	-1.603481
N	-0.460781	-1.229547	0.683298
O	-0.624445	-2.231402	-0.017282
O	-0.612619	-1.183411	1.900527
Cl	3.29025	0.0	0.0
