12

C	-0.503092	0.017085	-1.418895
C	0.0	0.0	0.0
F	-1.894429	0.112517	-1.442867
H	1.09164	0.0	0.0
H	-0.104125	0.885394	-1.943886
H	-0.397605	-0.837153	0.569881
C	-0.131436	-1.217257	-2.125069
N	0.100086	-2.202889	-2.718515
N	-0.445207	1.23981	0.687637
O	-0.413098	2.289316	0.048039
O	-0.784912	1.139109	1.864143
Cl	3.255993	0.0	0.0
