12

C	-0.486917	-0.045565	-1.439026
C	0.0	0.0	0.0
F	-0.142846	1.154501	-2.037768
H	1.091467	0.0	0.0
H	0.000573	-0.855582	-1.981081
H	-0.39489	0.86942	0.523259
C	-1.953633	-0.190389	-1.53908
N	-3.123719	-0.263465	-1.608416
N	-0.420715	-1.209267	0.741479
O	-0.569531	-1.1065	1.954746
O	-0.551853	-2.251685	0.092747
Cl	3.292053	0.0	0.0
