12

C	-0.505888	-0.000228	-1.415042
C	0.0	0.0	0.0
F	-1.89038	0.167354	-1.443223
H	1.092114	0.0	0.0
H	-0.06172	0.872742	-1.903647
H	-0.344079	0.903042	0.503217
C	-0.173942	-1.178015	-2.232308
N	0.05355	-2.045279	-2.988153
N	-0.508255	-1.134142	0.810387
O	-0.628032	-0.934324	2.016638
O	-0.752315	-2.195861	0.241449
Cl	3.259699	0.0	0.0
