12

C	-0.498788	-0.049772	-1.424879
C	0.0	0.0	0.0
F	-0.141368	1.084942	-2.118839
H	1.088963	0.0	0.0
H	0.004848	-0.89887	-1.899877
H	-0.334279	-0.88254	0.55184
C	-1.954324	-0.256874	-1.551012
N	-3.093553	-0.50692	-1.682049
N	-0.517467	1.178125	0.748348
O	0.013301	1.410945	1.827968
O	-1.450717	1.817293	0.259687
Cl	3.327471	0.0	0.0
