17

C	0.0	0.0	0.0
C	-0.545383	-0.08357	-1.439375
Cl	1.790164	0.0	0.0
H	-1.625633	-0.227355	-1.316573
C	-0.357251	1.324884	0.557428
N	-0.574705	2.37999	1.028713
N	-0.476571	-1.112356	0.76285
H	-0.23226	-0.981037	1.738572
H	-1.500561	-1.102429	0.683245
N	-0.026619	-1.331993	-2.085738
O	-0.655344	-2.369233	-1.892979
O	0.986762	-1.240925	-2.783312
C	-0.243318	1.122827	-2.297114
H	-0.597309	0.943367	-3.31372
H	0.823548	1.338646	-2.335782
H	-0.783641	1.981115	-1.896779
Cl	-3.514888	0.0	0.0
