17

C	0.0	0.0	0.0
C	-0.376679	0.06745	-1.49687
Cl	1.832422	0.0	0.0
H	-0.085697	-0.898666	-1.910828
C	-0.366585	1.216078	0.746386
N	-0.672446	2.131695	1.417445
N	-0.536888	-1.209265	0.548114
H	-0.332934	-1.247667	1.540919
H	-1.555891	-1.166312	0.452821
N	0.480787	1.064573	-2.219055
O	1.091047	0.660388	-3.208212
O	0.470115	2.222793	-1.812537
C	-1.812307	0.429348	-1.80081
H	-1.953217	0.410184	-2.885197
H	-2.049139	1.425723	-1.424851
H	-2.539589	-0.242111	-1.34552
Cl	-4.470374	0.0	0.0
