17

C	0.0	0.0	0.0
C	-0.570049	0.191678	-1.41486
Cl	1.848454	0.0	0.0
H	-1.630972	-0.102277	-1.303792
C	-0.314675	1.177855	0.825676
N	-0.504185	2.14412	1.466226
N	-0.501106	-1.151208	0.611578
H	-0.513557	-1.958909	0.009194
H	-0.125444	-1.327028	1.529764
N	0.08349	-0.802625	-2.329567
O	-0.05196	-1.99556	-2.050308
O	0.706161	-0.389621	-3.304417
C	-0.453603	1.595022	-1.956951
H	-0.814454	1.620282	-2.984741
H	0.575376	1.957915	-1.937006
H	-1.092319	2.241469	-1.355346
Cl	-3.638739	0.0	0.0
