16

C	-0.417076	-0.001549	-1.467486
C	0.0	0.0	0.0
Br	0.602802	1.260928	-2.488758
H	1.097788	0.0	0.0
N	-0.112564	-1.341166	-2.141061
O	-0.869581	-1.691867	-3.037697
O	0.666716	-2.07052	-1.531168
N	-1.91286	0.300287	-1.546753
O	-2.634478	-0.69317	-1.36469
O	-2.277172	1.349483	-2.082337
N	-0.59257	-1.128432	0.707205
H	0.066055	-1.900143	0.673765
H	-0.752394	-0.882038	1.673872
C	-0.440284	1.258067	0.572467
N	-0.797266	2.26071	1.078105
Br	2.954125	0.0	0.0
