16

C	-0.585427	0.001702	-1.40847
C	0.0	0.0	0.0
Br	-2.506425	-0.044795	-1.383917
H	1.113932	0.0	0.0
N	-0.102798	1.19629	-2.205961
O	-0.931162	1.797405	-2.943771
O	1.05298	1.43455	-2.039297
N	-0.12267	-1.232012	-2.249096
O	0.095003	-0.94708	-3.419479
O	-0.01713	-2.297682	-1.702562
N	-0.456484	-1.173068	0.725163
H	0.221265	-1.347294	1.474319
H	-1.379904	-1.003657	1.136087
C	-0.242142	1.224804	0.792563
N	-0.147412	1.897133	1.805583
Br	3.228889	0.0	0.0
