16

C	-0.533704	-0.018523	-1.450125
C	0.0	0.0	0.0
Br	-2.492486	-0.04102	-1.459169
H	1.112914	0.0	0.0
N	-0.050852	1.225962	-2.184408
O	-0.743012	2.279835	-1.84014
O	1.266341	1.378548	-2.08754
N	-0.05747	-1.193301	-2.228549
O	-0.534711	-1.204978	-3.44149
O	1.275842	-1.310879	-2.169189
N	-0.458662	-1.198145	0.70322
H	-0.089932	-1.17395	1.669397
H	-0.044789	-2.032637	0.257907
C	-0.364413	1.223865	0.861367
N	0.186166	1.424153	1.918703
Br	2.611007	0.0	0.0
