16

C	-0.368582	-0.000407	-1.50029
C	0.0	0.0	0.0
Br	0.291242	1.629606	-2.314102
H	1.090618	0.0	0.0
C	0.187107	-1.123295	-2.240548
N	0.60654	-2.005483	-2.894833
N	-1.896867	-0.030967	-1.656935
O	-2.505601	0.995996	-1.377918
O	-2.399254	-1.1125	-1.946069
N	-0.576824	-1.283199	0.534622
O	0.064092	-2.315101	0.342461
O	-1.668931	-1.225037	1.105007
N	-0.443831	1.093479	0.776266
H	-1.320852	1.506216	0.493034
H	0.300835	1.773356	0.823882
F	2.499399	0.0	0.0
