16

C	-0.550226	0.038087	-1.415589
C	0.0	0.0	0.0
Br	-2.511471	-0.134861	-1.445299
H	1.092557	0.0	0.0
C	-0.22867	1.321979	-2.024385
N	0.028596	2.332542	-2.567029
N	0.075417	-1.041192	-2.345429
O	-0.614634	-1.961514	-2.743781
O	1.25065	-0.827591	-2.595853
N	-0.403354	-1.286083	0.646009
O	-0.902283	-1.247192	1.772913
O	-0.164773	-2.318069	0.019753
N	-0.426041	1.155028	0.708903
H	-1.288374	0.993362	1.214568
H	0.305736	1.41202	1.358922
F	2.467184	0.0	0.0
