16

C	-0.507006	0.057182	-1.435617
C	0.0	0.0	0.0
Br	-2.480106	-0.012548	-1.5235
H	1.094074	0.0	0.0
C	-0.109884	1.329844	-2.024724
N	0.178175	2.366241	-2.499145
N	0.075518	-1.045528	-2.358146
O	-0.646771	-1.945792	-2.746211
O	1.259226	-0.873749	-2.609032
N	-0.473095	-1.284317	0.604063
O	-0.15947	-2.303994	-0.017829
O	-1.10205	-1.270985	1.658628
N	-0.373242	1.118419	0.778711
H	-1.259883	1.549663	0.561473
H	0.389449	1.777202	0.814465
F	2.469738	0.0	0.0
