16

C	-0.459955	0.108476	-1.458388
C	0.0	0.0	0.0
Cl	-0.12805	-1.430057	-2.328446
H	1.096388	0.0	0.0
H	-1.547949	0.228575	-1.49784
C	0.25253	1.239527	-2.179599
H	-0.055452	2.206063	-1.771874
H	0.009329	1.226887	-3.243771
H	1.331682	1.125597	-2.04899
C	-0.530611	-1.199903	0.640077
N	-1.009883	-2.114982	1.199445
C	-0.433481	1.231162	0.810476
H	0.106933	2.112749	0.465803
H	-1.511392	1.408272	0.734546
H	-0.178346	1.082752	1.860995
Br	3.526313	0.0	0.0
