16

C	-0.465765	0.082544	-1.457876
C	0.0	0.0	0.0
Cl	-0.044023	-1.436746	-2.320453
H	1.096448	0.0	0.0
H	-1.558144	0.141152	-1.498719
C	0.181412	1.249869	-2.181924
H	-0.05059	1.213089	-3.248166
H	-0.1928	2.197577	-1.785893
H	1.26473	1.20518	-2.043391
C	-0.527355	-1.196561	0.649542
N	-1.014606	-2.132233	1.166082
C	-0.437988	1.239096	0.794513
H	-0.192374	1.100718	1.848749
H	0.107011	2.116535	0.446006
H	-1.515225	1.417948	0.708201
Br	3.528099	0.0	0.0
