16

C	-0.464824	0.071966	-1.457714
C	0.0	0.0	0.0
Cl	-0.033843	-1.450578	-2.312499
H	1.096398	0.0	0.0
H	-1.556849	0.12068	-1.496344
C	0.169122	1.240162	-2.189735
H	-0.215041	2.185761	-1.798673
H	-0.062173	1.19397	-3.255393
H	1.252266	1.206915	-2.052167
C	-0.521571	-1.194826	0.657467
N	-0.988893	-2.108642	1.228614
C	-0.440296	1.240189	0.791259
H	-0.191597	1.107112	1.845303
H	-1.518341	1.414453	0.707488
H	0.100318	2.118129	0.437459
Br	3.536918	0.0	0.0
