18

C	-0.456894	-0.074445	-1.437779
C	0.0	0.0	0.0
Br	0.073454	1.972633	-2.293904
H	1.0901	0.0	0.0
N	0.348936	-0.984277	-2.090396
H	1.333389	-0.824082	-1.854676
H	0.190963	-1.026655	-3.087627
N	-1.828989	-0.190005	-1.665728
H	-2.054826	-0.060974	-2.643995
H	-2.302453	0.514593	-1.111155
C	-0.483631	-1.202647	0.800662
H	-1.57079	-1.209325	0.90733
H	-0.008378	-1.175148	1.784986
H	-0.165087	-2.110013	0.28794
N	-0.491419	1.214638	0.7064
O	-1.682991	1.52792	0.571868
O	0.288697	1.79682	1.449842
H	2.780199	0.0	0.0
