18

C	-0.449025	-0.082206	-1.468669
C	0.0	0.0	0.0
Br	-0.17213	-2.071934	-2.022088
H	1.090712	0.0	0.0
N	-1.801006	0.28648	-1.638003
H	-2.413399	-0.254552	-1.041107
H	-2.067712	0.176484	-2.608193
N	0.350346	0.634519	-2.407739
H	0.238308	1.616359	-2.163162
H	1.319515	0.403894	-2.197507
C	-0.518054	-1.037058	0.969583
H	-0.186106	-0.764891	1.970974
H	-0.081322	-2.00098	0.716766
H	-1.608733	-1.120762	0.988053
N	-0.363792	1.359245	0.470336
O	0.148315	2.32188	-0.117282
O	-1.108329	1.481942	1.452281
H	2.694778	0.0	0.0
