18

C	-0.411219	-0.108142	-1.448591
C	0.0	0.0	0.0
Br	0.034048	1.996911	-2.305932
H	1.088902	0.0	0.0
N	0.470951	-0.955842	-2.073459
H	1.435955	-0.761398	-1.774528
H	0.373562	-0.989805	-3.078207
N	-1.76384	-0.28506	-1.724013
H	-1.961143	-0.194923	-2.712484
H	-2.288705	0.408101	-1.202918
C	-0.457962	-1.211833	0.803123
H	-0.096711	-2.111101	0.304089
H	-1.545529	-1.25762	0.894212
H	0.002139	-1.159578	1.793853
N	-0.53653	1.202395	0.683338
O	-1.729978	1.484043	0.508191
O	0.204839	1.801371	1.453074
H	2.770333	0.0	0.0
