18

C	-0.168436	-0.01791	-1.520294
C	0.0	0.0	0.0
Br	-2.156737	-0.113886	-1.996863
H	1.095365	0.0	0.0
N	0.334221	1.120418	-2.243719
H	1.309992	1.192645	-1.94123
H	-0.123711	1.963021	-1.916757
N	0.477214	-1.213139	-1.9652
H	1.398367	-1.216124	-1.504966
H	0.628481	-1.106185	-2.963371
C	-0.52305	-1.21327	0.728522
H	-0.144638	-2.105491	0.231921
H	-1.613135	-1.23935	0.736483
H	-0.162622	-1.200354	1.759043
N	-0.469594	1.241083	0.630658
O	-0.014235	2.317727	0.222756
O	-1.26107	1.162113	1.579911
H	2.644062	0.0	0.0
