18

C	-0.368241	-0.072124	-1.488826
C	0.0	0.0	0.0
Br	-0.062192	1.840918	-2.250422
H	1.091508	0.0	0.0
N	0.52131	-1.002132	-2.039233
H	0.450809	-1.020457	-3.048561
H	1.481536	-0.821855	-1.71661
N	-1.716513	-0.373543	-1.897733
H	-2.341436	0.272521	-1.426117
H	-1.918084	-1.316258	-1.575281
C	-0.467557	-1.2286	0.763955
H	-0.073874	-2.116174	0.267604
H	-0.048565	-1.191504	1.77354
H	-1.557737	-1.285711	0.828774
N	-0.572781	1.184454	0.679158
O	0.160967	1.880152	1.373818
O	-1.790476	1.371513	0.55162
H	2.811485	0.0	0.0
