19

C	0.0	0.0	0.0
C	-0.329391	-0.045613	-1.520176
Cl	1.77745	0.0	0.0
H	0.293967	0.728428	-1.971143
N	-0.398668	1.320291	0.625983
O	-0.738271	1.318019	1.799593
O	-0.230618	2.317663	-0.069008
C	-0.409538	-1.177712	0.860254
H	0.024126	-2.089421	0.445588
H	-1.501718	-1.177543	0.851739
H	-0.0075	-1.032934	1.863208
N	-1.712168	0.350819	-2.032243
O	-1.926316	1.553994	-2.118239
O	-2.39574	-0.518666	-2.559752
C	0.003284	-1.407069	-2.113978
H	1.027391	-1.696861	-1.877601
H	-0.693896	-2.154535	-1.741044
H	-0.103889	-1.364745	-3.198724
F	-2.513174	0.0	0.0
