19

C	0.0	0.0	0.0
C	-0.416674	0.223115	-1.512361
Cl	1.768437	0.0	0.0
H	-0.51862	-0.79316	-1.896786
N	-0.38646	1.18989	0.882816
O	-0.603486	0.956637	2.065988
O	-0.392652	2.29749	0.364056
C	-0.656171	-1.238999	0.532666
H	-1.746223	-1.028242	0.434245
H	-0.378817	-1.402187	1.57316
H	-0.35077	-2.096017	-0.071292
N	0.717412	0.7623	-2.358618
O	1.222395	-0.019364	-3.168177
O	1.029309	1.94182	-2.246904
C	-1.644609	1.029601	-1.879531
H	-2.491759	0.658626	-1.254062
H	-1.469699	2.086913	-1.695737
H	-1.825087	0.869872	-2.948619
F	-3.182706	0.0	0.0
