16

C	-0.416667	-0.01323	-1.451425
C	0.0	0.0	0.0
Cl	-2.266918	-0.39642	-1.558529
H	1.092261	0.0	0.0
N	-0.066167	1.132805	-2.154391
H	-0.308039	1.985307	-1.672289
H	-0.389211	1.111661	-3.11044
N	0.213608	-1.176421	-2.219853
O	0.941062	-1.951277	-1.624048
O	-0.040812	-1.19851	-3.42374
N	-0.452361	-1.17991	0.709448
H	-1.307658	-1.015929	1.223073
H	0.288998	-1.458838	1.338245
C	-0.455252	1.253634	0.588274
N	-0.830883	2.261573	1.067498
F	2.503895	0.0	0.0
