16

C	-0.579826	-0.034616	-1.406577
C	0.0	0.0	0.0
Cl	0.422597	-1.208397	-2.386009
H	1.094215	0.0	0.0
N	-1.95197	-0.334724	-1.408085
H	-2.065152	-1.150785	-0.8145
H	-2.290239	-0.50639	-2.345764
N	-0.402066	1.283992	-2.14544
O	0.361758	2.11463	-1.674358
O	-1.047726	1.403049	-3.18424
N	-0.36996	-1.29691	0.632357
H	0.519929	-1.770277	0.761778
H	-0.750471	-1.126338	1.554943
C	-0.552065	1.106132	0.761065
N	-0.976974	1.961407	1.448167
F	2.527678	0.0	0.0
