16

C	-0.141191	0.136421	-1.532257
C	0.0	0.0	0.0
Cl	-1.694463	0.859835	-2.104567
H	1.09501	0.0	0.0
N	0.953543	0.865027	-1.976055
H	1.086352	0.825986	-2.976087
H	1.79892	0.59847	-1.422829
N	-0.17186	-1.342003	-2.075222
O	-1.235085	-1.930714	-2.195357
O	0.936634	-1.812469	-2.299026
N	-0.512523	-1.237561	0.541443
H	-1.479	-1.153451	0.829037
H	0.055593	-1.497219	1.336137
C	-0.479978	1.20744	0.664312
N	-0.879515	2.125742	1.281464
F	2.624579	0.0	0.0
