16

C	-0.533272	-0.059792	-1.428734
C	0.0	0.0	0.0
Cl	0.279596	-1.341362	-2.353654
H	1.091719	0.0	0.0
N	-1.934262	-0.285391	-1.472834
H	-2.396407	0.460446	-0.962641
H	-2.266127	-0.266574	-2.429136
N	-0.148101	1.271006	-2.151493
O	-1.087963	1.951899	-2.568484
O	1.035677	1.550908	-2.233799
N	-0.343097	-1.195536	0.763339
H	-1.129268	-1.67883	0.347167
H	0.478993	-1.786268	0.732744
C	-0.567482	1.189165	0.628127
N	-1.045608	2.151884	1.107695
F	2.515349	0.0	0.0
