14

C	0.0	0.0	0.0
C	-0.309066	0.11192	-1.503369
Cl	1.829858	0.0	0.0
H	0.363503	-0.56546	-2.028995
H	-0.00931	1.13068	-1.76292
N	-0.555825	0.986766	0.778057
H	-0.347029	0.792464	1.75166
H	-1.618507	0.766608	0.571501
N	-0.321161	-1.449582	0.48624
O	-0.360413	-2.343652	-0.349311
O	-0.461333	-1.591177	1.694682
C	-1.641457	-0.125725	-2.070476
N	-2.457259	-0.26219	-2.906965
F	-2.659933	0.0	0.0
