14

C	0.0	0.0	0.0
C	-0.324106	0.49095	-1.42313
Cl	1.829205	0.0	0.0
H	0.38737	0.026069	-2.10534
H	-0.097794	1.560606	-1.394471
N	-0.551645	0.75045	1.010713
H	-1.614023	0.596281	0.75655
H	-0.343266	0.305998	1.898478
N	-0.316535	-1.526096	0.095748
O	-0.341523	-2.174599	-0.9429
O	-0.466691	-1.97509	1.225156
C	-1.642434	0.31551	-2.044561
N	-2.448726	0.298953	-2.901508
F	-2.656286	0.0	0.0
