14

C	0.0	0.0	0.0
C	-0.351995	-0.147413	-1.491325
Cl	1.776544	0.0	0.0
H	0.290837	-0.923264	-1.907128
H	-0.037815	0.805223	-1.92482
N	-0.541363	1.130415	0.5931
H	-0.31887	1.1173	1.581986
H	-1.588816	0.906939	0.45567
N	-0.365991	-1.324559	0.739192
O	-0.508588	-1.242488	1.953288
O	-0.424678	-2.354648	0.081415
C	-1.709693	-0.435999	-1.975198
N	-2.510685	-0.721186	-2.790033
F	-2.660244	0.0	0.0
