14

C	0.0	0.0	0.0
C	-0.530048	-0.260167	-1.417674
Cl	1.754524	0.0	0.0
H	-0.394432	0.678585	-1.964808
H	-1.619499	-0.390907	-1.226551
N	-0.554704	1.142146	0.615141
H	-0.29762	1.953507	0.063913
H	-1.591395	0.936369	0.505539
N	-0.390757	-1.213458	0.882868
O	-0.45285	-1.035339	2.088206
O	-0.537096	-2.284395	0.30663
C	0.084357	-1.328467	-2.189736
N	0.570188	-2.140754	-2.886204
F	-2.770404	0.0	0.0
