14

C	0.0	0.0	0.0
C	-0.547329	-0.098383	-1.419344
Cl	1.766691	0.0	0.0
H	-0.406357	0.894311	-1.854199
H	-1.636476	-0.253381	-1.244104
N	-0.569511	1.10329	0.637154
H	-0.32807	1.068439	1.621166
H	-1.607623	0.890419	0.511748
N	-0.344495	-1.331552	0.757176
O	-0.315368	-1.265418	1.981966
O	-0.587995	-2.3358	0.102952
C	0.064389	-1.088489	-2.288859
N	0.521176	-1.844894	-3.062404
F	-2.798131	0.0	0.0
