16

C	-0.3699	-0.14855	-1.489658
C	0.0	0.0	0.0
Cl	-0.249082	1.553502	-2.129289
H	1.087773	0.0	0.0
H	-0.431309	0.893944	0.44464
C	0.666848	-0.979941	-2.223169
H	0.540991	-2.027831	-1.943345
H	0.544068	-0.870228	-3.302144
H	1.652601	-0.659497	-1.873203
N	-1.712306	-0.604639	-1.791096
H	-2.368019	-0.159592	-1.158246
H	-1.736468	-1.601306	-1.614726
N	-0.52507	-1.127588	0.771978
O	-0.373508	-2.271971	0.329665
O	-1.119144	-0.888688	1.83036
F	2.591031	0.0	0.0
