16

C	-0.229667	0.041259	-1.519542
C	0.0	0.0	0.0
Cl	-0.200014	-1.753764	-2.154802
H	1.088871	0.0	0.0
H	-0.413132	0.917318	0.423858
C	-1.571447	0.561391	-1.988553
H	-1.671777	1.595483	-1.647811
H	-2.381996	-0.03667	-1.574218
H	-1.633051	0.538926	-3.079232
N	0.8604	0.785209	-1.996456
H	1.735858	0.52454	-1.497846
H	0.946908	0.76024	-3.001958
N	-0.676667	-1.113088	0.682759
O	-1.901241	-1.007414	0.840724
O	-0.01396	-2.073562	1.066267
F	2.670282	0.0	0.0
