16

C	-0.127532	0.002036	-1.514696
C	0.0	0.0	0.0
Cl	-1.854615	-0.309209	-2.051958
H	1.090988	0.0	0.0
H	-0.414795	-0.916012	0.408908
C	0.334844	1.291182	-2.174975
H	0.360808	1.139098	-3.258325
H	-0.300625	2.143312	-1.947492
H	1.344801	1.469686	-1.797613
N	0.688088	-1.135221	-1.892279
H	1.589771	-0.97477	-1.413173
H	0.849624	-1.101192	-2.892954
N	-0.589174	1.116697	0.734673
O	-1.308289	0.83719	1.700125
O	-0.314768	2.272208	0.40376
F	2.626684	0.0	0.0
