16

C	-0.61102	-0.050613	-1.390405
C	0.0	0.0	0.0
Cl	0.381472	-1.054643	-2.515331
H	1.086837	0.0	0.0
H	-0.338946	0.909752	0.500684
C	-2.028522	-0.619128	-1.439294
H	-2.05144	-1.6688	-1.150609
H	-2.425681	-0.524171	-2.453587
H	-2.66613	-0.04539	-0.755898
N	-0.539208	1.312304	-1.9068
H	-0.897238	1.323777	-2.855551
H	-1.134888	1.899338	-1.332658
N	-0.434011	-1.097016	0.867548
O	-0.74597	-0.82516	2.034103
O	-0.407879	-2.247607	0.422314
F	2.528928	0.0	0.0
