16

C	-0.084969	-0.007652	-1.525398
C	0.0	0.0	0.0
Cl	-1.782893	-0.303047	-2.118385
H	1.092684	0.0	0.0
H	-0.453378	0.871732	0.464605
C	0.364919	1.372112	-1.97424
H	0.416928	1.391951	-3.062884
H	1.36295	1.511852	-1.548073
H	-0.308475	2.153841	-1.617567
N	0.802373	-0.980463	-2.133948
H	0.506611	-1.895165	-1.810215
H	1.695519	-0.801556	-1.649356
N	-0.538454	-1.177154	0.679469
O	-1.120204	-0.995018	1.753388
O	-0.370617	-2.293038	0.180343
F	2.619582	0.0	0.0
