16

C	-0.421475	-0.116772	-1.467896
C	0.0	0.0	0.0
Cl	-0.07325	1.579323	-2.126286
H	1.086496	0.0	0.0
H	-0.454837	0.870703	0.467729
C	0.515482	-1.047577	-2.216634
H	0.310453	-2.075984	-1.907668
H	1.533471	-0.794859	-1.908227
H	0.378383	-0.948979	-3.296079
N	-1.805301	-0.416209	-1.665607
H	-2.336539	-0.402076	-0.804889
H	-1.949888	-1.272917	-2.173332
N	-0.524505	-1.165354	0.735978
O	-1.460833	-0.978693	1.52973
O	-0.039997	-2.275562	0.513251
F	2.605266	0.0	0.0
