13
Coordinates from ORCA-job run
  C   -0.34780907524097      0.05730629195563     -0.39229340012692
  C   0.69844355442053      0.62458416095364      0.57218046519503
  F   -0.47560533726433      0.95823976970584     -1.41533644261629
  H   0.66180279698379      0.06610461558821      1.51206308603619
  H   0.46202169575726      1.67170694843508      0.77182609749531
  N   -0.15824659271608     -1.23804014790121     -0.87081378494157
  H   0.80590022654921     -1.52986150267535     -0.91101951221308
  H   -0.76666135947438     -1.91705581763011     -0.44026605303012
  N   -1.68901507290420      0.12092454920780      0.36500069660925
  O   -2.10881572833307      1.24823473728267      0.58467488490777
  O   -2.20470113226223     -0.93394302698400      0.72041634426347
  C   2.03104955010424      0.50646087427678     -0.00916146437906
  N   3.09263647438023      0.36333854778502     -0.48827091719999
