13
Coordinates from ORCA-job run
  C   -0.23169163899127      0.02452621059460     -0.40618735573722
  C   0.68638326800801      0.59513027450205      0.66552373967832
  F   -0.18926746873590      0.78258274721918     -1.52066707725827
  H   0.58853189440275      0.00740904893225      1.58078742593004
  H   0.36839996062755      1.61839801211369      0.88564560816428
  N   0.06582543466875     -1.30742875291870     -0.73748958387451
  H   -0.03848510865871     -1.92462437402544      0.05597733955771
  H   -0.49501686315426     -1.62902406330745     -1.51664427654776
  N   -1.67380132659250      0.18163149433290      0.15935289992521
  O   -2.45466028363322      0.93502390650867     -0.40239000996831
  O   -1.89297913942334     -0.50561042066048      1.15450305817820
  C   2.07287709311024      0.60147734734820      0.21102112101515
  N   3.19488417837187      0.62150856936054     -0.12943288906285
