13
Coordinates from ORCA-job run
  C   -0.33933586711216      0.03132712348620     -0.45100240963212
  C   0.95132004717437      0.73702030624268     -0.08171709100990
  F   -0.86160392680034      0.71311213592859     -1.54907428094375
  H   0.74017258544948      1.79383781214555      0.08148048452183
  H   1.62457383055678      0.65799647985064     -0.94082455585446
  N   -0.19815149557722     -1.33966249309518     -0.63260906176465
  H   -1.08172122660763     -1.78883339710169     -0.83309853950702
  H   0.50724511580963     -1.57208856758514     -1.31704847384707
  N   -1.41033721722392      0.24135274253771      0.61914856658248
  O   -2.38937591429757     -0.49099331075545      0.53998525513304
  O   -1.23800980341373      1.15076781150888      1.42200475741443
  C   1.58230728181897      0.16122184651243      1.10036664302778
  N   2.11191659022333     -0.29405848967520      2.04238870587941
