13
Coordinates from ORCA-job run
  C   -0.34780833867428     -0.08404496748920     -0.43797296439649
  C   0.88829027629824      0.77506198693544     -0.25284558474306
  F   -0.94284642863059      0.33278535917313     -1.62802309091504
  H   0.59542911766999      1.82429885000324     -0.28912198587742
  H   1.55178616169574      0.58218497702856     -1.10141875891345
  N   -0.10011866442761     -1.44935356103692     -0.35986326204335
  H   -0.94789549213636     -1.99509003427357     -0.43644050947742
  H   0.60711763183365     -1.75538173984880     -1.01251860463881
  N   -1.41286302129899      0.24879257302661      0.60715033733355
  O   -1.30749986251525      1.31508435933643      1.20141490480343
  O   -2.32263449271255     -0.56471109785881      0.71629166490405
  C   1.58241856611908      0.49041840170258      0.99784658949091
  N   2.15762454677897      0.27795489330132      1.99750126447312
