13
Coordinates from ORCA-job run
  C   -0.34255993077068     -0.01337515466278     -0.45893435974153
  C   1.07675418678268      0.13722985894145      0.09662117465715
  F   -0.59347346642633      1.02839671122914     -1.27935887465032
  H   1.27910164949441     -0.69227949042627      0.77709799887862
  H   1.77058553951294      0.07353215225817     -0.74670761583967
  N   -0.65702015409746     -1.21964263653097     -1.13295415180588
  H   -0.07047326820134     -1.34485854862029     -1.94749570860618
  H   -0.58927745774630     -2.01537488636855     -0.51329169213121
  N   -1.30295925250581      0.06784772162493      0.72627739337810
  O   -2.04218806696632      1.03369629858968      0.80767105479983
  O   -1.21569725232833     -0.87772659558132      1.50568144090252
  C   1.27010695074525      1.40618487874283      0.79342976905579
  N   1.41610052250730      2.41636969080393      1.37196357110274
