13
Coordinates from ORCA-job run
  C   -0.37311331656708     -0.01340259478487     -0.18378348497735
  C   0.79355600216346      0.69170385530755      0.48719334750182
  F   -0.78439290400893      0.76146099189326     -1.26013634800337
  H   1.01070667066379      0.20872293695768      1.44074301755963
  H   0.52090564130421      1.72963345339142      0.68004143469706
  N   -0.11246876376830     -1.34634813654187     -0.49897408969155
  H   0.70011638768241     -1.44265760717274     -1.09402994269959
  H   -0.92234190469679     -1.78842001889696     -0.91496763108847
  N   -1.59278289653389     -0.00490356014745      0.73678394939980
  O   -2.54407008539926     -0.67232018171460      0.34947263177248
  O   -1.54473969468318      0.68241033528895      1.75080133399770
  C   1.96290474179658      0.63157021550393     -0.38534017054162
  N   2.88472012204700      0.56255031091569     -1.10780404792648
