13
Coordinates from ORCA-job run
  C   -0.40887032225953      0.08956958616474     -0.33139767800468
  C   0.72626176993086      0.55807980246164      0.58987524487489
  F   -0.57021979619750      1.01600830560484     -1.30014371519817
  H   0.77957188369156     -0.10279427030397      1.45793348592843
  H   0.51564901348637      1.57506516672445      0.93385854491752
  N   -0.32473731823454     -1.18918003521063     -0.92809596797369
  H   0.47449513144031     -1.24452029968790     -1.54715105179382
  H   -0.29267967594307     -1.92106332001914     -0.23175074041727
  N   -1.66917299689764      0.07806559526573      0.53490868336949
  O   -2.50518402840364      0.94608029413216      0.34582356614689
  O   -1.69573230066655     -0.81304210459213      1.37928837444052
  C   1.98821918898212      0.52861243590174     -0.14054135622906
  N   2.98239945107122      0.47911884355847     -0.76160739006098
