13
Coordinates from ORCA-job run
  C   -0.41265556219749      0.00781344054072     -0.56266373261198
  C   0.87848833835727      0.75970930035764     -0.24135867801885
  F   -0.94752007945658      0.64269462999629     -1.65199509946527
  H   0.64714661965988      1.81734608837409     -0.09655761037747
  H   1.53209095119144      0.67756177176266     -1.11538510789598
  N   -0.32172274612694     -1.37216705610890     -0.75881703726075
  H   0.60447679309861     -1.68427642368948     -1.00788571925769
  H   -0.68993587170319     -1.89391517931210      0.02384627655759
  N   -1.40324863320480      0.28610784696876      0.58549506909622
  O   -1.82064679529736      1.43353621094598      0.64604548173986
  O   -1.66156158515340     -0.63080796467077      1.35836338360377
  C   1.53756812840229      0.20716713117008      0.93622701989023
  N   2.05652044243027     -0.25076979633496      1.88368575400033
