13
Coordinates from ORCA-job run
  C   -0.35827160771575     -0.02295536397892     -0.21172694667779
  C   0.75144007569333      0.71964359679628      0.51336149211803
  F   -0.68835159990302      0.70046171557937     -1.35029342361900
  H   0.46014250167977      1.76290517628280      0.63807938636443
  H   0.89812684913795      0.28129567376770      1.50129556949331
  N   -0.07032207103138     -1.36668281011309     -0.44550766785839
  H   -0.84405708563312     -1.83313640888836     -0.90151115346153
  H   0.78682670330245     -1.48517769891708     -0.96972505899434
  N   -1.64473543784382      0.01888064231461      0.61189820650396
  O   -1.67481810127891      0.74760175117837      1.59721422877888
  O   -2.56261957816735     -0.66896280060745      0.18196251643255
  C   1.98427699855144      0.62791723765613     -0.26378240995089
  N   2.96236235320838      0.51720928892963     -0.90226473912922
