13
Coordinates from ORCA-job run
  C   -0.25693949614856     -0.07049106325701     -0.36344901436429
  C   1.12268650655801      0.00889504135564      0.26295723347784
  F   -0.41722286696790      0.99679938763851     -1.22602658969384
  H   1.19633601077906     -0.72594302098979      1.06441192655584
  H   1.85098722527184     -0.25073415164336     -0.51160188713990
  N   -0.50502391570920     -1.31907190313892     -0.94878123242811
  H   -1.44444869715376     -1.35259886839148     -1.32711655082700
  H   0.17140643083892     -1.53386443498249     -1.66916882741610
  N   -1.35231969152311      0.12387452700205      0.68290445844007
  O   -1.01747376155559      0.25822196511293      1.85364552092894
  O   -2.49420511186770      0.11541560445092      0.23883210732764
  C   1.43396848684136      1.34241097400078      0.76890871380915
  N   1.71224888063661      2.40708594284218      1.17348414132968
