13
Coordinates from ORCA-job run
  C   -0.38412038349692     -0.00317766577663     -0.37147319066590
  C   0.75548475131934      0.67708211668736      0.39999494614358
  F   -0.40806749246873      0.50757822346953     -1.62056226968919
  H   0.70317438876879      0.38326518179593      1.45068018970481
  H   0.63943445627254      1.76290347453732      0.33261784779047
  N   -0.40947449775719     -1.41463924054854     -0.45285610304123
  H   0.39387699388533     -1.75861767190010     -0.96397282496470
  H   -0.46245290674197     -1.83806831326732      0.46334092581030
  N   -1.67338983901919      0.40870778045351      0.34005468020433
  O   -2.41466905925162      1.19791631100507     -0.22206217444571
  O   -1.81984142473964     -0.09135790531355      1.45187458777089
  C   2.03600266224308      0.27284626944762     -0.16891225016701
  N   3.04404235098613     -0.10343856059016     -0.63672436445059
