13
Coordinates from ORCA-job run
  C   -0.33757001202905     -0.06731211922289     -0.23593436516864
  C   0.76589764651572      0.80098480491643      0.34465853329771
  F   -0.48856923381419      0.26599188942258     -1.57555191781464
  H   0.77673365679854      0.69869199661752      1.43052234420170
  H   0.56618412534579      1.84407911448658      0.09795872913375
  N   -0.15960899186719     -1.42921706610870      0.00312688437667
  H   0.72732002390550     -1.76349724974822     -0.35071691579034
  H   -0.92869711010526     -1.96985020086420     -0.37171992223484
  N   -1.68540261818900      0.31811260695229      0.37223385580204
  O   -1.73793269880342      1.32927500574509      1.06340123742345
  O   -2.62052513086199     -0.41590784426002      0.07695874686573
  C   2.05150494952694      0.38579685558290     -0.20958298087307
  N   3.07166539357763      0.00385220648064     -0.64535422921952
