13
Coordinates from ORCA-job run
  C   -0.27247826066066     -0.09133167928009     -0.34700275744203
  C   1.13304904003322      0.07799212151483      0.19890957592471
  F   -0.54356199343774      0.95091780798613     -1.21243154312627
  H   1.83064124619476     -0.15121411008282     -0.61265865598614
  H   1.29464433455382     -0.63855236793005      1.00400760918116
  N   -0.47889745770203     -1.36147288156984     -0.90144226979585
  H   -1.43398902149668     -1.45471453511656     -1.22688180834300
  H   0.16868567068756     -1.54841932799466     -1.65533734061924
  N   -1.31706944735463      0.05582499690852      0.75738107728696
  O   -2.47949263934663     -0.02731191910532      0.37907838656241
  O   -0.92590835590252      0.23091727310163      1.90501026986548
  C   1.39342671144674      1.43535430000990      0.66887786575411
  N   1.63095017298481      2.52101032155835      1.04248959073767
