13
Coordinates from ORCA-job run
  C   -0.34297788041553     -0.00820098719057     -0.45696598084507
  C   1.07849202532455      0.12207288896046      0.09795914559321
  F   -0.58084776087168      1.03921316802053     -1.27407524620401
  H   1.27086938268611     -0.71239087191923      0.77516052422671
  H   1.77067309712921      0.05294047271458     -0.74631878911186
  N   -0.67401312922164     -1.20809589558886     -1.13438640185442
  H   -0.09246295228938     -1.33721594672992     -1.95187723836598
  H   -0.61350649928131     -2.00706464477313     -0.51815813219584
  N   -1.30182444811283      0.08177580310177      0.72902472050893
  O   -2.03213610238381      1.05421432161378      0.81140267902555
  O   -1.22331345737335     -0.86554126742631      1.50728701942204
  C   1.28883326388588      1.38693316680836      0.79731551617121
  N   1.45221446092375      2.40135979240853      1.36363218362948
