13
Coordinates from ORCA-job run
  C   -0.20493389366424     -0.06027109285243     -0.50270170237813
  C   1.14977251244784      0.14439913632353      0.15696316205309
  F   -0.44041165400309      0.90413665007574     -1.41512450791708
  H   1.31638812025687     -0.64077171276195      0.89699308841769
  H   1.90402524070247      0.05438116347405     -0.62799415413480
  N   -0.29911053832654     -1.32231204064538     -1.12497070098369
  H   -1.15746807205403     -1.39361369438139     -1.65880620372524
  H   -0.25305742439763     -2.06874427072542     -0.44387524582088
  N   -1.28142084293652      0.12129437847689      0.60121998562510
  O   -2.09446138579877      1.02626136847263      0.49794540684035
  O   -1.20831830457223     -0.71548769709318      1.49862279020380
  C   1.24626551941983      1.45197509681387      0.79910484189438
  N   1.32373072292603      2.49875271482302      1.32262323992541
