13
Coordinates from ORCA-job run
  C   -0.42102981090033     -0.00784094626359     -0.55544399541516
  C   0.86262417178203      0.77070414186242     -0.27506711673513
  F   -1.00011111487011      0.60812668035910     -1.63433817447327
  H   1.51345437111924      0.65740626936417     -1.14782984600158
  H   0.62011240070518      1.83022129957674     -0.17145538166940
  N   -0.29994231056800     -1.38464207678190     -0.74131122563393
  H   0.63328494773397     -1.68740804780675     -0.97253284418175
  H   -0.68868289142915     -1.91653210918633      0.02372475030083
  N   -1.38958035413441      0.26368139518716      0.61498531138230
  O   -1.80551789657122      1.41098985920890      0.68971665221723
  O   -1.63974353481271     -0.65889220193830      1.38359737212515
  C   1.53854675098949      0.26976223505453      0.91647402712234
  N   2.07558527095600     -0.15457649863616      1.86948047096236
