13
Coordinates from ORCA-job run
  C   -0.27366819268514     -0.15705830984504     -0.32145189230396
  C   1.11126131441964      0.28396609057508      0.11410933036790
  F   -0.77734671253128      0.76995773440993     -1.21339160916520
  H   1.78675385707003      0.13193826581762     -0.73344713112394
  H   1.44616276001972     -0.34589373237866      0.93804720760030
  N   -0.28721238000759     -1.47409289818814     -0.79896981982642
  H   0.33634768380094     -1.59200137963630     -1.58623598844972
  H   -1.22891034567883     -1.75076680767456     -1.05057487631775
  N   -1.25705972003011     -0.12734281693030      0.84662520654042
  O   -0.83205573100825      0.17938115137506      1.95390806722298
  O   -2.40753979352750     -0.43378580686756      0.55734463051359
  C   1.15712178445895      1.69106518116430      0.50024226130040
  N   1.22514547569942      2.82463332817856      0.79179461364139
