13
Coordinates from ORCA-job run
  C   -0.22886367759588     -0.03614493075609     -0.49367011812121
  C   1.14660877183882      0.20666206050460      0.10725138014055
  F   -0.57372156136933      0.97550656618978     -1.31571460603881
  H   1.40360502495207     -0.61795760368371      0.77483044890500
  H   1.85800609872989      0.22427979286536     -0.72148284048816
  N   -0.28240485407328     -1.25256715875805     -1.20549121630779
  H   -1.16530603194375     -1.34080630039712     -1.69495466913598
  H   -0.14946190125284     -2.04249366492349     -0.58780196526675
  N   -1.24996236058137     -0.00647247120141      0.67504999360003
  O   -2.12877973681417      0.84118637647619      0.67744081716393
  O   -1.07066723095774     -0.89559581858748      1.50465939446168
  C   1.19988752393712      1.46752395229592      0.84131711231733
  N   1.24305993513048      2.47787919997547      1.43556626877017
