13
Coordinates from ORCA-job run
  C   -0.29979611094521     -0.00842692483823     -0.57195224715785
  C   0.91592302269105      0.81411883066288     -0.18438687249043
  F   -0.84828601815814      0.52715251157772     -1.70448001418156
  H   0.61481341586110      1.85461700996936     -0.06695159902270
  H   1.63175485220931      0.73745567829764     -1.00592536559393
  N   -0.02280258288480     -1.35813607491691     -0.77434476022680
  H   -0.87412361262852     -1.89323030777805     -0.89190280943575
  H   0.53379441918988     -1.75365592062946     -0.02831473926305
  N   -1.43104450103042      0.23422661216733      0.48029543098217
  O   -2.21393857113353     -0.69333539171365      0.65446237030033
  O   -1.48363099254872      1.34237360672521      1.00148615939120
  C   1.51019581877884      0.31792653912033      1.05146623444573
  N   1.96614086059912     -0.12108616864421      2.03954821225263
