17

C	-0.688632	0.025704	-1.353063
C	0.0	0.0	0.0
Br	-0.095235	-1.425912	-2.504224
H	1.09263	0.0	0.0
N	-2.098297	-0.002829	-1.217193
H	-2.533892	0.180856	-2.112939
H	-2.310565	0.757283	-0.573703
N	-0.255494	1.304678	-2.130841
O	-1.046736	1.712439	-2.984327
O	0.819714	1.818707	-1.862207
N	-0.407579	-1.20305	0.679601
H	0.272161	-1.405962	1.399605
H	-1.345914	-1.14998	1.055806
N	-0.474611	1.256444	0.67143
H	-0.56933	1.028641	1.654982
H	0.315456	1.894296	0.610203
F	2.633642	0.0	0.0
