17

C	-0.56704	-0.014353	-1.413993
C	0.0	0.0	0.0
Br	0.194637	-1.471538	-2.473454
H	1.09293	0.0	0.0
N	-1.979602	-0.113053	-1.413233
H	-2.339901	0.067857	-2.342456
H	-2.286494	0.619935	-0.775117
N	-0.118997	1.265844	-2.176197
O	-0.835407	1.609466	-3.118947
O	0.892848	1.84198	-1.810471
N	-0.443163	-1.168308	0.741915
H	0.335116	-1.817064	0.762416
H	-1.239392	-1.611607	0.295686
N	-0.56752	1.228187	0.60978
H	-0.786051	0.962261	1.563212
H	0.200394	1.891211	0.654003
F	2.640779	0.0	0.0
