17

C	-0.108632	0.034202	-1.536999
C	0.0	0.0	0.0
Br	-1.913452	0.555801	-2.177517
H	1.102179	0.0	0.0
N	0.879814	0.888143	-2.112887
H	0.640516	1.81409	-1.768187
H	1.749387	0.629018	-1.601155
N	0.130322	-1.387468	-2.060897
O	-0.785383	-2.206353	-1.969865
O	1.261491	-1.638102	-2.457718
N	-0.571638	-1.123789	0.70638
H	-1.395156	-1.478106	0.230842
H	0.110813	-1.873293	0.74268
N	-0.420759	1.306112	0.48194
H	-1.389867	1.246467	0.782141
H	0.140742	1.495034	1.306078
F	2.666181	0.0	0.0
