17

C	-0.353495	-0.09599	-1.432257
C	0.0	0.0	0.0
Br	-2.640143	-0.783838	-1.522091
H	1.100046	0.0	0.0
N	-0.235262	1.022913	-2.144741
H	-0.431836	0.976999	-3.130653
H	-0.478831	1.838195	-1.593699
N	0.153354	-1.282608	-2.203941
O	0.191681	-1.163132	-3.427286
O	0.50164	-2.273659	-1.577605
N	-0.423479	-1.066332	0.875137
H	0.349272	-1.71426	0.959259
H	-1.217791	-1.55709	0.480378
N	-0.405086	1.337457	0.450954
H	-1.200151	1.218571	1.069323
H	0.36989	1.679692	1.009194
F	2.535629	0.0	0.0
