11
Coordinates from ORCA-job run
  C   -0.48032253575076      0.37542448073775     -0.07874566525625
  C   0.77586533568455     -0.47245999200695      0.10360910054524
  Br  -0.09999812167609      1.85924618004490     -1.28445671437776
  H   0.51718987977349     -1.36139479033316      0.69095823129633
  H   -0.75079864781462      0.86021612934386      0.86598199891092
  H   1.11627073948774     -0.81080356943307     -0.87744757903144
  N   -1.50800933367034     -0.44756106578756     -0.67443190310480
  H   -2.32517672323313      0.10988391961933     -0.89111963116267
  H   -1.78402462258364     -1.16865286187898     -0.01563997700408
  C   1.84553829684433      0.24223194121727      0.79404718988819
  N   2.69446573293847      0.81386962847660      1.36724494929632
