11
Coordinates from ORCA-job run
  C   -0.46216596510842      0.35803588519879     -0.19121910871359
  C   0.75068561492447     -0.45103078797937      0.26088287113093
  Br  0.05703614781735      1.57203433004898     -1.62516642724658
  H   1.15998728681324     -0.98113663058910     -0.60189939634481
  H   -0.79678513669164      1.02150945116014      0.61410053458851
  H   0.42014731608455     -1.20275165340058      0.98737698029369
  N   -1.45897185889040     -0.55513762346704     -0.70205926679717
  H   -2.24003420680561     -0.04249514487900     -1.09275770705871
  H   -1.80789652839308     -1.13002808762601      0.05814027704177
  C   1.78100852425883      0.37354533663047      0.88567609367521
  N   2.59698880599072      1.03645492490272      1.40592514943074
