11
Coordinates from ORCA-job run
  C   -0.53692610332595      0.45022307274578     -0.05385767263342
  C   0.70858462301262     -0.42932190321642      0.14233079862716
  Br  -0.08136129092138      1.87995238579042     -1.30993705766709
  H   0.42972702635749     -1.27505531654360      0.78086697196373
  H   -0.78792002765117      0.95303937684620      0.88133858367274
  H   1.02575790747716     -0.83092888776419     -0.82448740371214
  N   -1.69847582533991     -0.24163379520822     -0.53049956580513
  H   -1.49083369412776     -0.80172677227644     -1.34773031132011
  H   -2.09332974208622     -0.82625290058239      0.19581435053210
  C   1.82387272905060      0.27810720238719      0.76571356487982
  N   2.70190439755455      0.84459753782167      1.29944774146233
