11
Coordinates from ORCA-job run
  C   -0.67351465823735      0.51915903094949      0.10049982799719
  C   0.62104712543347      0.04776154995709      0.78707407221949
  Br  -0.27696274779058      2.17070877351565     -0.87488315092091
  H   0.36759164587023     -0.77797123010047      1.46219586263708
  H   -1.38950276010940      0.80509564880004      0.87311643951261
  H   1.06187835526649      0.84876004241246      1.38534954051359
  N   -1.30030938178243     -0.41175187573779     -0.78752228774851
  H   -0.65185248443734     -0.75800772426409     -1.48452578959033
  H   -1.70069452463564     -1.18737410610001     -0.27433920495887
  C   1.59600505454262     -0.43372786276084     -0.18746341546088
  N   2.34631437587992     -0.82465224667155     -1.00050189420045
