11
Coordinates from ORCA-job run
  C   -0.64995749583405      0.34822149530573      0.13816185167013
  C   0.81455297998702      0.28861341960474      0.56972234176635
  Br  -1.28360625544890      2.17984567764258      0.39043445354977
  H   0.92016719631556      0.61362392233784      1.60683363851869
  H   -1.26593615933099     -0.24232044717744      0.82587235905545
  H   1.39406639242224      0.95939030474658     -0.06908119001227
  N   -0.76534923878119      0.00691529487521     -1.25571046638156
  H   -1.73173702595414      0.05214815992717     -1.55434619415346
  H   -0.42855888587514     -0.93914546426180     -1.40499378389892
  C   1.31977726008041     -1.07776803061111      0.43369929259419
  N   1.67558123241919     -2.19052433238949      0.32040769729165
