11
Coordinates from ORCA-job run
  C   -0.52328636378220      0.32862059101899     -0.03404278692760
  C   0.75633506407064     -0.44062546702693      0.28104456541645
  Br  -0.14907478170140      1.52620604214717     -1.60525065053617
  H   1.05715607742330     -1.03267853431117     -0.58836746618821
  H   -0.76135247249993      1.03072254047875      0.76381513949947
  H   0.53054785814259     -1.13129614691018      1.09919917033154
  N   -1.59899845633161     -0.56847958537402     -0.22633131240251
  H   -1.44644589636490     -1.17325595456049     -1.02403839720587
  H   -2.47689238762564     -0.08196384032815     -0.35026746396551
  C   1.86208571833359      0.42691064068170      0.67450867970928
  N   2.74992564033555      1.11583971418432      1.01073052226913
