11
Coordinates from ORCA-job run
  C   -0.70527772976841      0.36923756008799      0.19020101386201
  C   0.79812352712708      0.28634779289253      0.50906253136854
  Br  -1.21435978866457      2.25503421969048      0.37986013027129
  H   1.35793502745239      0.90085195446676     -0.20198143773051
  H   -1.27244208961668     -0.16139374274782      0.95630471585361
  H   1.00579969089497      0.66672334468683      1.51230089012489
  N   -1.10946515466003     -0.11145951209064     -1.09277630293191
  H   -0.53009278789568      0.25796474936228     -1.83585538824500
  H   -1.09980576104803     -1.12341931276937     -1.11995138025960
  C   1.23782943985354     -1.10468455141320      0.40420086705237
  N   1.53175562632541     -2.23620250216585      0.29963436063432
