11
Coordinates from ORCA-job run
  C   -0.53152192599755      0.45040904306387     -0.08845118004771
  C   0.70458021320578     -0.42514647287879      0.17489138500717
  Br  -0.07908781557124      1.73775112901514     -1.49123144496544
  H   0.42409066612531     -1.19809271266564      0.89915586516610
  H   -0.75739674104103      1.04968124053515      0.79486497427333
  H   0.99914661877294     -0.92661973118768     -0.75161577951794
  N   -1.71162016653829     -0.26715555966097     -0.47199723049927
  H   -1.52774840383311     -0.91143532965222     -1.23075059462556
  H   -2.10262061692623     -0.76700259468814      0.31692993173688
  C   1.84141964850651      0.32345299271610      0.70401802001440
  N   2.74275852329690      0.93215799540317      1.14418605345804
