11
Coordinates from ORCA-job run
  C   -0.65401922975827      0.39616063589663      0.20571790963051
  C   0.69336854510899      0.01009389880966      0.80880103905887
  Br  -0.39168326839576      2.12898754518275     -0.80040890583391
  H   0.52458054537034     -0.82318069341753      1.49839168954315
  H   -1.34332672310480      0.68227582605834      0.99909896546855
  H   1.11660395679929      0.84720316219939      1.36609950285285
  N   -1.19809091548915     -0.65453456146769     -0.55688982738350
  H   -2.12771173949638     -0.44393521263369     -0.89331264063882
  H   -0.60723863385801     -0.90812666864734     -1.33988603402308
  C   1.63487913456086     -0.42314033093322     -0.22120906567867
  N   2.35163832826290     -0.81080360104729     -1.06540263299594
