11
Coordinates from ORCA-job run
  C   -0.65590198954242      0.53906365803451      0.12155349220914
  C   0.62491438051991      0.00287891872648      0.78634145297142
  Br  -0.20928101115687      2.21149067767079     -0.79403966382307
  H   0.34888154659012     -0.84043184729029      1.43017450428709
  H   -1.36146439041196      0.81806090283152      0.90620833708847
  H   1.09025452312618      0.76707479795427      1.41343106833496
  N   -1.31322386237008     -0.33908266347218     -0.79811432777995
  H   -0.67604348966494     -0.68077824671091     -1.50779787532809
  H   -1.73531427524525     -1.12026143403548     -0.31122531769382
  C   1.58156183579362     -0.47276746413333     -0.20900934535041
  N   2.30461673236168     -0.88424729957535     -1.03652232491576
