13

C	0.0	0.0	0.0
C	-0.456998	0.052588	-1.446506
F	1.356645	0.0	0.0
H	-1.554813	0.092179	-1.435479
H	-0.127763	-0.848015	-1.973386
H	-0.049605	0.94614	-1.921035
N	-0.579928	1.196851	0.651218
O	-1.741211	0.939558	1.178992
O	-0.238738	2.308058	0.161593
N	-0.426176	-1.156965	0.735896
H	-0.246205	-1.96259	0.147378
H	-1.43914	-1.05497	0.82951
H	-2.935712	0.0	0.0
