13

C	0.0	0.0	0.0
C	-0.484117	-0.023521	-1.428941
F	1.35674	0.0	0.0
H	-0.018198	0.768795	-2.01464
H	-1.577595	0.073174	-1.384671
H	-0.220387	-0.997848	-1.852807
N	-0.30411	1.40385	0.592106
O	-0.83444	1.494123	1.687301
O	0.098945	2.351604	-0.08118
N	-0.56781	-0.946978	0.875936
H	-0.472769	-1.853684	0.427559
H	-1.593567	-0.721584	0.827093
H	-3.11494	0.0	0.0
