16

C	0.0	0.0	0.0
C	-0.411823	-0.117435	-1.507498
Br	1.956527	0.0	0.0
H	0.388392	-0.617404	-2.060625
N	-0.588321	1.148192	0.60688
H	-0.41266	1.127459	1.607249
H	-1.613723	1.03828	0.469954
C	-0.322749	-1.279692	0.667668
N	-0.521523	-2.24954	1.303523
N	-0.304952	1.332878	-2.091367
O	0.796965	1.666674	-2.534646
O	-1.321575	2.017972	-2.122147
N	-1.648948	-0.733418	-1.647164
H	-2.419312	-0.382725	-0.95847
H	-1.977766	-0.707726	-2.604037
H	-3.308013	0.0	0.0
