16

C	0.0	0.0	0.0
C	-0.553838	-0.059708	-1.421844
Br	1.947613	0.0	0.0
H	-1.652714	-0.221656	-1.215741
N	-0.558475	1.197749	0.569509
H	-1.598363	0.99109	0.496593
H	-0.322584	1.227343	1.557599
C	-0.350868	-1.195872	0.798756
N	-0.541853	-2.051581	1.583324
N	-0.091099	-1.240101	-2.207172
O	0.26174	-2.254108	-1.604778
O	-0.196878	-1.151593	-3.430416
N	-0.236215	1.142681	-2.146552
H	-0.968996	1.315035	-2.823475
H	-0.254914	1.893207	-1.463065
H	-2.8945	0.0	0.0
