16

C	0.0	0.0	0.0
C	-0.574017	-0.073952	-1.434419
Br	1.956771	0.0	0.0
H	-1.612292	-0.422538	-1.240624
N	-0.579788	1.159407	0.597558
H	-1.620949	0.939839	0.49144
H	-0.37558	1.141436	1.593908
C	-0.304105	-1.234621	0.763717
N	-0.481492	-2.141806	1.491458
N	0.147523	-1.125152	-2.224404
O	0.026451	-2.281493	-1.815598
O	0.81221	-0.788927	-3.201477
N	-0.633418	1.152623	-2.144335
H	-1.473794	1.621489	-1.82685
H	0.160147	1.740956	-1.924384
H	-2.914185	0.0	0.0
