16

C	0.0	0.0	0.0
C	-0.557469	-0.118135	-1.438912
Br	1.948791	0.0	0.0
H	-1.621986	-0.378945	-1.242037
N	-0.5898	1.183098	0.541039
H	-1.632233	0.945892	0.442535
H	-0.393106	1.212532	1.538897
C	-0.311542	-1.200574	0.813182
N	-0.473683	-2.07317	1.586546
N	0.097615	-1.25724	-2.154476
O	0.82343	-1.012558	-3.116189
O	-0.13204	-2.382959	-1.710722
N	-0.498695	1.064339	-2.22456
H	-1.213249	1.685819	-1.864006
H	0.400137	1.520843	-2.116087
H	-2.910734	0.0	0.0
