19

C	0.0	0.0	0.0
C	-0.256526	-0.001708	-1.540235
F	1.402083	0.0	0.0
H	0.094646	0.955028	-1.930671
C	-0.515724	1.27533	0.621175
H	-1.606515	1.309501	0.548271
H	-0.081604	2.144701	0.124008
H	-0.229226	1.283255	1.674366
N	-0.467467	-1.12609	0.733818
H	-0.316909	-1.974538	0.201498
H	-1.4652	-1.020499	0.902653
C	-1.651625	-0.322178	-2.016786
H	-2.386522	0.371014	-1.610912
H	-1.68197	-0.283279	-3.109922
H	-1.9603	-1.312006	-1.685053
N	0.682524	-0.99015	-2.167972
O	0.560219	-2.174029	-1.849485
O	1.50158	-0.571914	-2.984285
Br	-4.388577	0.0	0.0
