19

C	0.0	0.0	0.0
C	-0.175423	0.139339	-1.563665
F	1.398135	0.0	0.0
H	0.586048	-0.540623	-1.953828
C	-0.498008	1.178331	0.797611
H	0.009843	2.096374	0.500511
H	-1.577674	1.277542	0.659701
H	-0.290092	0.980473	1.850486
N	-0.475991	-1.212892	0.567399
H	-1.471406	-1.094822	0.762303
H	-0.407252	-1.963818	-0.109182
C	0.067534	1.540108	-2.082858
H	-0.726777	2.216683	-1.769534
H	0.101225	1.542423	-3.174049
H	1.027707	1.893101	-1.701336
N	-1.425141	-0.431731	-2.171408
O	-2.186353	0.318672	-2.7698
O	-1.535188	-1.65698	-2.10952
Br	-3.951042	0.0	0.0
