19

C	0.0	0.0	0.0
C	-0.474722	-0.004525	-1.463488
F	1.413257	0.0	0.0
H	-1.541851	0.242665	-1.431975
C	-0.483088	1.203997	0.770781
H	-1.576395	1.192083	0.786049
H	-0.088094	1.146729	1.789594
H	-0.130995	2.125147	0.309227
N	-0.461726	-1.206724	0.599616
H	0.192414	-1.959376	0.438868
H	-0.65208	-1.096769	1.584369
C	-0.234758	-1.316679	-2.180684
H	-0.473127	-1.215166	-3.240929
H	0.806538	-1.631162	-2.095279
H	-0.899701	-2.061344	-1.745046
N	0.213028	1.107819	-2.195347
O	-0.273697	2.236127	-2.103532
O	1.236074	0.844142	-2.83016
Br	-3.991896	0.0	0.0
