19

C	0.0	0.0	0.0
C	-0.162221	-0.065765	-1.568593
F	1.416035	0.0	0.0
H	0.604667	-0.7859	-1.86288
C	-0.489807	1.27545	0.635511
H	0.023097	2.142917	0.220864
H	-0.281499	1.217198	1.705289
H	-1.569618	1.357974	0.484791
N	-0.475238	-1.123887	0.719926
H	-1.469865	-0.979399	0.899919
H	-0.40481	-1.960415	0.155309
C	0.069437	1.259222	-2.264537
H	1.015969	1.676771	-1.91699
H	-0.741969	1.95474	-2.054223
H	0.123016	1.118935	-3.345228
N	-1.405315	-0.721014	-2.100475
O	-2.170342	-0.062527	-2.793541
O	-1.508597	-1.92836	-1.876613
Br	-3.914948	0.0	0.0
