17

C	-0.262065	-0.022378	-1.520477
C	0.0	0.0	0.0
Br	0.137993	1.760783	-2.268727
H	1.10703	0.0	0.0
C	0.706426	-1.014174	-2.16959
H	0.70902	-0.904515	-3.255376
H	0.402402	-2.035597	-1.923278
H	1.68946	-0.802609	-1.725749
C	-1.656833	-0.297226	-1.86251
N	-2.771451	-0.577721	-2.111533
C	-0.426897	-1.312739	0.66829
H	-1.471495	-1.578337	0.475624
H	0.228029	-2.116491	0.331475
H	-0.288218	-1.217447	1.746957
C	-0.605677	1.13238	0.668902
N	-1.09485	2.015401	1.273345
F	2.590761	0.0	0.0
