17

C	-0.47883	0.229445	-1.441291
C	0.0	0.0	0.0
Br	0.413809	-1.068495	-2.641239
H	1.107766	0.0	0.0
C	-1.984506	0.077664	-1.645662
H	-2.502626	0.781649	-0.987348
H	-2.260573	0.28439	-2.681392
H	-2.291078	-0.938978	-1.397237
C	-0.060326	1.551128	-1.911929
N	0.18359	2.628756	-2.31387
C	-0.398771	-1.351588	0.59166
H	-0.018844	-2.15011	-0.047755
H	-1.476135	-1.481806	0.742351
H	0.103298	-1.446126	1.556776
C	-0.514023	1.078757	0.821791
N	-0.952176	1.933968	1.503188
F	2.520219	0.0	0.0
