17

C	-0.177646	0.087171	-1.511782
C	0.0	0.0	0.0
Br	-2.097872	0.308423	-2.060253
H	1.10882	0.0	0.0
C	0.653976	1.23949	-2.063415
H	0.256704	2.186002	-1.694675
H	1.65794	1.073177	-1.654004
H	0.651864	1.246233	-3.15456
C	0.248078	-1.167075	-2.135046
N	0.59526	-2.152087	-2.674933
C	-0.54996	-1.255352	0.656676
H	-0.336363	-1.226653	1.727826
H	-1.631189	-1.361643	0.516044
H	-0.045203	-2.13091	0.241152
C	-0.476024	1.210133	0.639434
N	-0.847517	2.180753	1.189936
F	2.562737	0.0	0.0
