17

C	-0.181092	0.023532	-1.517491
C	0.0	0.0	0.0
Br	-2.094321	0.275511	-2.074817
H	1.099047	0.0	0.0
C	0.684151	1.125275	-2.119876
H	0.689536	1.07887	-3.20963
H	1.681291	0.95173	-1.691317
H	0.310618	2.099764	-1.798548
C	0.198621	-1.274218	-2.076118
N	0.50347	-2.317961	-2.524457
C	-0.556695	-1.222217	0.713473
H	-1.637428	-1.329882	0.573737
H	-0.053291	-2.117463	0.3448
H	-0.347785	-1.141855	1.782762
C	-0.477775	1.238726	0.582798
N	-0.859603	2.230528	1.087801
F	2.572325	0.0	0.0
