17

C	-0.284238	-0.079322	-1.512803
C	0.0	0.0	0.0
Br	0.183693	1.653602	-2.340293
H	1.108113	0.0	0.0
C	0.627854	-1.14184	-2.127932
H	0.278856	-2.137225	-1.839134
H	1.620699	-0.955115	-1.701829
H	0.632329	-1.076222	-3.215459
C	-1.703118	-0.291184	-1.801081
N	-2.853994	-0.484389	-1.960369
C	-0.427986	-1.280675	0.727346
H	-1.482614	-1.534088	0.574404
H	0.204462	-2.108662	0.40628
H	-0.257232	-1.144309	1.796938
C	-0.616295	1.152818	0.627098
N	-1.151992	2.032379	1.196621
F	2.588229	0.0	0.0
