17

C	-0.425037	0.043463	-1.478888
C	0.0	0.0	0.0
Br	0.367771	-1.502372	-2.427513
H	1.108553	0.0	0.0
C	-1.931686	0.011992	-1.724666
H	-2.355433	-0.911375	-1.330666
H	-2.154488	0.070302	-2.791934
H	-2.391431	0.863013	-1.215996
C	0.136728	1.232951	-2.119957
N	0.477752	2.213447	-2.673045
C	-0.435659	-1.249166	0.7593
H	-0.081818	-1.155183	1.787366
H	-1.518847	-1.410846	0.781249
H	0.055866	-2.122524	0.328463
C	-0.534253	1.187945	0.637707
N	-1.016202	2.128699	1.159
F	2.519504	0.0	0.0
