12
Coordinates from ORCA-job run
  C   -0.64680567288952      0.12665151039459     -0.27586545937774
  C   0.58038003591563     -0.66740941358362     -0.70848389651119
  F   -1.70844723457251     -0.30280633291038     -1.00015728030052
  H   0.33998273242601     -1.72685000185295     -0.57919882725399
  H   0.74744522105478     -0.47677985026012     -1.77222853250526
  N   -0.93028208134776     -0.21408079681885      1.19472940030090
  O   -1.43595213428185     -1.31113069213818      1.37548658547305
  O   -0.57818878928940      0.60728444377052      2.03004919231341
  C   -0.49051622982461      1.57380424447432     -0.41477309021102
  N   -0.35835804380073      2.72594130616326     -0.60308867872572
  C   1.76328389544671     -0.30865988001848      0.06541380132594
  N   2.71745830116325     -0.02596453722012      0.68711678547215
