12
Coordinates from ORCA-job run
  C   -0.53183480711690      0.13025738718138     -0.29738445028349
  C   0.98336208649367      0.05277358258569     -0.44584991880623
  F   -1.13725460707498     -0.76078271814277     -1.10635549591560
  H   1.44686513667464      0.78118254709246      0.22277592708033
  H   1.23686708819386      0.31231854091513     -1.47750459252702
  N   -0.88558872617994     -0.22405592212655      1.15846097025823
  O   -0.42330827128387      0.55055020988315      1.98461808073446
  O   -1.55284104326218     -1.22607598291725      1.34087483218273
  C   -1.03381392237890      1.48201175048883     -0.55517319088401
  N   -1.41217243322686      2.56852172065434     -0.79258335912057
  C   1.46247241570733     -1.29303983144833     -0.14135838791402
  N   1.84724708345413     -2.37266128416606      0.10947958519518
