12
Coordinates from ORCA-job run
  C   -0.50926511864369      0.03181933192368     -0.17373232888162
  C   0.88209491392709     -0.52393692169055      0.11106149650132
  F   -1.11345302787063     -0.68108789962222     -1.14380735717969
  H   0.76863818025596     -1.57086966542482      0.41015757018403
  H   1.32944463040327      0.03179494812100      0.93785774500803
  N   -1.32377246864472     -0.13678781298618      1.12268262242973
  O   -0.91484982159079      0.52833010743853      2.06432786100422
  O   -2.25478855869887     -0.92214646248028      1.09398763251361
  C   -0.50424589032737      1.45658266312367     -0.51018545339728
  N   -0.48190260619032      2.59567753887740     -0.79710668081892
  C   1.72307626469905     -0.43928468562829     -1.07840694152744
  N   2.39902350268102     -0.37109114165193     -2.03483616583597
