12
Coordinates from ORCA-job run
  C   -0.48261092874622      0.10326350447107     -0.11870907595803
  C   0.83666029975892     -0.63692203240529      0.02778458761845
  F   -1.20861038150536     -0.43407372133137     -1.13522406263654
  H   0.61364547561291     -1.69315538913685      0.19039881030451
  H   1.37216824353119     -0.26336740549641      0.90500243237006
  N   -1.33800306058382     -0.10673183635227      1.14230880013818
  O   -1.14849545889590     -1.14884174998266      1.75746821084255
  O   -2.18133274410754      0.75025106126372      1.36897696281466
  C   -0.30920931565896      1.54181730046468     -0.32539651059245
  N   -0.10537974325682      2.68547414666877     -0.49962483615621
  C   1.64888744406833     -0.46455528403611     -1.17291812473151
  N   2.30228016978327     -0.33115859412728     -2.13806719401368
