12
Coordinates from ORCA-job run
  C   -0.50659975387913      0.26060795814209     -0.25425058840447
  C   0.94505492352036     -0.12817391025365     -0.51130191200981
  F   -1.33573681992338     -0.42389383006601     -1.06566217358588
  H   1.59190315915923      0.44048661858448      0.15988114203933
  H   1.19010893327604      0.13716509871048     -1.54343520545133
  N   -0.84602038767966     -0.10916945473382      1.20191080328320
  O   -0.18002198041915      0.49030604206075      2.03458049643071
  O   -1.70335306363479     -0.95602098956632      1.37560573134649
  C   -0.71665580873847      1.70284721603417     -0.40163957176623
  N   -0.86009325615368      2.85897805158968     -0.55272321345839
  C   1.13600314924962     -1.56164502081218     -0.30705507620897
  N   1.28541090522300     -2.71248777968966     -0.13491043221464
