12
Coordinates from ORCA-job run
  C   -0.50658815662238      0.07555247603824     -0.16559054168353
  C   0.85057292344846     -0.58349733028417      0.05825396219007
  F   -1.15612689967614     -0.51688416296018     -1.18602049204594
  H   1.33197011842553     -0.13129876416253      0.92802325585036
  H   0.67542447683837     -1.64467740414933      0.26330335959003
  N   -1.32380941902463     -0.15340257822341      1.11987199758249
  O   -2.29923337034735     -0.87837138623100      1.03436829613518
  O   -0.87216154909999      0.40506170849400      2.11009156596623
  C   -0.41950707860272      1.52071379660777     -0.38193755516681
  N   -0.33572176565206      2.67671965985055     -0.57436703758530
  C   1.69101923385075     -0.44230262931690     -1.12615106153299
  N   2.36416148646216     -0.32561338566306     -2.07984574929980
