12
Coordinates from ORCA-job run
  C   -0.49391792175767      0.27146333098147     -0.26778977557526
  C   0.97056662608555     -0.10495259784128     -0.46254740985864
  F   -1.27575402224716     -0.37553759909603     -1.15352007000063
  H   1.27192551058500      0.21066479136133     -1.46525591970832
  H   1.57793819111975      0.43006704333114      0.27039822180891
  N   -0.91128666800485     -0.16343983113812      1.14928677353310
  O   -0.29421724964202      0.39896407614985      2.04320626818940
  O   -1.77525998217087     -1.01672551956041      1.23752084673034
  C   -0.69824587445794      1.71901993495289     -0.36157581643710
  N   -0.83599560143848      2.88083182570444     -0.46790204832720
  C   1.15593951277294     -1.54648708193260     -0.31991431534521
  N   1.30730747915574     -2.70386837291268     -0.20090675500939
