12
Coordinates from ORCA-job run
  C   -0.64623313574185      0.12964392590271     -0.27527990289232
  C   0.59355527982057     -0.63236832092252     -0.72927557442310
  F   -1.69735283742671     -0.28413436569085     -1.02381284991403
  H   0.76515136796615     -0.39882898536692     -1.78369936714213
  H   0.36513217800417     -1.69880219788916     -0.64273297183543
  N   -0.93623086101126     -0.27091433658387      1.17850692745153
  O   -0.59967134955526      0.52138072415558      2.04770361489703
  O   -1.43068008059602     -1.37972229180406      1.31292409784480
  C   -0.50677682445150      1.58284637101648     -0.35754488951430
  N   -0.38698643991973      2.74287134515131     -0.50032822637909
  C   1.76676428740718     -0.28995157801038      0.06636042299393
  N   2.71332841550427     -0.02002028995832      0.70517871891310
