12
Coordinates from ORCA-job run
  C   -0.55192546481160      0.12163535880180     -0.26451358137887
  C   0.93988308206704     -0.04106636409201     -0.53403895663524
  F   -1.26077401247332     -0.82205168652075     -0.91335608012841
  H   1.10764482541969      0.09098667197212     -1.60654584428751
  H   1.48732507206928      0.73525435609194      0.00442447316475
  N   -0.78276679394046     -0.05855703343486      1.24753033495170
  O   -1.46600242454118     -1.00374073929973      1.59711487095524
  O   -0.21879556498884      0.77781834104828      1.93934769225295
  C   -1.02566268051732      1.46022071272458     -0.62477242094437
  N   -1.38381718138943      2.53130638622477     -0.94820089723358
  C   1.39572579486456     -1.36498046468393     -0.11891542174119
  N   1.76016534824157     -2.42682553883223      0.22192583102453
