12
Coordinates from ORCA-job run
  C   -0.55634125748626      0.13672859099794     -0.24666641195413
  C   0.92987894633435     -0.01579131667317     -0.55016121721041
  F   -1.27972739143826     -0.76975375826313     -0.93131733950503
  H   1.49002117991946      0.72667064422377      0.02209224677011
  H   1.08013938057442      0.17625616101097     -1.61616462643245
  N   -0.76257983533635     -0.12101778390428      1.25794745333832
  O   -1.44488436562721     -1.08022646886905      1.56929565876753
  O   -0.18285402326635      0.67578542921068      1.98263788068094
  C   -1.03032361162339      1.49375138238831     -0.52925826916191
  N   -1.38790963833523      2.58119897446748     -0.79310774993866
  C   1.38778802546439     -1.36239671488555     -0.21848122698911
  N   1.75779259082042     -2.44220513970396      0.05318360163481
