12
Coordinates from ORCA-job run
  C   -0.53083499481501      0.00673572571992     -0.09448020103282
  C   0.90695175055888     -0.49172700999818      0.00969398377557
  F   -1.24981875760739     -0.79286279768098     -0.90569522403244
  H   0.87669897064643     -1.51593619811688      0.39554022739304
  H   1.45559222935616      0.13452186227631      0.71644409296237
  N   -1.13010920463416     -0.08327777969384      1.32128233478826
  O   -0.60541605740228      0.66041724087040      2.13859161266908
  O   -2.02552273808991     -0.89138955414674      1.49354261126028
  C   -0.62881468884255      1.40127266776441     -0.52855993230973
  N   -0.68915465320102      2.51539499814610     -0.89652333476385
  C   1.55224843571726     -0.47756832117838     -1.29884203973074
  N   2.06917970831361     -0.46758083396212     -2.35199413097902
