12
Coordinates from ORCA-job run
  C   -0.56830323519471      0.13665696862266     -0.21939301949199
  C   0.89294777424802     -0.05816324887711     -0.60831547834930
  F   -1.34866473212798     -0.78448439815375     -0.81684443249081
  H   0.97744225621525      0.07760535224937     -1.69007356919941
  H   1.49982470685780      0.70139938632657     -0.11122003119160
  N   -0.68243778908198     -0.05218123409657      1.30463188647524
  O   -0.04675278327279      0.76546300871608      1.95543440163275
  O   -1.35635113808195     -0.98571771942845      1.70050303182769
  C   -1.03786073210357      1.48880864897587     -0.53124919204546
  N   -1.39982072352468      2.56936271786406     -0.81673480359103
  C   1.35015962657677     -1.39464595978254     -0.23721126726587
  N   1.71881676948981     -2.46510352241619      0.07047247368976
