12
Coordinates from ORCA-job run
  C   -0.51008611301704      0.27704029976924     -0.22865801994535
  C   0.91263202434610     -0.16107260805907     -0.55791971916286
  F   -1.40173235054065     -0.38146374921542     -0.99373746840668
  H   1.61231690475212      0.38691457916004      0.07641551351759
  H   1.11310732991351      0.09285891856307     -1.60255307589434
  N   -0.78625995117157     -0.07717473489578      1.24457398618318
  O   -0.05867729707165      0.50151653228666      2.03947117146239
  O   -1.66197481594254     -0.89366335105396      1.46558633630721
  C   -0.67936768561114      1.72502760291446     -0.37153505776304
  N   -0.79428930758625      2.88450603984370     -0.52150688959008
  C   1.06576051129593     -1.59981901195625     -0.35864217946402
  N   1.18757075063321     -2.75467051735668     -0.19149459724399
