12
Coordinates from ORCA-job run
  C   -0.52670722538464      0.12874160505527     -0.30973040594353
  C   0.99170710538543      0.05492050564197     -0.42860818760240
  F   -1.11428072150011     -0.76377345760001     -1.12991355288730
  H   1.43947702676370      0.78958361711215      0.24356950683190
  H   1.26446579518116      0.30820753958169     -1.45679365893372
  N   -0.90558638901837     -0.22762468122312      1.13939632162365
  O   -0.46454597125748      0.55048878459082      1.97380160740932
  O   -1.56674306605311     -1.23580734247958      1.30972533835639
  C   -1.02623007776707      1.47981831718129     -0.57677743528373
  N   -1.40096314120441      2.56510634323963     -0.82547339459162
  C   1.46736451082080     -1.28699790764252     -0.10423141708232
  N   1.84404215403410     -2.36466332345758      0.16603527810337
