12
Coordinates from ORCA-job run
  C   -0.65652062259365      0.13439549765692     -0.24841181684206
  C   0.54411511551095     -0.67036664285078     -0.73251150763297
  F   -1.75077679370767     -0.28403408559736     -0.92932885731090
  H   0.67004338420678     -0.47842916293835     -1.80166392620639
  H   0.29757401240959     -1.72756965322301     -0.59639305667564
  N   -0.88210353727736     -0.20709418099216      1.23196515391150
  O   -0.48391399213248      0.60720977615535      2.05334462777754
  O   -1.39459655307583     -1.29766209849664      1.43136772067289
  C   -0.49364074357908      1.58034187296612     -0.39079939075474
  N   -0.35952380703217      2.73172583613223     -0.58253197238886
  C   1.76191368794673     -0.32805303018429     -0.00692397863569
  N   2.74642984932420     -0.06046412862802      0.57288700408533
