12
Coordinates from ORCA-job run
  C   -0.64442912436676      0.14234791800881     -0.27317396336444
  C   0.58777623925978     -0.62265386103821     -0.74244810088937
  F   -1.69885910022004     -0.24277305579025     -1.03208976454314
  H   0.34811474637497     -1.68830738265368     -0.67993998491330
  H   0.76388396762509     -0.36755414856492     -1.79108431749244
  N   -0.94087578546087     -0.28774688424844      1.17113760420178
  O   -0.59671164528254      0.48101787032700      2.05827420090488
  O   -1.44796319587214     -1.39360122033713      1.27997296390830
  C   -0.48887615385123      1.59544303928467     -0.32198532661159
  N   -0.35628788746591      2.75702306294337     -0.43823159037776
  C   1.76331868385922     -0.31024605106571      0.06212533429745
  N   2.71190925540042     -0.06394928686552      0.70744294487963
