12
Coordinates from ORCA-job run
  C   -0.47110604881724      0.17270819395986     -0.08629677487929
  C   0.77805046750556     -0.69048018200394     -0.15057609509829
  F   -1.21770848174659     -0.00194810396517     -1.20958091340202
  H   1.31988570782583     -0.62262630232692      0.79692028768228
  H   0.46426305649892     -1.72695083371220     -0.28883401313720
  N   -1.36622666341865     -0.30147469291354      1.07152066879560
  O   -1.30027204537225     -1.49247972317922      1.34941675612341
  O   -2.11464972163273      0.53688149051441      1.55540578877619
  C   -0.17385368016385      1.59253649862888      0.10808301913090
  N   0.12530338555071      2.71978811977520      0.24877644844136
  C   1.63306334648855     -0.26356325294094     -1.25385357116242
  N   2.32125067728175      0.07660878816357     -2.14098160127052
