12
Coordinates from ORCA-job run
  C   -0.54868359443132      0.12780633539099     -0.26589903658975
  C   0.94950103644998      0.00150180671795     -0.51875983659929
  F   -1.23197223037397     -0.79114807011069     -0.97507932604632
  H   1.13278290715577      0.19657033507884     -1.57901063178990
  H   1.47696465022974      0.75311213992205      0.07210897995079
  N   -0.80154923652638     -0.13471511968641      1.23075093627100
  O   -0.26278528224580      0.67306570427309      1.97460597656704
  O   -1.47525220367942     -1.10726944164094      1.51832102743880
  C   -1.03851596715776      1.47595158667284     -0.56399747156444
  N   -1.40657045304665      2.55775097426195     -0.83652083857875
  C   1.41640619603467     -1.33806276131687     -0.17149796017053
  N   1.78767417759115     -2.41356348956280      0.11497818111135
