12
Coordinates from ORCA-job run
  C   -0.50961671971676      0.30895634703473     -0.18857336537567
  C   0.84278629018281     -0.23404234656421     -0.63654157286187
  F   -1.51171875821788     -0.29530769012283     -0.85578523838067
  H   0.96052894560155     -0.01500155548110     -1.70148956610793
  H   1.63430984682807      0.27637284765549     -0.08396450693988
  N   -0.67294035330629     -0.00331343224545      1.31023316448359
  O   0.16283473655950      0.53421417171041      2.02356618026513
  O   -1.57735685066785     -0.75445190069025      1.62693830520761
  C   -0.58982723469790      1.76313854130140     -0.34630287285991
  N   -0.63945003032212      2.92554190211765     -0.50900563162359
  C   0.91859737557959     -1.67550948006059     -0.41369683594569
  N   0.98285275217727     -2.83159740465525     -0.22437805986113
