12
Coordinates from ORCA-job run
  C   -0.56719290851090      0.11833763131781     -0.23168759255555
  C   0.90267260042573     -0.07158004558130     -0.58960019813666
  F   -1.32492996946583     -0.84070452097191     -0.79765872603252
  H   1.49118368875257      0.71626781649832     -0.11501105208293
  H   1.00269501105170      0.02119397251813     -1.67460233200448
  N   -0.70213833096324     -0.00236690605014      1.29769645200807
  O   -0.08814972197110      0.85329964058781      1.91979634496991
  O   -1.36973017455203     -0.92619422981786      1.72587401913022
  C   -1.04983206308474      1.44802432610989     -0.61230552259617
  N   -1.41328932507640      2.51228029373622     -0.95202036448187
  C   1.37143724344305     -1.38606451256144     -0.15931706396431
  N   1.74727394995119     -2.44149346578553      0.18883603574628
