12
Coordinates from ORCA-job run
  C   -0.65083718573422      0.13758091987478     -0.26034908388905
  C   0.57274514197835     -0.62956092706630     -0.74837841679452
  F   -1.72103355261200     -0.25946117084695     -0.99038978591291
  H   0.72426547922342     -0.38648885026565     -1.80370155378941
  H   0.33772388224864     -1.69495037328164     -0.66762519508408
  N   -0.91298273499609     -0.27675227986785      1.19527521434302
  O   -1.41212221611364     -1.38354743520132      1.32831472542343
  O   -0.55292227314733      0.50398444853109      2.06548804604017
  C   -0.50068136674499      1.59036986934090     -0.32954094003851
  N   -0.37415339500983      2.75083535358830     -0.46238699957758
  C   1.76518854384853     -0.30435821136478      0.02569255901402
  N   2.72680967705916     -0.04865134344057      0.64760143026543
