12
Coordinates from ORCA-job run
  C   -0.44811387993435      0.22948243326960     -0.08888403084078
  C   0.73666914225094     -0.71378864098723     -0.21931173006174
  F   -1.09205087309921      0.33678696856850     -1.28174859150148
  H   1.18755998129606     -0.87369792709962      0.76427215453657
  H   0.36299574411134     -1.67292414050532     -0.58310835591223
  N   -1.48000886195239     -0.37989176163115      0.87625546868829
  O   -1.57043383919990     -1.60099820805719      0.85626754449015
  O   -2.16209158089464      0.40805544649233      1.51759860146731
  C   -0.07051056212091      1.55444706438533      0.40455602920635
  N   0.29405854273206      2.60417314818761      0.78553732180512
  C   1.72373094182616     -0.16493906757047     -1.14384460918368
  N   2.51819524498485      0.27329468494761     -1.88758980269388
