12
Coordinates from ORCA-job run
  C   -0.62386820458233      0.15013345185258     -0.23689376912121
  C   0.54308940419012     -0.66030487769010     -0.77178312150489
  F   -1.74637887817382     -0.18505136355516     -0.93243064240649
  H   0.28509545285727     -1.71783197976723     -0.69082042915638
  H   0.66834373132582     -0.40519185694817     -1.82783415475207
  N   -0.92350854348650     -0.23649748143269      1.22059925077440
  O   -1.46047048130967      0.62095530055768      1.90907743384491
  O   -0.67210005555338     -1.39447442725685      1.52698326637792
  C   -0.40030782212824      1.59442051010868     -0.30587334746781
  N   -0.18571637114965      2.74331087345395     -0.42456535297374
  C   1.76736843566826     -0.37601728961254     -0.03174872210120
  N   2.74845333234212     -0.13345085971014      0.56428958848655
