12
Coordinates from ORCA-job run
  C   -0.65735573267699      0.14437884693741     -0.23993894983598
  C   0.54056413016840     -0.63949119898927     -0.76365229849613
  F   -1.75533217197220     -0.24283633228197     -0.93309872532756
  H   0.29545258524217     -1.70163587798453     -0.67076790613044
  H   0.66095239108021     -0.40245673914912     -1.82436971273072
  N   -0.87717905481675     -0.26030394401096      1.22533649815893
  O   -1.38464556748945     -1.36058901598603      1.37952783741235
  O   -0.48005199188176      0.51979118662075      2.07986553982340
  C   -0.49227713931297      1.59499491285089     -0.32075657987675
  N   -0.35652840427381      2.75333652974414     -0.46298104428106
  C   1.76105678322187     -0.32551994215852     -0.02971099480156
  N   2.74534417271128     -0.07866842559278      0.55954633608550
