12
Coordinates from ORCA-job run
  C   -0.66016085031492      0.12264619359767     -0.24398642803781
  C   0.56139251826776     -0.63513676261723     -0.75120976649542
  F   -1.74279061951726     -0.29925307273691     -0.94110425941737
  H   0.67850997250294     -0.41083145312517     -1.81507291539195
  H   0.34705593040683     -1.70244627638784     -0.64322299533777
  N   -0.88074195557608     -0.27252155257575      1.22372363045645
  O   -1.36593539450576     -1.38159240541961      1.38582023043981
  O   -0.50564333817677      0.52439286833443      2.07267393556995
  C   -0.53033963631554      1.57604540998969     -0.33881823266697
  N   -0.41722303822860      2.73527849548057     -0.49256328102605
  C   1.76998980723068     -0.27354287567429     -0.01955686579839
  N   2.74588660422673      0.01596143113446      0.56431694770553
