12
Coordinates from ORCA-job run
  C   -0.64668918020470      0.14769500696858     -0.26569445871941
  C   0.56677287518810     -0.64095588194341     -0.74424918945655
  F   -1.71915795054676     -0.23244218497651     -1.00156468559532
  H   0.31332810277068     -1.70221070664334     -0.66449140039979
  H   0.73067006547624     -0.40112878197606     -1.79850131867974
  N   -0.92528655014551     -0.25864921141000      1.18907601947034
  O   -1.43859628436185     -1.35922458450052      1.32092223159065
  O   -0.56536434671929      0.52096705886025      2.06035898824565
  C   -0.47134665019446      1.59762472520728     -0.33682133686144
  N   -0.32295480118539      2.75566429177313     -0.46794567579475
  C   1.75850779959221     -0.33470865834971      0.03879314014630
  N   2.71911692033072     -0.09363107300972      0.66811768605407
