12
Coordinates from ORCA-job run
  C   -0.65520701299334      0.15117390669779     -0.24125057006716
  C   0.54000929159947     -0.63495540165515     -0.76769831165886
  F   -1.75238639573943     -0.22124145874999     -0.94380342916677
  H   0.28739584190389     -1.69638901350901     -0.68747998245968
  H   0.66711156409818     -0.38734444391614     -1.82519977324199
  N   -0.88479444222303     -0.26793956968687      1.21851923696423
  O   -0.48686654320387      0.50023337982004      2.08335961693711
  O   -1.40012756293482     -1.36649231857913      1.35824369113368
  C   -0.48034811325320      1.60145129613268     -0.30561067922597
  N   -0.33675221953757      2.76038993773258     -0.43446199822136
  C   1.75900018466636     -0.33710110918258     -0.02456321094071
  N   2.74196540761736     -0.10278520510424      0.57194540994747
