12
Coordinates from ORCA-job run
  C   -0.50493076299668      0.09171617197436     -0.16763495276613
  C   0.86054642347505     -0.57115466302286     -0.01841080319121
  F   -1.11032853539453     -0.32445367130175     -1.29644245109389
  H   0.70595117465351     -1.65504629918857     -0.01631176079914
  H   1.30183810379645     -0.27632833265448      0.93610996699352
  N   -1.35354426603288     -0.37351451347462      1.03090665990271
  O   -0.94545160976781      0.01292414500267      2.11732989668936
  O   -2.30876602568775     -1.08977601325387      0.78820673947062
  C   -0.44481893382108      1.55372831186412     -0.12552154243957
  N   -0.37721630558056      2.72658119033850     -0.11036972560620
  C   1.73608686818598     -0.19903404257601     -1.12457078034812
  N   2.44063386917029      0.10435771629250     -2.01229124681196
