12
Coordinates from ORCA-job run
  C   -0.65779866922694      0.12884679065886     -0.25348902008325
  C   0.57010205064627     -0.62829117931612     -0.74808620236696
  F   -1.72776159506338     -0.28072965444640     -0.97512849265502
  H   0.70452171450763     -0.39182335200354     -1.80728896373000
  H   0.34807294161983     -1.69600638343177     -0.65836493973251
  N   -0.90257560015176     -0.27956754040187      1.20639646297159
  O   -0.45757115917924      0.47115082300280      2.06413738155114
  O   -1.46345103356226     -1.35382657811934      1.35526018711816
  C   -0.52262342216561      1.58294881982600     -0.32767035942616
  N   -0.40780531147668      2.74492538121860     -0.45851835239402
  C   1.77168427823138     -0.28520496411437      0.00349629820243
  N   2.74520580582075     -0.01042216287285      0.59825600054459
