12
Coordinates from ORCA-job run
  C   -0.64639747770756      0.12712743386516     -0.27775741287601
  C   0.59431532163892     -0.63864893909712     -0.72298586115091
  F   -1.69629839049260     -0.29269879324241     -1.02439845397700
  H   0.76906494421799     -0.41304154607748     -1.77861213723014
  H   0.36568870851019     -1.70437970427142     -0.62878816221326
  N   -0.93818107454202     -0.26160963110217      1.17894769541022
  O   -1.43193973813230     -1.36969771236697      1.32176035016248
  O   -0.60234740623412      0.53754891406595      2.04218574088725
  C   -0.50624476292627      1.57955672809368     -0.37176604180397
  N   -0.38551204816392      2.73816660314086     -0.52453665172029
  C   1.76552657818267     -0.28999778939201      0.07297168706803
  N   2.71032534564902     -0.01432556361608      0.71197924744359
