12
Coordinates from ORCA-job run
  C   -0.64911958388646      0.14291757631992     -0.26384917735928
  C   0.57200648762853     -0.63108536332760     -0.74731249075016
  F   -1.71747654650743     -0.24121599891422     -1.00314246681645
  H   0.73016765803091     -0.38698028928681     -1.80145781341956
  H   0.33070760708689     -1.69537802715781     -0.66989260094700
  N   -0.92429848967061     -0.27737022595735      1.18782051643384
  O   -1.43499392542075     -1.37998713382298      1.31119784246298
  O   -0.56188054164363      0.49457781172587      2.06486584382167
  C   -0.48580140605499      1.59463485569922     -0.32329192052807
  N   -0.34450553015873      2.75464327382236     -0.44560144992717
  C   1.76243812041317     -0.31330857615697      0.03309184322980
  N   2.72275615018309     -0.06144790294362      0.65857187379940
