13

C	-0.44622	-0.037684	-1.449303
C	0.0	0.0	0.0
Cl	-2.213092	-0.286207	-1.594547
H	1.094777	0.0	0.0
H	-0.336058	-0.918128	0.485894
C	-0.086979	1.16036	-2.195857
N	0.140054	2.158387	-2.773346
N	0.203403	-1.26486	-2.119186
O	0.655426	-1.109786	-3.243669
O	0.159321	-2.298669	-1.471572
C	-0.539532	1.164824	0.680983
N	-0.991007	2.096416	1.234899
Br	3.365344	0.0	0.0
