14

C	0.0	0.0	0.0
C	-0.433691	0.133787	-1.482102
F	1.360354	0.0	0.0
H	0.512194	0.175999	-2.040431
H	-0.388356	0.809547	0.604271
N	-0.358732	-1.258785	0.728206
O	-0.231878	-2.313953	0.113167
O	-0.588234	-1.15616	1.927661
N	-1.180614	1.356711	-1.756439
H	-1.973244	1.220548	-1.103976
H	-0.614267	2.140041	-1.441144
C	-1.182629	-0.996018	-2.046314
N	-1.67656	-1.853993	-2.676663
F	-2.409366	0.0	0.0
