14

C	0.0	0.0	0.0
C	-0.453629	0.016783	-1.468811
F	1.354222	0.0	0.0
H	0.471535	-0.041643	-2.05719
H	-0.390581	0.848168	0.544323
N	-0.361465	-1.216394	0.796204
O	-0.24754	-2.306013	0.239584
O	-0.579847	-1.04794	1.990478
N	-1.091978	1.313266	-1.695388
H	-1.358037	1.366885	-2.67275
H	-1.945256	1.164854	-1.123902
C	-1.294423	-1.107835	-1.923522
N	-1.882827	-1.913407	-2.546253
F	-2.4481	0.0	0.0
