14

C	0.0	0.0	0.0
C	-0.411782	0.096009	-1.481962
F	1.357862	0.0	0.0
H	-0.278908	-0.913196	-1.887134
H	-0.372597	0.799653	0.627454
N	-0.384333	-1.28337	0.675657
O	-0.387793	-2.309688	0.000634
O	-0.533285	-1.235246	1.891857
N	0.462794	1.006405	-2.240614
H	0.156318	1.956011	-2.065151
H	1.418873	0.909084	-1.923263
C	-1.804025	0.533889	-1.746757
N	-2.545089	1.05676	-2.508253
F	-2.37653	0.0	0.0
