14

C	0.0	0.0	0.0
C	-0.584283	0.085996	-1.384241
F	1.359899	0.0	0.0
H	-1.707127	-0.082645	-1.068547
H	-0.382634	0.788387	0.640594
N	-0.390904	-1.277842	0.712463
O	-0.777692	-2.248665	0.078701
O	-0.198896	-1.250059	1.929462
N	0.028047	-0.866039	-2.307174
H	-0.691495	-1.271232	-2.889005
H	0.709212	-0.411538	-2.901264
C	-0.474314	1.463805	-1.850835
N	-0.36259	2.55776	-2.271184
F	-2.663306	0.0	0.0
