17

C	0.0	0.0	0.0
C	-0.442741	2.5e-05	-1.520973
Cl	1.778366	0.0	0.0
H	-1.523513	9.9e-05	-1.45252
N	-0.387097	1.284978	0.634625
H	0.060322	1.315183	1.551048
H	-1.409505	1.123163	0.727566
N	-0.387062	-1.285017	0.634609
H	-1.409509	-1.123241	0.7274
H	0.060171	-1.31508	1.551127
N	0.046911	-1.21228	-2.186103
H	-0.561316	-1.312101	-2.998399
H	-0.213098	-1.959455	-1.543202
N	0.047147	1.21226	-2.186056
H	-0.559544	1.310849	-2.999639
H	-0.214753	1.959688	-1.544226
H	-2.624398	0.0	0.0
