17

C	0.0	0.0	0.0
C	-0.29941	-0.167096	-1.53469
Cl	1.89409	0.0	0.0
H	0.531707	-0.739408	-1.955466
N	-0.541545	1.213704	0.515143
H	-1.566752	1.083815	0.411251
H	-0.346796	1.22499	1.511875
N	-0.382444	-1.124261	0.806313
H	-1.406399	-1.070551	0.842871
H	-0.166477	-1.975679	0.295902
N	-0.273058	1.156651	-2.177708
H	-0.600446	1.844977	-1.508863
H	-0.930972	1.13651	-2.94801
N	-1.482175	-0.992063	-1.711259
H	-2.284262	-0.590245	-1.18735
H	-1.708479	-1.028445	-2.700057
H	-3.217866	0.0	0.0
