17

C	0.0	0.0	0.0
C	-0.329315	0.077036	-1.538415
Cl	1.894001	0.0	0.0
H	0.52399	0.554949	-2.026291
N	-0.392895	1.166189	0.737124
H	-1.388572	1.024104	0.921935
H	-0.363973	1.956215	0.099796
N	-0.498479	-1.20149	0.596022
H	-1.523795	-1.07339	0.587641
H	-0.191309	-1.214751	1.563919
N	-1.460668	0.97498	-1.734411
H	-1.70643	0.969053	-2.720961
H	-2.271665	0.622169	-1.188354
N	-0.414891	-1.27985	-2.089035
H	-0.965162	-1.224201	-2.93941
H	-0.924004	-1.862489	-1.433489
H	-3.214421	0.0	0.0
