17

C	0.0	0.0	0.0
C	-0.422562	-0.088658	-1.47937
Cl	1.865115	0.0	0.0
H	0.226776	0.607483	-2.027401
N	-0.36529	1.277605	0.540407
H	-0.218308	1.265153	1.544963
H	-1.364064	1.377135	0.363061
N	-0.498308	-1.109522	0.694583
H	-0.22234	-1.146644	1.663446
H	-0.323655	-1.96653	0.188007
N	-1.768074	0.359699	-1.587431
H	-2.510626	-0.000232	-0.936918
H	-2.110546	0.385645	-2.538149
N	-0.166947	-1.48428	-1.932321
H	0.755651	-1.536929	-2.35427
H	-0.860055	-1.702601	-2.63989
H	-3.957894	0.0	0.0
