17

C	0.0	0.0	0.0
C	-0.345108	0.198171	-1.533472
Cl	1.877596	0.0	0.0
H	0.546825	0.611917	-2.009749
N	-0.384601	1.089127	0.857902
H	-0.220074	1.960726	0.360969
H	-1.404716	0.99632	0.922982
N	-0.483646	-1.247634	0.499235
H	-0.298749	-1.238768	1.498776
H	-1.510074	-1.165794	0.393209
N	-1.406226	1.177987	-1.668503
H	-1.678182	1.162937	-2.647974
H	-2.216561	0.826133	-1.12462
N	-0.645096	-1.04845	-2.239603
H	0.100117	-1.710867	-2.033274
H	-1.481421	-1.434971	-1.811583
H	-3.152605	0.0	0.0
