17

C	0.0	0.0	0.0
C	-0.399665	-0.036747	-1.477701
Cl	1.897512	0.0	0.0
H	-1.498559	0.019425	-1.410319
N	-0.423363	1.194939	0.658457
H	-0.222241	1.9739	0.037543
H	-1.452411	1.073791	0.673162
N	-0.45932	-1.164671	0.667154
H	-1.464687	-1.19781	0.426029
H	-0.419265	-0.948915	1.659792
N	-0.031972	-1.296639	-2.10504
H	-0.227119	-1.237583	-3.09793
H	0.961694	-1.45516	-1.979237
N	0.067277	1.189095	-2.133893
H	1.048255	1.08301	-2.368903
H	-0.454443	1.315655	-2.993333
H	-3.047413	0.0	0.0
