16
Coordinates from ORCA-job run
  C   -0.44460682181293      0.29045026333713     -0.36214470957833
  C   0.90432268523992     -0.32417908155622     -0.74375095469383
  Cl  -1.20792909362397      0.82364982843752     -1.91287438639436
  H   1.51461202650070      0.45631230876154     -1.20661382419273
  H   0.73153292771583     -1.09299958970007     -1.50839100193091
  C   -1.35778934401992     -0.74071387566117      0.27684836840432
  H   -2.34288790812828     -0.31350874107201      0.47344147876307
  H   -1.48622925237562     -1.60701455534038     -0.37719233240063
  H   -0.92486270886471     -1.06703757510277      1.22572161830782
  C   -0.26984593070030      1.51086534220651      0.52207989703262
  H   -1.23867692631243      1.94551443048598      0.77638218757897
  H   0.24628514375051      1.21223394821304      1.43611165706680
  H   0.32506360283004      2.27304997779869      0.01370590893887
  N   1.58146109540590     -0.82756526313016      0.45104538470968
  H   1.38567229046261     -1.81121791890304      0.57997944806541
  H   2.58287821393265     -0.72783949877459      0.35765126032323
