16
Coordinates from ORCA-job run
  C   -0.39984540931329      0.12918899807393     -0.20479585939751
  C   0.83197850168409     -0.76656344155722     -0.11170122968132
  Cl  -0.57441774309927      0.62383709704496     -1.94402563178381
  H   0.89393340669786     -1.11327159208858      0.92636167646735
  H   0.65680826005256     -1.64887729132886     -0.74530816502408
  C   -1.64957193976084     -0.65015108534262      0.16685889953006
  H   -1.58828832318606     -0.96270175151421      1.21389841112631
  H   -1.75900857204243     -1.53866829221544     -0.45844408419945
  H   -2.53995519332559     -0.03119397009104      0.04251526465677
  C   -0.24968639734009      1.39108509104490      0.62386243189665
  H   0.64247640476288      1.93941622213109      0.32818333074066
  H   -1.12755222972619      2.03029635452448      0.51085518101798
  H   -0.14999586189928      1.11690249428822      1.67902141062596
  N   2.05930504036783     -0.04392660886638     -0.41993403756037
  H   2.85947385201670     -0.62066588638761     -0.19314740468689
  H   2.09334620411111      0.14629366228437     -1.41420019372830
