16
Coordinates from ORCA-job run
  C   -0.28058005460784      0.30015995263350     -0.17268771662606
  C   1.18597412875973     -0.15845673799393     -0.19698077908684
  Cl  -0.82346261477979      0.47472699260140     -1.89305910191635
  H   1.76735986497335      0.60571224133323     -0.72167489184882
  H   1.53532731323375     -0.16887904383411      0.84251427857449
  C   -1.19171603337015     -0.71412912775541      0.49469144925650
  H   -0.87134950636225     -0.86943495267157      1.53016425846145
  H   -1.16914541207894     -1.67145395269681     -0.02732010124509
  H   -2.22406291665398     -0.35975754056395      0.50081558266631
  C   -0.39044609160353      1.66653641096059      0.48191657144885
  H   -0.08223953461474      1.59819893020575      1.52986355531954
  H   0.25098166172493      2.39177288938978     -0.02310817040481
  H   -1.41781054353593      2.03399051550160      0.44670898398635
  N   1.49420201015483     -1.44548477283838     -0.78828411916587
  H   1.14829105454251     -1.48483316098174     -1.73871384470773
  H   1.06867667421803     -2.19866864328997     -0.26484595471194
