15

C	-0.374938	0.080515	-1.477871
C	0.0	0.0	0.0
Cl	0.214657	1.546061	-2.181195
H	1.097327	0.0	0.0
N	0.174923	-1.155148	-2.216166
O	-0.40169	-2.190549	-1.899466
O	1.086387	-1.012541	-3.00835
N	-1.884687	-0.010604	-1.731232
O	-2.620505	0.050419	-0.756116
O	-2.21385	-0.120629	-2.904245
C	-0.476896	-1.198651	0.682512
N	-0.858962	-2.127684	1.291664
C	-0.445541	1.194049	0.713895
N	-0.775853	2.156039	1.301492
Br	3.244356	0.0	0.0
