15

C	-0.509387	0.039802	-1.442917
C	0.0	0.0	0.0
Cl	-2.187201	0.504066	-1.577549
H	1.096118	0.0	0.0
N	0.309402	1.034708	-2.271882
O	0.479427	0.74338	-3.446926
O	0.652768	2.048615	-1.68811
N	-0.264653	-1.331508	-2.097145
O	0.879505	-1.734388	-1.949619
O	-1.183114	-1.868118	-2.69518
C	-0.490843	-1.218351	0.6416
N	-0.897911	-2.197395	1.147781
C	-0.447074	1.16394	0.763155
N	-0.823463	2.064396	1.416691
Br	3.267084	0.0	0.0
