15

C	-0.495389	-0.003642	-1.443858
C	0.0	0.0	0.0
Cl	-2.244529	-0.029115	-1.595093
H	1.090691	0.0	0.0
N	0.075228	1.233157	-2.203943
O	1.125555	1.672901	-1.767566
O	-0.575382	1.64839	-3.159847
N	0.010136	-1.334787	-2.128649
O	-0.473808	-1.555917	-3.21828
O	1.261652	-1.481016	-1.936251
C	-0.464574	-1.20079	0.673252
N	-0.825577	-2.168565	1.223882
C	-0.464087	1.206662	0.664274
N	-0.815464	2.186643	1.19449
Br	3.255155	0.0	0.0
