12

C	0.0	0.0	0.0
C	-0.480421	-0.340491	-1.404536
F	1.380669	0.0	0.0
H	-0.202373	0.488126	-2.061521
H	-0.29656	-0.797476	0.693458
H	-1.573238	-0.425384	-1.376455
N	-0.486623	1.299979	0.34856
H	-0.313015	1.454765	1.335995
H	-1.503334	1.254154	0.240031
C	0.117926	-1.574631	-1.902512
N	0.598539	-2.564236	-2.311904
Cl	-3.572722	0.0	0.0
