12

C	0.0	0.0	0.0
C	-0.528761	0.230013	-1.403697
F	1.410745	0.0	0.0
H	-0.313597	1.257594	-1.714504
H	-0.315217	-0.97816	0.36444
H	-1.621779	0.112534	-1.334986
N	-0.488224	1.003939	0.859618
H	-0.363814	0.778712	1.833728
H	-0.090255	1.905863	0.642308
C	0.059407	-0.684647	-2.377513
N	0.546151	-1.407773	-3.162949
Cl	-3.81874	0.0	0.0
