12

C	0.0	0.0	0.0
C	-0.479178	-0.34293	-1.40439
F	1.3805	0.0	0.0
H	-0.196285	0.483794	-2.062213
H	-0.296323	-0.796619	0.694852
H	-1.572369	-0.424194	-1.378743
N	-0.486706	1.300617	0.345502
H	-0.31163	1.457636	1.332639
H	-1.503432	1.253389	0.23881
C	0.1163	-1.579822	-1.89923
N	0.59395	-2.572178	-2.304925
Cl	-3.56946	0.0	0.0
