12

C	0.0	0.0	0.0
C	-0.455959	-0.444437	-1.389912
F	1.394816	0.0	0.0
H	-0.186643	0.330962	-2.115062
H	-0.328299	-0.72966	0.741338
H	-1.549376	-0.520505	-1.352894
N	-0.47926	1.283102	0.400085
H	-0.413704	1.928902	-0.380332
H	-1.474775	1.168178	0.598698
C	0.143819	-1.705965	-1.811876
N	0.627624	-2.717926	-2.158932
Cl	-3.565741	0.0	0.0
