12

C	0.0	0.0	0.0
C	-0.444111	-0.378269	-1.415289
F	1.394572	0.0	0.0
H	-1.538672	-0.44159	-1.395837
H	-0.331723	-0.766488	0.702887
H	-0.14814	0.42077	-2.103266
N	-0.481842	1.262942	0.451719
H	-1.483438	1.145255	0.619357
H	-0.385065	1.945957	-0.29234
C	0.140338	-1.633222	-1.880136
N	0.608976	-2.640536	-2.25966
Cl	-3.5476	0.0	0.0
