14

C	-0.553619	-0.064148	-1.42877
C	0.0	0.0	0.0
Br	0.255644	-1.4872	-2.445318
H	1.09368	0.0	0.0
H	-1.630044	-0.234508	-1.4314
N	-0.373173	1.239246	-2.158981
O	-1.414649	1.800276	-2.50321
O	0.765076	1.648638	-2.326567
N	-0.382523	-1.158432	0.794221
H	-1.268871	-1.551277	0.504585
H	0.343661	-1.856031	0.703524
C	-0.524263	1.223807	0.621701
N	-0.976982	2.197597	1.098468
Cl	3.261794	0.0	0.0
