14

C	-0.498495	0.032635	-1.442163
C	0.0	0.0	0.0
Br	-2.419242	0.285011	-1.566044
H	1.094448	0.0	0.0
H	-0.02504	0.835807	-2.003305
N	-0.106214	-1.248049	-2.139982
O	-0.880031	-2.194678	-2.13962
O	1.015334	-1.215666	-2.637836
N	-0.424328	-1.205376	0.682758
H	-1.330513	-1.100055	1.119114
H	0.268866	-1.439674	1.381324
C	-0.410731	1.245977	0.669369
N	-0.750084	2.206519	1.255875
Cl	3.239032	0.0	0.0
