14

C	-0.352578	-0.202568	-1.479826
C	0.0	0.0	0.0
Br	-2.266075	-0.411097	-1.792179
H	1.091539	0.0	0.0
H	-0.024218	0.641334	-2.083028
N	0.323903	-1.408498	-2.069825
O	0.873443	-1.240373	-3.153036
O	0.255507	-2.463538	-1.449521
N	-0.45836	-0.972123	0.963643
H	0.15237	-1.775923	0.914542
H	-1.405641	-1.268291	0.757372
C	-0.474353	1.340184	0.362282
N	-0.882596	2.408664	0.628522
Cl	3.22134	0.0	0.0
