14

C	-0.318754	0.001	-1.494604
C	0.0	0.0	0.0
Br	-0.062362	1.710592	-2.350511
H	1.096882	0.0	0.0
H	0.326797	-0.713784	-2.002539
N	-1.727246	-0.444398	-1.783525
O	-2.617515	-0.029938	-1.045989
O	-1.882118	-1.211117	-2.733258
N	-0.382362	-1.233401	0.661517
H	0.303911	-1.952299	0.474355
H	-1.317455	-1.541017	0.434215
C	-0.537916	1.157798	0.713677
N	-0.9542	2.079289	1.310088
Cl	3.231241	0.0	0.0
