15

C	0.0	0.0	0.0
C	-0.556167	0.523055	-1.365484
Cl	1.783497	0.0	0.0
H	-1.326908	1.246642	-1.089376
H	-0.344483	-1.020062	0.140264
C	-0.42823	0.826388	1.127903
N	-0.614203	1.492332	2.077009
N	-1.177062	-0.640654	-2.002557
H	-2.002242	-0.721047	-1.37135
H	-1.529521	-0.335409	-2.906728
C	0.460831	1.171214	-2.29243
H	1.177917	0.437735	-2.665204
H	1.003155	1.989376	-1.814118
H	-0.083054	1.584501	-3.149093
F	-2.658382	0.0	0.0
