15

C	0.0	0.0	0.0
C	-0.579048	0.420345	-1.385699
Cl	1.783688	0.0	0.0
H	-1.401716	1.091098	-1.129231
H	-0.350592	-0.999486	0.237885
C	-0.416457	0.940475	1.043711
N	-0.600885	1.734797	1.889062
N	-1.134111	-0.806436	-1.964297
H	-1.482951	-0.571689	-2.890069
H	-1.966448	-0.881071	-1.348882
C	0.388539	1.122709	-2.321779
H	1.196229	0.468143	-2.654973
H	0.819606	2.011977	-1.852315
H	-0.175689	1.45444	-3.200609
F	-2.671248	0.0	0.0
