15

C	0.0	0.0	0.0
C	-0.440554	-0.007447	-1.502704
Cl	1.788418	0.0	0.0
H	0.472498	0.117286	-2.094288
H	-0.345799	-0.892779	0.514566
C	-0.433887	1.174531	0.756591
N	-0.614347	2.107563	1.445952
N	-1.300839	1.134773	-1.777593
H	-2.129878	0.922512	-1.179374
H	-1.571939	1.085916	-2.755274
C	-1.056481	-1.37247	-1.818409
H	-1.957302	-1.436236	-1.203707
H	-0.357858	-2.19237	-1.602316
H	-1.317354	-1.424201	-2.881777
F	-2.717077	0.0	0.0
