13
Coordinates from ORCA-job run
  C   0.67748313115164      0.26058318918496     -0.48742697459451
  C   -0.37622988054916     -0.25523054990343      0.47987600821928
  H   0.58324982101617      1.32974962109217     -0.67193867976276
  H   -0.25932285903785      0.26401587252922      1.43627212683555
  H   0.65645199864069     -0.29259537801164     -1.42800514149704
  H   -0.19414312647697     -1.31740949750896      0.65823051839116
  N   2.03812216924628      0.05150207299973      0.08761447265524
  O   2.41439414176998     -1.11344016388382      0.19750840295948
  O   2.67078224423321      1.04493195998909      0.44003463896107
  C   -1.78073111216327     -0.03463489306998     -0.07269277224536
  H   -1.97674933445864      1.02646645157024     -0.24510784467748
  H   -1.91921918711358     -0.56232876255927     -1.01966208518313
  H   -2.53408800625849     -0.40260992242830      0.62629732993851
