13
Coordinates from ORCA-job run
  C   0.86083239999317     -0.57441745681401     -0.40377886470693
  C   -0.57161240379070     -0.16496441317652     -0.70852297469477
  H   1.44514777242213     -0.71206599194149     -1.31482212974536
  H   -0.55120549456814      0.70547827087828     -1.36862737616483
  H   0.91610950649837     -1.46287034860069      0.22393030975170
  H   -1.03457076602339     -0.98453003342139     -1.26723015593351
  N   1.53026190323307      0.51817380308311      0.36141782524894
  O   1.84156614631038      0.29442503022364      1.52956261995868
  O   1.68564308551961      1.58488248244250     -0.22889535649553
  C   -1.37401838372315      0.13889857253277      0.55231107648884
  H   -2.41481444412558      0.35454361302713      0.30351458642102
  H   -0.97377410286104      1.00887291025534      1.07719446789737
  H   -1.35956521888474     -0.70642643848866      1.24494597197438
