17

C	0.0	0.0	0.0
C	-0.246218	-0.053162	-1.554839
Cl	1.763032	0.0	0.0
H	0.363762	0.760267	-1.940013
N	-0.631734	1.248316	0.511309
O	-0.620195	2.215414	-0.294715
O	-0.654572	1.381006	1.752298
C	-0.480477	-1.113294	0.803965
N	-0.614811	-2.053816	1.504186
C	-1.623847	0.03346	-2.184811
H	-2.103953	0.954658	-1.863164
H	-2.245758	-0.821009	-1.929999
H	-1.472389	0.069513	-3.273896
N	0.382597	-1.296676	-2.118124
O	1.202494	-1.151165	-3.025794
O	-0.018026	-2.380528	-1.697944
H	-1.977052	0.0	0.0
