13

C	-0.463122	0.013335	-1.44832
C	0.0	0.0	0.0
Cl	-0.017641	-1.531915	-2.260551
H	1.092636	0.0	0.0
H	0.130201	0.776505	-1.957096
H	-0.292704	0.962792	0.442296
C	-1.949792	0.243835	-1.648914
H	-2.232996	1.200603	-1.198465
H	-2.521755	-0.55072	-1.164796
H	-2.212265	0.264754	-2.709693
C	-0.614843	-1.057113	0.777369
N	-1.125407	-1.90612	1.411453
F	2.573886	0.0	0.0
