15
Coordinates from ORCA-job run
  C   0.52049257220351      0.13304761321412     -0.57225124782215
  C   -0.91531592659803     -0.04906745369798     -0.02122111056687
  Br  0.39242190979338      0.62943714988596     -2.46415789398127
  H   -1.35827607731731     -0.87984839529247     -0.58050406121829
  C   1.16396465702354      1.23028076865846      0.14478597286539
  N   1.66503514419541      2.08208909598519      0.78182734459497
  C   1.32932863777395     -1.15282026747363     -0.44784906662325
  H   1.38728404147337     -1.43782564718079      0.60240379406773
  H   2.33212718000985     -1.00630795277121     -0.85003216487945
  H   0.83658393355891     -1.94749848808397     -1.01201685135859
  C   -1.73751278166656      1.15349731205122     -0.25652457700666
  N   -2.42341028224019      2.10350402051161     -0.34566953053041
  N   -0.83204134828802     -0.42585061186243      1.38134583256650
  H   -1.71192981357733     -0.82466971680138      1.68586660360652
  H   -0.64775184634449      0.39203257285730      1.95299695628581
