15
Coordinates from ORCA-job run
  C   0.49575351524836     -0.12018221929011     -0.48282154134439
  C   -0.72698863720044      0.32855206170751      0.34726183269745
  Br  -0.00673814367286     -1.69101993348925     -1.55298706980276
  H   -0.39677636689786      1.21975084264464      0.89609298237725
  C   0.84526609466663      0.95492522617082     -1.40713175852513
  N   1.19624476162044      1.82990009284720     -2.10885767131892
  C   1.68780205457885     -0.48556639774446      0.39435406970244
  H   1.96834000200746      0.37948062368910      1.00294937654466
  H   2.53893952495039     -0.76682563682366     -0.22598546689146
  H   1.43499261570858     -1.32109191458832      1.04846677945126
  C   -1.06176758056423     -0.70450562981384      1.34867498843938
  N   -1.37223198592565     -1.50074196501583      2.15536962654035
  N   -1.82171360725849      0.72405537912316     -0.51155567154468
  H   -2.51457959005613      1.24182101085343      0.01438369658671
  H   -2.26754265720506     -0.08955154027039     -0.91821417291217
