15
Coordinates from ORCA-job run
  C   0.50646039466415      0.11852194346892     -0.60933723251540
  C   -0.90942948767495      0.32302262249650     -0.00261880038470
  Br  0.25486483851596     -0.60092885609740     -2.42590996145212
  H   -1.43336767917729      1.04732819301411     -0.64388254072947
  C   1.15187357663610      1.41939816251112     -0.75666545261562
  N   1.67034027800132      2.47143146910478     -0.84010798539895
  C   1.36269101937829     -0.84322643588488      0.20120485130767
  H   1.53777414813104     -0.42010172318834      1.19407502382443
  H   0.83841098004242     -1.79203497743129      0.30178058100078
  H   2.32348468307222     -0.99733133266275     -0.29045287201741
  C   -0.75489206330107      0.93446054530796      1.32347794797312
  N   -0.64489089518687      1.41399770208731      2.38974116859858
  N   -1.58851409098808     -0.95632474965701      0.13909057866986
  H   -2.36739109349033     -0.86806426824094      0.78007585112822
  H   -1.94741460862292     -1.24914829482810     -0.76147115738899
