15
Coordinates from ORCA-job run
  C   0.52286731471590     -0.11570417942184     -0.45481572806959
  C   -0.75373510442174      0.31102534146683      0.30241037062121
  Br  0.13358142415056     -1.74166384042361     -1.48917986129652
  H   -0.48465025807155      1.23354410922106      0.83261506923576
  C   0.87235976029562      0.94071005524073     -1.40040907503001
  N   1.21713810301226      1.80865524982161     -2.11389253956668
  C   1.68602833279550     -0.40151430455205      0.48829976569250
  H   1.43540400845322     -1.22311792817187      1.16051681176899
  H   2.57552120098980     -0.66972672653060     -0.08185313142864
  H   1.90386758214139      0.49505653387109      1.07647206587142
  C   -1.09448207606469     -0.70001044740211      1.32435372646402
  N   -1.41803508341569     -1.48742709497620      2.13454488826621
  N   -1.82243350326281      0.63115209654422     -0.61846886274977
  H   -2.56104955586271      1.13326732760980     -0.14169530066504
  H   -2.21338214545506     -0.21424619229706     -1.01689819911384
