15
Coordinates from ORCA-job run
  C   0.52530724617085      0.13427241187617     -0.56790182200105
  C   -0.91041506418155     -0.09721339370997     -0.03544813195378
  Br  0.41229980503838      0.53939893763895     -2.48207092033910
  H   -1.29790584710921     -0.97527889455530     -0.56274476941538
  C   1.09770385193520      1.29341244028544      0.11102400823047
  N   1.54078031417861      2.19742727395516      0.71860780266326
  C   1.39516607526289     -1.10178250447142     -0.37031533274762
  H   0.95767386003487     -1.94348985933445     -0.91139824799114
  H   1.44146593355026     -1.33919446230190      0.69234355043647
  H   2.39892639735913     -0.92010608461670     -0.75544367395473
  C   -1.78939087279373      1.04743258974191     -0.34300138746442
  N   -2.52269340325873      1.95401969763701     -0.48992321724577
  N   -0.83712081442607     -0.40306471297821      1.38460756369253
  H   -1.69910914475008     -0.83743519062230      1.69149054740859
  H   -0.71168833701082      0.44960175145562      1.92017403068167
