15
Coordinates from ORCA-job run
  C   0.52668499169298     -0.21886347203884     -0.42993725223460
  C   -0.77874234159247      0.21090531172112      0.29012956756698
  Br  0.29952578346390     -1.98639014462879     -1.22805832655302
  H   -0.53280307116004      1.17330158324388      0.77151923148050
  C   0.75068852710470      0.73848580715503     -1.51082519703326
  N   0.90945395786786      1.56247574760766     -2.33440055733592
  C   1.71563477270189     -0.24627960721189      0.52499908247317
  H   2.62476083447631     -0.51368862560823     -0.01348561738834
  H   1.85137334471331      0.74079801137763      0.97654866054305
  H   1.54312544009020     -0.98377970179879      1.31041288227886
  C   -1.08492600441370     -0.73512810126691      1.36686771377465
  N   -1.33896225609955     -1.46256685660328      2.25277556752697
  N   -1.88955757959615      0.28850287518037     -0.64054923987243
  H   -1.82167609202710      1.13677991880028     -1.19050980927758
  H   -2.77258030722212      0.29544725407076     -0.14648670594903
