15
Coordinates from ORCA-job run
  C   0.44903253513113     -0.21792941714613     -0.40300139705989
  C   -0.77642073038883      0.35918048852906      0.37643265952699
  Br  -0.03304188019858     -1.96903756359255     -1.14462814445133
  H   -0.43699726758786      1.32970778722468      0.76333546543093
  C   0.70566208432113      0.67927174292839     -1.52558192200543
  N   0.90871511329389      1.45237702895645     -2.38800430039088
  C   1.68347164922158     -0.36522607268799      0.47769648978690
  H   1.48221639549855     -1.06923202949118      1.28627257828246
  H   1.94414885733454      0.60851001635934      0.90347806517712
  H   2.52852208553383     -0.72959580122801     -0.10700808475837
  C   -1.05276975478303     -0.49729107726602      1.53745875199367
  N   -1.25341275329568     -1.17507214847625      2.47466082415522
  N   -1.98967951355398      0.58716239125140     -0.36801851234859
  H   -1.83974675412228      1.27890292637693     -1.09251543884058
  H   -2.32170006640445     -0.27172827173814     -0.78957703449829
