15
Coordinates from ORCA-job run
  C   0.43173058957111      0.17533872054014     -0.57019660252179
  C   -1.00385635444594      0.07149511595860      0.03491934672711
  Br  0.27527199573228      0.80853820466814     -2.41889017569306
  H   -1.55566236954567     -0.62685408387477     -0.60517766158257
  C   1.20230861712400      1.15165648087917      0.19262413233702
  N   1.81199901131168      1.89469082691952      0.87028118620220
  C   1.13491874032271     -1.17838238214976     -0.58038794505499
  H   2.10633398727722     -1.09526887617959     -1.06788003882155
  H   0.52965517143732     -1.90444452519523     -1.12796597791003
  H   1.29569632126935     -1.52757854197205      0.44178640095251
  C   -1.67458265732713      1.37751186864176     -0.03278789312239
  N   -2.19742327017489      2.42844398807013     -0.04601944511875
  N   -1.06395132994109     -0.40726532556117      1.39688511188901
  H   -0.73969229085009     -1.36052274841140      1.47885136403607
  H   -0.55374616176089      0.19364127766652      2.03295819768120
