15
Coordinates from ORCA-job run
  C   0.53369742354200      0.10964692243871     -0.56508653196004
  C   -0.91572234514251     -0.02852465001523     -0.03740239899209
  Br  0.45216593948098      0.57078438238071     -2.46818119477928
  H   -1.36683579637033     -0.86113662226174     -0.58730432490019
  C   1.19036233137587      1.20514889013250      0.14258038200398
  N   1.70109998977921      2.05651410623247      0.77255122297744
  C   1.30978028379868     -1.19187725134419     -0.39998172753262
  H   1.33914550757241     -1.45806946004777      0.65641586979967
  H   0.81084736963492     -1.98550409660541     -0.96014386246846
  H   2.32395281650556     -1.07555830948824     -0.78304518655664
  C   -1.70660105071927      1.18633989160689     -0.31354441376655
  N   -2.37039733344875      2.14862307758564     -0.43432823898485
  N   -0.86666587902487     -0.37645354422006      1.37391781701670
  H   -1.76000712789243     -0.75014857826797      1.67092265943326
  H   -0.67482212909147      0.44921524187371      1.93162992870966
