15
Coordinates from ORCA-job run
  C   0.48570814198446     -0.20737827420577     -0.36559747780298
  C   -0.81472088493705      0.33039440260046      0.31502460765186
  Br  0.14603879131965     -2.01113468012795     -1.05760180737092
  H   -0.55261909176748      1.33410480026999      0.67651680657459
  C   0.75902931319707      0.65769242543684     -1.50925990945218
  N   0.95011410028727      1.40705906496439     -2.39528723543153
  C   1.67027459329178     -0.24848809129095      0.59162574522069
  H   1.85022896099521      0.75456700429622      0.99028274575248
  H   1.45956589450116     -0.93076890816230      1.41622957076263
  H   2.56835660239559     -0.58602525831116      0.07363972264828
  C   -1.11271780983557     -0.49247273757432      1.49476106093465
  N   -1.33062470249905     -1.15374365510084      2.44004854383368
  N   -1.99172211344083      0.45717446066913     -0.50738393762574
  H   -2.25002938608147     -0.43596962150638     -0.90890642835795
  H   -1.83688240941078      1.12598906804262     -1.25209200733764
