15
Coordinates from ORCA-job run
  C   0.48679926594390     -0.12245157904327     -0.49165111864145
  C   -0.71597408194829      0.33583825192390      0.36142380972639
  Br  -0.05315274865513     -1.67864569036308     -1.56506383389354
  H   -0.36535047513241      1.21837106232748      0.91163728872124
  C   0.83586593152768      0.95486733743246     -1.41356187468079
  N   1.18837649656467      1.83166909674417     -2.11215906801898
  C   1.68783624726850     -0.51003653991282      0.36361234048293
  H   1.43421056253571     -1.34723782407410      1.01527235138418
  H   2.52533389028560     -0.79770048761709     -0.27214272047228
  H   1.98908741996362      0.34673696147353      0.97398517039049
  C   -1.04909426062205     -0.70025453984549      1.36050959200759
  N   -1.36655345555056     -1.50132769002190      2.15955776028273
  N   -1.81948964957020      0.75204856577347     -0.47625308088340
  H   -2.28028685943236     -0.05307515459339     -0.88326028567604
  H   -2.49860828317872      1.27119822979617      0.06609366927098
