15
Coordinates from ORCA-job run
  C   0.59644401159736      0.17730943443945     -0.47829855386092
  C   -0.90603732464857      0.01761245917437     -0.13868700573354
  Br  0.74060517059129      0.94489796878385     -2.27585949878962
  H   -1.31332387403539     -0.69377452003090     -0.86472664159868
  C   1.19632387060575      1.11406133946947      0.46769390244382
  N   1.65429418100901      1.83019610325122      1.28015705641285
  C   1.31665903965845     -1.16580910674092     -0.45041879637606
  H   0.86453023531866     -1.83540031297807     -1.18514668265991
  H   2.37006562595409     -1.03229915113161     -0.69802402694925
  H   1.22029267473514     -1.60160361186230      0.54381097410738
  C   -1.63065276107502      1.29399488157744     -0.29173706135632
  N   -2.25338622275477      2.29009977587720     -0.32337413548145
  N   -1.02459072099296     -0.55725856764388      1.19176781651740
  H   -1.95315822421382     -0.93914194848656      1.32464748136013
  H   -0.87806568174922      0.15711525630121      1.89719517196425
