15
Coordinates from ORCA-job run
  C   0.54089438571707     -0.09939562614817     -0.43729558919382
  C   -0.78235552725890      0.26781785966908      0.26939611459285
  Br  0.30189867482397     -1.80499980995302     -1.38546023915034
  H   -0.59754257649143      1.23646130567311      0.75113088640713
  C   0.83122582070524      0.92732316915002     -1.43422758467981
  N   1.12510242685239      1.77847237437819     -2.18944362100273
  C   1.69967312190718     -0.24182672675293      0.54305932674937
  H   1.83274071115409      0.69923237433038      1.08535981707955
  H   2.62085317253610     -0.46883586690752      0.00617626550935
  H   1.49763816309455     -1.04379491746186      1.25431587345905
  C   -1.06837761193918     -0.70852844172019      1.34057468870432
  N   -1.34884653454113     -1.47366924296350      2.18732112063884
  N   -1.85028924458445      0.45202342944552     -0.68875161256555
  H   -2.16708835815233     -0.44201687008159     -1.04447080616998
  H   -2.63552662382322      0.92273698934250     -0.25668464037823
