15
Coordinates from ORCA-job run
  C   0.54921607920770     -0.19739883202482     -0.41216839941292
  C   -0.79689903440112      0.16785844986754      0.26755310794988
  Br  0.45743257598296     -2.00328326973235     -1.14971522542869
  H   -0.62634674907336      1.16137719187546      0.71725098020815
  C   0.73018702318887      0.73415986991272     -1.52312672031217
  N   0.84738445580055      1.53776090200541     -2.37334865175752
  C   1.71728142540858     -0.11110484527672      0.56462467127930
  H   2.65339856480597     -0.33312579600542      0.05238361822704
  H   1.77624787175775      0.89739611388060      0.98435673965042
  H   1.57939640274166     -0.83233048000712      1.37171983425607
  C   -1.06033514961177     -0.75756368013168      1.37323540312549
  N   -1.28215552461116     -1.46648212006558      2.28238189618357
  N   -1.89082741911663      0.13647621592909     -0.68540187103272
  H   -1.87160277228451      0.96938378996164     -1.26218006190947
  H   -2.78237774979550      0.09587648981122     -0.20856532102640
