15
Coordinates from ORCA-job run
  C   0.58122960026412      0.12093248757735     -0.51365808727091
  C   -0.90686908071076     -0.05903044189901     -0.12373320594498
  Br  0.66674927180305      0.55884456734884     -2.42207583980979
  H   -1.27688986606292     -0.91269904499856     -0.70119745580551
  C   1.13197890805239      1.24528347196186      0.23772295503809
  N   1.55624435943765      2.11964917480278      0.89968570085268
  C   1.37863906725380     -1.15267289818928     -0.25781252250124
  H   2.42125166655494     -1.00666285761697     -0.54141914453064
  H   1.31229584421021     -1.40788652328788      0.79962129407990
  H   0.96251983925081     -1.96706063432028     -0.85464033938620
  C   -1.70578478712077      1.12595732137537     -0.49054845493712
  N   -2.38305407972088      2.06692069720278     -0.68315891673832
  N   -0.98117986143130     -0.38867888530576      1.29098328614817
  H   -1.88465918529653     -0.79239141956547      1.50672804133736
  H   -0.87347169648381      0.44949498491423      1.85250268946846
