15
Coordinates from ORCA-job run
  C   0.60962288042851      0.14964092162755     -0.47016427072123
  C   -0.90296146901510      0.01356868417083     -0.16587796566325
  Br  0.80933362805128      0.82680326307233     -2.29854622996515
  H   -1.29347164241389     -0.73102789783650     -0.86742608216634
  C   1.18751126921538      1.12929917765755      0.44544790351339
  N   1.62104248681764      1.88567427117415      1.23451769915608
  C   1.32029924469914     -1.19396496875821     -0.35585735983634
  H   1.19365690471208     -1.57959491739629      0.65554815295349
  H   2.38098697107885     -1.07805204196935     -0.58018854457444
  H   0.88456903990654     -1.89682767020907     -1.06909542614283
  C   -1.61335980462246      1.28555520212752     -0.39995475539210
  N   -2.20777066465635      2.29553807543885     -0.48787089576447
  N   -1.06200335905852     -0.49489467518848      1.18747454178750
  H   -0.93347617189826      0.25370014820104      1.86020976126129
  H   -1.99597931324490     -0.86641757211191      1.31178347155442
