15
Coordinates from ORCA-job run
  C   0.46815982905772     -0.20038113238753     -0.39023842333370
  C   -0.80456085990807      0.31867823827779      0.35381208369488
  Br  0.10858097499575     -1.99660258604234     -1.09241650764628
  H   -0.53310639755567      1.31791718950975      0.72075168604535
  C   0.68715470003855      0.68212047498254     -1.53228609690595
  N   0.84696678794733      1.44288801968589     -2.41455443441234
  C   1.69387715410211     -0.24759882732353      0.51335473485801
  H   1.88564946862776      0.75096941840756      0.91772111094406
  H   2.57006902388007     -0.57244274251952     -0.04836041734005
  H   1.52318486280252     -0.94232844305103      1.33679272393582
  C   -1.04652721122519     -0.52306566105435      1.53315464777713
  N   -1.20304534826768     -1.17840040541003      2.49444705685703
  N   -2.01598029748280      0.45158334807909     -0.41627895148938
  H   -1.89596796646630      1.13243546064101     -1.15649638511740
  H   -2.28645472054607     -0.43677235179533     -0.82040282786713
