15
Coordinates from ORCA-job run
  C   0.57729099631046      0.09318302148395     -0.52196950435075
  C   -0.90775325399226     -0.07606185641546     -0.11714687026854
  Br  0.65352858625609      0.40580759327985     -2.45560014094854
  H   -1.27098260754176     -0.96776557109746     -0.63877332297457
  C   1.11889255408870      1.26954216351038      0.15265921867432
  N   1.53845660569662      2.18746817183852      0.75601988796739
  C   1.38862086577802     -1.15259292494046     -0.18595418744913
  H   0.97524559611319     -2.00994616117229     -0.72137399227188
  H   2.42728718642389     -1.01672287869961     -0.48836534155579
  H   1.33381317890737     -1.33585136288254      0.88697915843572
  C   -1.71781588147673      1.07681086606489     -0.55490225152505
  N   -2.39241282762747      2.00572694392859     -0.80633178477995
  N   -0.97542107238855     -0.31760879724661      1.31566413501460
  H   -1.87434404691854     -0.71599383710100      1.55871647268281
  H   -0.87440587962908      0.55500462944926      1.82337852334938
