15
Coordinates from ORCA-job run
  C   0.50713565956052     -0.10809766341397     -0.47424429395031
  C   -0.74887793926710      0.29646972219101      0.32833388641431
  Br  0.11707187201354     -1.75398420401554     -1.47644806337906
  H   -0.48200260771945      1.23157177755621      0.83712469735521
  C   0.79369586564674      0.94549151158465     -1.44380915470322
  N   1.09028604013539      1.81258551287847     -2.17951553193679
  C   1.71290502553184     -0.35603339895523      0.42509822396973
  H   2.58639191097852     -0.60617870078539     -0.17724867124763
  H   1.92997437711292      0.55065174776504      0.99801834126966
  H   1.50966937748256     -1.17818917082199      1.11257256526541
  C   -1.02331367075852     -0.71025478388162      1.37411850666214
  N   -1.29441570954095     -1.49675774961787      2.20414010874072
  N   -1.86062235962405      0.57911224768722     -0.55270553803759
  H   -2.24893909998823     -0.28015459601098     -0.92280123731452
  H   -2.58995874156377      1.07376774784000     -0.05463383910807
