15
Coordinates from ORCA-job run
  C   0.45955113440798      0.12224695754964     -0.60480215857332
  C   -0.96187219625174      0.43027743638474     -0.01712018068065
  Br  0.19339172760886     -0.58575358105232     -2.42063624540458
  H   -1.42504626764410      1.16589555705825     -0.68361560499701
  C   1.20082895252497      1.37134496252912     -0.73690308452517
  N   1.78785162494047      2.38799151814056     -0.80868446856587
  C   1.23787915730427     -0.89427342315986      0.21857524696002
  H   0.69301397431393     -1.83832822144928      0.26323045906683
  H   2.21173916801871     -1.08152576814866     -0.23411044708619
  H   1.38789495807154     -0.50811328223058      1.23062519610155
  C   -0.76612166331432      1.06388569046873      1.29498048719427
  N   -0.57508783267863      1.53545385000892      2.35336320299123
  N   -1.87002426206531     -0.68047850156322      0.12733686344679
  H   -1.52777574048639     -1.36706152894163      0.78651773169560
  H   -2.04522273475023     -1.12056166559443     -0.76675699762348
