15
Coordinates from ORCA-job run
  C   0.60392849009297      0.14816276108142     -0.47734618654857
  C   -0.90564657181775      0.05856541111448     -0.14342533605629
  Br  0.79025809325455      0.90123871561953     -2.27723564467809
  H   -1.34227539116588     -0.63578927404837     -0.86891731876569
  C   1.24309823234365      1.05964889070778      0.46752844227548
  N   1.74160635758142      1.74902977212161      1.27925217873653
  C   1.26184421539663     -1.22636100511897     -0.44138622239434
  H   0.78179075649005     -1.87759423271311     -1.17490267159699
  H   1.14250222478692     -1.65301497682208      0.55429929160138
  H   2.32102196946073     -1.14218021119879     -0.68603535181308
  C   -1.56878847571073      1.36728948822197     -0.30183940216443
  N   -2.13287848643283      2.39785418818046     -0.33151976305217
  N   -1.05562137865145     -0.50627466992735      1.18843687585538
  H   -2.00154940337410     -0.84419205967199      1.31823439184627
  H   -0.88029063225414      0.20361720245348      1.89185671675460
