15
Coordinates from ORCA-job run
  C   0.52753926635552      0.13890808727833     -0.49578094313370
  C   -0.98450411603688      0.17218067192041     -0.10879895949663
  Br  0.70958655663292      0.81082734386333     -2.32831405141699
  H   -1.50099377190380     -0.46159156682770     -0.83925040099445
  C   1.26860152791299      1.02047471532312      0.40011010635409
  N   1.83863591809126      1.68550196987109      1.18478956558973
  C   1.08759621830214     -1.27918026517087     -0.44248015303526
  H   0.50016361146634     -1.93262067227501     -1.09152255150544
  H   1.06183675235729     -1.65637548105450      0.58202924447215
  H   2.12324614013961     -1.28905064536323     -0.78235155921547
  C   -1.51139725590350      1.53769549061892     -0.24223637981041
  N   -1.93144456663286      2.63180918455647     -0.31051036860518
  N   -1.29016093351765     -0.31237451076513      1.21773692161840
  H   -0.82230952204528      0.22773894200107      1.93562305001275
  H   -1.07539582521808     -1.29394326397626      1.32195647916643
