15
Coordinates from ORCA-job run
  C   0.46435171373399      0.12635992690147     -0.60376018711378
  C   -0.95684031047479      0.43706885954050     -0.01626154929978
  Br  0.19857123851098     -0.56418053605250     -2.42618714840246
  H   -1.41298954795399      1.18290487673376     -0.67622152369915
  C   1.20881210136554      1.37479660730399     -0.72336636405343
  N   1.77290367720012      2.40489578596163     -0.78849026914504
  C   1.23576118954003     -0.90124694743018      0.21209123117519
  H   2.20777250928473     -1.09319627161768     -0.24252246536168
  H   1.38943444972270     -0.52297914670942      1.22637788842794
  H   0.68400106046774     -1.84139434486057      0.25131322919850
  C   -0.76062198101665      1.05154648674251      1.30498928047391
  N   -0.57357259752894      1.47588839920961      2.38392967530297
  N   -1.87262153337721     -0.66910461257002      0.11390259961525
  H   -1.53773741680301     -1.36389286968875      0.76825807434308
  H   -2.04722455267125     -1.09946621346440     -0.78505247146149
