15
Coordinates from ORCA-job run
  C   0.60697791540640      0.15911367797907     -0.46757732157529
  C   -0.90564754556265      0.02939823872612     -0.16193527920426
  Br  0.80703943837970      0.88754980364564     -2.27608327683611
  H   -1.30708232318608     -0.68892509226021     -0.88438845285393
  C   1.20116850637490      1.10411196101008      0.47376966843837
  N   1.67896367423894      1.81402128475152      1.28020452465486
  C   1.30480950033071     -1.19417384965149     -0.39515517834891
  H   1.17840670954012     -1.60764073250038      0.60519098504663
  H   2.36567082451427     -1.08197791717185     -0.62048786153809
  H   0.85914743533969     -1.87159804440230     -1.12666513957403
  C   -1.60324090423181      1.31541238127737     -0.35410607335934
  N   -2.18966640873425      2.33225123778574     -0.41039365396676
  N   -1.06560722808013     -0.51888944719290      1.17571425027871
  H   -0.92702781335811      0.20690514410681      1.87100866381810
  H   -2.00291178097172     -0.88455864610324      1.29190414502000
