15
Coordinates from ORCA-job run
  C   0.60737679092167      0.14409428809948     -0.47615978880219
  C   -0.90220090498094      0.08956864201889     -0.13442620749538
  Br  0.80555684139954      0.94681392043284     -2.25308223071060
  H   -1.36394226217172     -0.56929531804943     -0.87729947794504
  C   1.27794861851902      1.00712922149300      0.49214533686573
  N   1.78753021168240      1.66566961595803      1.32248778766199
  C   1.22352947510292     -1.25004613797217     -0.48715516299993
  H   0.71891105153507     -1.86381969930037     -1.23631209750916
  H   2.28305559269494     -1.19047350555063     -0.73746753594279
  H   1.09816412960364     -1.70336029838566      0.49593645705643
  C   -1.52808430559428      1.42089002658278     -0.24985078042636
  N   -2.07191752924559      2.46262905764332     -0.25213323645278
  N   -1.06070632783447     -0.51042502096594      1.18093683635506
  H   -0.85968762883375      0.17237432256906      1.90404368493291
  H   -2.01553375279849     -0.82374911457319      1.30733641541214
