15
Coordinates from ORCA-job run
  C   0.47651766830300      0.11349237735219     -0.59435727446788
  C   -0.95528448312065      0.44531914671874     -0.04622582996571
  Br  0.24803903365196     -0.60417248089534     -2.41140789726281
  H   -1.38990029118654      1.18346941061363     -0.72897686718479
  C   1.23825586421516      1.35133458286132     -0.71570980663538
  N   1.84820092884643      2.35496874577441     -0.77919042539413
  C   1.21947491778322     -0.90705157271910      0.25618291853829
  H   0.65883967657991     -1.84185900822267      0.29704114442489
  H   2.20043714874868     -1.11398621578361     -0.17181480150859
  H   1.35207404874945     -0.51347985011472      1.26762138879480
  C   -0.78508436416753      1.08152181039047      1.26830649947413
  N   -0.61805580805535      1.53265672868446      2.33958845766529
  N   -1.88323782984680     -0.65123613090693      0.08072182463201
  H   -2.03992850500020     -1.09535027670825     -0.81485209086054
  H   -1.56934800550074     -1.33762726704463      0.75407275975046
