15
Coordinates from ORCA-job run
  C   0.52202133001938      0.17886545206148     -0.48481400376669
  C   -0.98883762904485      0.17514931549861     -0.09298195781443
  Br  0.69568444615829      0.98463704920324     -2.26350110875813
  H   -1.50589659414662     -0.40088118947262     -0.86937592085300
  C   1.26238669922155      0.99643271791479      0.47036397297324
  N   1.85099175409299      1.59921133404802      1.29078106031696
  C   1.09004502310400     -1.23604690490498     -0.53740212402009
  H   2.12478939917655     -1.21483983265340     -0.87941570203362
  H   0.50437389773405     -1.84268810279321     -1.23195016189256
  H   1.06917858364592     -1.68856994925127      0.45623043240417
  C   -1.51959268137069      1.54539856195257     -0.11627197765644
  N   -1.92446877771549      2.64715623773658     -0.10061982809052
  N   -1.28858745171031     -0.41353619785970      1.19230805106461
  H   -0.82037134292826      0.06950467024792      1.94947849496927
  H   -1.07171665623648     -1.39979316172804      1.21817077315723
