16

C	0.0	0.0	0.0
C	-0.438452	0.167559	-1.472926
F	1.361916	0.0	0.0
H	0.430836	-0.212746	-2.022623
H	-0.388967	0.73689	0.701398
N	-0.352873	-1.344899	0.578988
O	-0.766003	-1.373222	1.735201
O	-0.107121	-2.325133	-0.123741
C	-0.588908	1.662976	-1.730843
H	-0.692457	1.833248	-2.803356
H	-1.496114	2.020457	-1.237709
H	0.272351	2.227692	-1.359832
N	-1.60368	-0.524243	-1.960105
H	-1.478879	-1.522433	-1.853908
H	-2.440271	-0.266836	-1.42881
Cl	-4.082755	0.0	0.0
