16

C	0.0	0.0	0.0
C	-0.48039	0.110636	-1.465833
F	1.368679	0.0	0.0
H	0.407617	-0.192624	-2.033802
H	-0.380309	0.761297	0.680545
N	-0.35357	-1.323354	0.623233
O	-0.918233	-1.312892	1.712435
O	0.018102	-2.323987	0.011005
C	-0.800991	1.575251	-1.738411
H	-0.960268	1.716035	-2.808463
H	0.004094	2.237783	-1.405365
H	-1.725847	1.833833	-1.216987
N	-1.588253	-0.702115	-1.902579
H	-2.440169	-0.471678	-1.382463
H	-1.387353	-1.682341	-1.755439
Cl	-4.102958	0.0	0.0
