18

C	0.0	0.0	0.0
C	-0.517898	-0.189175	-1.430948
Br	1.974252	0.0	0.0
H	-1.614828	-0.166392	-1.31036
C	-0.468869	1.338475	0.541879
H	-0.120665	2.156637	-0.086769
H	-1.563723	1.323337	0.549122
H	-0.102953	1.476352	1.562278
C	-0.465088	-1.145056	0.883217
H	-0.092901	-2.108256	0.527042
H	-0.115702	-0.994355	1.907471
H	-1.560536	-1.145368	0.873707
C	-0.151537	-1.512566	-1.973382
N	0.125202	-2.537815	-2.478104
N	-0.127214	0.901902	-2.315202
H	-0.730795	0.900035	-3.128287
H	0.828492	0.765578	-2.62401
Br	-3.956529	0.0	0.0
