18

C	0.0	0.0	0.0
C	-0.517569	-0.183565	-1.431778
Br	1.974453	0.0	0.0
H	-1.614502	-0.161148	-1.311342
C	-0.468867	1.336375	0.546944
H	-0.120508	2.156916	-0.078479
H	-1.56371	1.321303	0.553978
H	-0.103087	1.470361	1.567902
C	-0.465194	-1.148472	0.878608
H	-1.560617	-1.148654	0.869017
H	-0.093095	-2.110298	0.518598
H	-0.115772	-1.002	1.903469
C	-0.151195	-1.504836	-1.979388
N	0.125439	-2.527656	-2.489084
N	-0.12654	0.9109	-2.311709
H	-0.729577	0.91188	-3.12523
H	0.829412	0.775832	-2.620424
Br	-3.956299	0.0	0.0
