18

C	0.0	0.0	0.0
C	-0.336575	-0.021371	-1.534788
Br	1.969327	0.0	0.0
H	0.313221	-0.790137	-1.971462
C	-0.537326	1.230468	0.701099
H	-0.287044	1.202076	1.764263
H	-1.629823	1.222018	0.607523
H	-0.138255	2.148995	0.268117
C	-0.502783	-1.275998	0.650129
H	-1.59766	-1.253148	0.653443
H	-0.15159	-1.341	1.682454
H	-0.153801	-2.160441	0.109318
C	0.06887	1.256909	-2.152402
N	0.377658	2.265495	-2.668674
N	-1.686591	-0.328381	-1.942271
H	-2.396105	0.226192	-1.46368
H	-1.906054	-1.287409	-1.706212
Br	-4.355912	0.0	0.0
