18

C	0.0	0.0	0.0
C	-0.517178	-0.054785	-1.455761
Br	1.969905	0.0	0.0
H	-1.61196	-0.137309	-1.341276
C	-0.47384	1.272897	0.679576
H	-1.569512	1.274006	0.653877
H	-0.085735	2.16487	0.184322
H	-0.139605	1.287472	1.719439
C	-0.464016	-1.228807	0.76503
H	-0.107909	-1.188532	1.797361
H	-0.095625	-2.14839	0.305358
H	-1.55951	-1.225351	0.761152
C	-0.047167	-1.271261	-2.136001
N	0.329326	-2.240444	-2.681923
N	-0.242403	1.096323	-2.302298
H	-0.863041	1.84945	-2.034204
H	0.717516	1.396518	-2.16993
Br	-3.930757	0.0	0.0
