14

C	-0.427989	-0.023185	-1.454428
C	0.0	0.0	0.0
Br	-2.43302	-0.13767	-1.658289
H	1.096646	0.0	0.0
C	-0.017248	1.18826	-2.162314
N	0.304766	2.160395	-2.739892
C	0.104596	-1.209785	-2.122124
N	0.529571	-2.162241	-2.663787
N	-0.338373	-1.242883	0.654061
H	0.47266	-1.526388	1.199331
H	-1.152831	-1.160391	1.248829
C	-0.477885	1.201007	0.663387
N	-0.864195	2.147718	1.24738
H	2.510641	0.0	0.0
