14

C	-0.481089	-0.069141	-1.460792
C	0.0	0.0	0.0
Br	0.05515	1.562985	-2.427718
H	1.09452	0.0	0.0
C	0.114472	-1.222981	-2.136908
N	0.540515	-2.170533	-2.686366
C	-1.937905	-0.171288	-1.533542
N	-3.11149	-0.255191	-1.548248
N	-0.346212	-1.255828	0.642346
H	0.48977	-1.587111	1.119608
H	-1.11115	-1.165175	1.296666
C	-0.524695	1.177677	0.668649
N	-0.953067	2.100794	1.261323
H	2.559458	0.0	0.0
