14

C	-0.485097	-0.111334	-1.454684
C	0.0	0.0	0.0
Br	0.064618	1.487043	-2.473543
H	1.094517	0.0	0.0
C	0.102596	-1.28778	-2.098794
N	0.532972	-2.249316	-2.62062
C	-1.942801	-0.201314	-1.523423
N	-3.117021	-0.274561	-1.534913
N	-0.343495	-1.237132	0.681213
H	-1.096538	-1.122811	1.345183
H	0.499109	-1.554939	1.155539
C	-0.52183	1.196533	0.636441
N	-0.941538	2.137844	1.206675
H	2.556621	0.0	0.0
