16

C	0.0	0.0	0.0
C	-0.198079	-0.139209	-1.552329
Br	2.032286	0.0	0.0
H	0.478209	0.583991	-2.00682
N	-0.437315	1.254677	0.502742
H	-1.464378	1.237002	0.45961
H	-0.056756	2.037304	-0.015133
N	-0.504945	-1.065324	0.747378
H	-1.221676	-1.57673	0.248842
H	-0.896913	-0.703294	1.60602
C	-1.502621	0.096865	-2.187139
N	-2.258687	0.323159	-3.061073
N	0.275221	-1.469456	-2.098899
O	-0.29156	-2.476397	-1.688634
O	1.163508	-1.437228	-2.945056
Cl	-3.454741	0.0	0.0
