16

C	0.0	0.0	0.0
C	-0.470172	-0.002013	-1.492319
Br	1.951222	0.0	0.0
H	-1.5659	0.115151	-1.431146
N	-0.431195	1.116333	0.784506
H	-0.170824	1.991831	0.346208
H	-1.45317	1.064211	0.809625
N	-0.465388	-1.250044	0.525007
H	-0.224966	-1.264846	1.511597
H	-1.488879	-1.219489	0.46168
C	-0.117141	-1.225269	-2.196396
N	0.149433	-2.205678	-2.785596
N	0.05767	1.182011	-2.250427
O	-0.316498	2.285623	-1.858213
O	0.820347	0.988846	-3.192677
Cl	-3.472305	0.0	0.0
