16

C	0.0	0.0	0.0
C	-0.497688	-0.043421	-1.47468
Br	1.962945	0.0	0.0
H	-1.596219	0.010121	-1.386516
N	-0.45412	1.225623	0.57017
H	-1.47232	1.248287	0.459951
H	-0.254441	1.181719	1.564043
N	-0.426174	-1.158465	0.736609
H	-1.449698	-1.133389	0.749352
H	-0.108403	-2.017348	0.300313
C	-0.098412	-1.269528	-2.146834
N	0.159572	-2.296064	-2.65597
N	-0.064833	1.143104	-2.288475
O	-0.758623	2.14897	-2.19262
O	0.944837	1.025859	-2.981962
Cl	-3.477964	0.0	0.0
