16

C	0.0	0.0	0.0
C	-0.145219	-0.103798	-1.552364
Br	1.950788	0.0	0.0
H	0.312475	0.779302	-1.997278
H	0.359472	-1.001777	-1.903784
N	-0.553436	1.170555	0.59021
H	-0.443851	1.967531	-0.026611
H	-1.560306	1.004224	0.700089
C	-0.51074	-1.236485	0.708765
H	-0.061067	-2.140191	0.296393
H	-1.598015	-1.274085	0.584497
H	-0.273963	-1.16624	1.772139
N	-1.506713	-0.168684	-2.154574
O	-1.983069	-1.287789	-2.323695
O	-2.00215	0.896892	-2.515029
Br	-3.977818	0.0	0.0
