16

C	0.0	0.0	0.0
C	-0.495731	0.053354	-1.441903
Br	1.978801	0.0	0.0
H	-0.156897	-0.821744	-1.992376
H	-1.591289	0.107414	-1.399232
N	-0.451657	1.154866	0.720571
H	-0.287678	1.008639	1.710873
H	-1.463402	1.218556	0.578645
C	-0.43054	-1.337502	0.594426
H	-0.035191	-2.182859	0.025261
H	-0.066818	-1.412262	1.622664
H	-1.524719	-1.357726	0.594659
N	-0.009732	1.232978	-2.201623
O	-0.532578	2.318709	-1.966411
O	0.880292	1.040661	-3.034216
Br	-3.823515	0.0	0.0
