16

C	-0.514534	0.103847	-1.407918
C	0.0	0.0	0.0
Br	-2.396868	0.575807	-1.484561
H	1.090623	0.0	0.0
H	-0.309796	0.914819	0.509628
N	0.20647	1.20273	-2.19432
O	0.505839	0.95414	-3.353387
O	0.361699	2.255297	-1.597226
N	-0.266596	-1.189642	-2.182614
O	0.891415	-1.578156	-2.113191
O	-1.188797	-1.720064	-2.787335
C	-0.519732	-1.234798	0.726318
H	-1.612021	-1.27894	0.757259
H	-0.143586	-1.214766	1.750699
H	-0.136573	-2.146729	0.264334
Cl	3.40995	0.0	0.0
