16

C	-0.488046	-1.8e-05	-1.420833
C	0.0	0.0	0.0
Br	-2.424063	0.02703	-1.563354
H	1.092763	0.0	0.0
H	-0.319311	-0.965209	0.4075
N	0.020942	1.155721	-2.279536
O	0.720659	1.991281	-1.72591
O	-0.317678	1.143408	-3.454391
N	0.036393	-1.273117	-2.10171
O	1.039294	-1.141964	-2.783481
O	-0.547223	-2.311287	-1.833857
C	-0.511004	1.127735	0.887572
H	-0.021886	1.031333	1.858653
H	-0.241113	2.101525	0.483422
H	-1.591781	1.082028	1.03764
Cl	3.392206	0.0	0.0
