16

C	-0.502868	-0.064322	-1.413388
C	0.0	0.0	0.0
Br	-2.389382	0.374903	-1.56615
H	1.102657	0.0	0.0
H	-0.311849	0.966287	0.401394
N	0.210274	0.935081	-2.325279
O	0.409604	0.586915	-3.481214
O	0.457114	2.019315	-1.825688
N	-0.233592	-1.444231	-2.011854
O	0.952109	-1.741773	-2.01358
O	-1.169875	-2.132867	-2.392775
C	-0.514451	-1.14881	0.858546
H	-0.116419	-2.103649	0.508428
H	-1.606122	-1.204175	0.883462
H	-0.149109	-1.006902	1.877171
Cl	3.410885	0.0	0.0
