17

C	0.0	0.0	0.0
C	-0.368023	0.003659	-1.52597
Br	1.946237	0.0	0.0
H	0.408856	-0.647051	-1.947975
N	-0.418774	1.251961	0.78561
O	-0.356428	2.326436	0.198798
O	-0.688686	1.108045	1.963826
N	-0.453193	-1.124373	0.721671
H	-0.187452	-1.956667	0.204841
H	-1.495662	-0.963391	0.641764
C	-0.303539	1.313655	-2.313583
H	-1.140307	1.952727	-2.046824
H	0.627987	1.843529	-2.119231
H	-0.362365	1.069326	-3.379062
C	-1.614224	-0.704121	-1.881509
N	-2.33839	-1.338527	-2.562649
F	-2.558689	0.0	0.0
