18

C	-0.618292	-0.020361	-1.400108
C	0.0	0.0	0.0
Cl	0.086568	-1.342421	-2.374681
H	1.095445	0.0	0.0
C	-2.119879	-0.146685	-1.394781
H	-2.540784	0.703377	-0.859311
H	-2.507393	-0.151531	-2.41107
H	-2.390342	-1.0669	-0.883274
N	-0.208731	1.268217	-2.098224
O	0.966536	1.582426	-2.023454
O	-1.083494	1.890716	-2.696787
N	-0.483434	-1.183159	0.739788
H	0.067053	-1.197091	1.596328
H	-0.176088	-2.007041	0.228056
N	-0.461022	1.219911	0.646535
H	-1.190928	0.988681	1.314551
H	0.321588	1.651864	1.125743
Cl	3.493438	0.0	0.0
