18

C	-0.455963	0.00242	-1.462434
C	0.0	0.0	0.0
Cl	-2.202219	0.351948	-1.579836
H	1.096989	0.0	0.0
C	0.34315	0.993307	-2.278868
H	1.403638	0.743647	-2.176747
H	0.030049	0.962235	-3.324041
H	0.175413	1.983876	-1.860857
N	-0.22145	-1.35921	-2.109531
O	-0.862322	-1.647084	-3.115159
O	0.684018	-2.034681	-1.627887
N	-0.57466	-1.137004	0.727056
H	-0.407179	-0.953001	1.710375
H	-0.017262	-1.954093	0.498336
N	-0.393422	1.269251	0.577573
H	-1.332063	1.198038	0.953998
H	0.257586	1.505479	1.315984
Cl	3.483197	0.0	0.0
