18

C	-0.62341	-0.017797	-1.39807
C	0.0	0.0	0.0
Cl	0.104202	-1.314755	-2.392533
H	1.095432	0.0	0.0
C	-2.123938	-0.173979	-1.379907
H	-2.372164	-1.100231	-0.865466
H	-2.520813	-0.183589	-2.392959
H	-2.555218	0.667296	-0.837037
N	-0.254698	1.290552	-2.088769
O	-1.134289	1.847932	-2.745579
O	0.895044	1.680612	-1.959748
N	-0.47732	-1.187822	0.735168
H	0.08705	-1.213128	1.58061
H	-0.183994	-2.009061	0.211782
N	-0.473839	1.212693	0.652247
H	0.308642	1.671449	1.100461
H	-1.169783	0.966305	1.34534
Cl	3.463061	0.0	0.0
