18

C	-0.594859	0.009456	-1.41808
C	0.0	0.0	0.0
Cl	0.280739	-1.150417	-2.441752
H	1.094878	0.0	0.0
C	-2.073254	-0.294213	-1.44139
H	-2.594313	0.440268	-0.824216
H	-2.454943	-0.259795	-2.459253
H	-2.212011	-1.293001	-1.031051
N	-0.368991	1.371785	-2.07283
O	0.590404	2.035996	-1.692117
O	-1.143401	1.700916	-2.970432
N	-0.409462	-1.241185	0.633355
H	-1.253232	-1.092415	1.176456
H	0.337371	-1.559813	1.237819
N	-0.551176	1.162656	0.724657
H	-0.323211	1.006916	1.702516
H	-0.004587	1.972765	0.448357
Cl	3.471807	0.0	0.0
