18

C	-0.487418	0.065706	-1.450521
C	0.0	0.0	0.0
Cl	-2.244079	0.418618	-1.487679
H	1.093187	0.0	0.0
C	0.269439	1.095157	-2.255674
H	1.336271	0.88068	-2.167547
H	0.065417	2.073256	-1.823022
H	-0.042773	1.076124	-3.302564
N	-0.269941	-1.3118	-2.07158
O	0.906701	-1.5781	-2.283393
O	-1.223248	-2.046014	-2.297301
N	-0.448314	-1.238375	0.606452
H	0.164426	-1.466821	1.379738
H	-1.402014	-1.158471	0.942404
N	-0.354092	1.26159	0.647028
H	-1.276351	1.205864	1.061698
H	0.326426	1.442079	1.374238
Cl	3.40189	0.0	0.0
