18

C	-0.427412	-0.058181	-1.469329
C	0.0	0.0	0.0
Cl	-2.2042	0.131724	-1.621597
H	1.096989	0.0	0.0
C	0.290419	0.999801	-2.276585
H	-0.015145	0.949331	-3.321205
H	1.368101	0.831016	-2.176886
H	0.046481	1.970316	-1.849303
N	-0.094906	-1.400251	-2.129502
O	0.523134	-2.235586	-1.474964
O	-0.426032	-1.532956	-3.302703
N	-0.593586	-1.067788	0.807764
H	-0.266256	-0.905244	1.754944
H	-0.175062	-1.943862	0.517688
N	-0.40315	1.302072	0.505116
H	0.286311	1.614067	1.177791
H	-1.306449	1.209616	0.955466
Cl	3.434667	0.0	0.0
