18

C	-0.593315	-0.009022	-1.417671
C	0.0	0.0	0.0
Cl	0.203935	-1.239367	-2.420118
H	1.091029	0.0	0.0
C	-2.085047	-0.240186	-1.430261
H	-2.470348	-0.202963	-2.447667
H	-2.274234	-1.225815	-1.006291
H	-2.584825	0.534935	-0.846874
N	-0.277857	1.337787	-2.059213
O	-1.218842	1.981235	-2.523618
O	0.8921	1.683478	-2.064376
N	-0.392538	-1.240137	0.661391
H	0.363076	-1.529016	1.270105
H	-1.227885	-1.108338	1.219185
N	-0.428325	1.250897	0.628948
H	0.341673	1.613482	1.178575
H	-1.220314	1.098724	1.242266
Cl	3.453937	0.0	0.0
