18

C	-0.540868	0.009225	-1.453099
C	0.0	0.0	0.0
Cl	0.270329	-1.262225	-2.39165
H	1.097313	0.0	0.0
C	-2.0381	-0.195043	-1.557884
H	-2.358011	-0.098606	-2.596753
H	-2.268197	-1.188647	-1.183397
H	-2.576766	0.538758	-0.960209
N	-0.17571	1.355381	-2.065536
O	0.923922	1.502739	-2.575428
O	-1.024508	2.24197	-1.932805
N	-0.532887	-1.209845	0.640707
H	-0.402239	-1.043714	1.632256
H	0.080775	-1.980103	0.393518
N	-0.412899	1.151145	0.77475
H	0.282896	1.878864	0.684784
H	-1.312732	1.51617	0.493895
Cl	3.443559	0.0	0.0
