18

C	-0.494547	0.084872	-1.446858
C	0.0	0.0	0.0
Cl	-2.249436	0.454719	-1.469503
H	1.093217	0.0	0.0
C	0.265979	1.116714	-2.244581
H	-0.051048	1.110576	-3.290392
H	0.071077	2.092227	-1.801379
H	1.331968	0.894263	-2.163462
N	-0.295942	-1.287895	-2.084291
O	0.874911	-1.558954	-2.320619
O	-1.25731	-2.015639	-2.29558
N	-0.447023	-1.244123	0.595353
H	-1.397231	-1.168298	0.936394
H	0.16813	-1.482397	1.36089
N	-0.347405	1.255156	0.664146
H	-1.261742	1.192848	1.096585
H	0.347755	1.432409	1.379216
Cl	3.400724	0.0	0.0
