18

C	-0.420464	-0.015621	-1.475595
C	0.0	0.0	0.0
Cl	-0.33058	1.598326	-2.225206
H	1.095145	0.0	0.0
C	0.422712	-0.985017	-2.268353
H	0.2734	-1.98667	-1.866399
H	0.155966	-0.961329	-3.323487
H	1.467885	-0.700697	-2.126869
N	-1.894421	-0.405913	-1.574595
O	-2.633304	-0.05763	-0.653261
O	-2.269497	-1.014236	-2.571272
N	-0.384782	-1.319176	0.528865
H	-1.254437	-1.243527	1.042837
H	0.343986	-1.629801	1.160062
N	-0.431026	1.170299	0.724929
H	-1.386584	1.074956	1.0392
H	0.187909	1.310164	1.511589
Cl	3.411845	0.0	0.0
