18

C	-0.426645	-0.025812	-1.475502
C	0.0	0.0	0.0
Cl	0.319324	1.340473	-2.329112
H	1.099866	0.0	0.0
C	-0.032844	-1.311605	-2.164664
H	-0.310382	-1.277121	-3.221218
H	-0.516689	-2.144737	-1.663825
H	1.050544	-1.413687	-2.070906
N	-1.945312	0.153119	-1.523577
O	-2.435052	1.219421	-1.869274
O	-2.58668	-0.824176	-1.143889
N	-0.406553	-1.216162	0.667187
H	0.242261	-1.400603	1.424494
H	-1.346615	-1.10838	1.035159
N	-0.578099	1.187401	0.645816
H	-0.241519	2.01675	0.163179
H	-0.167419	1.226299	1.574956
Cl	3.441935	0.0	0.0
