13
Coordinates from ORCA-job run
  C   -0.55999197481413      0.42294764454177     -0.19473718648174
  C   0.88630647848138     -0.08476584560480     -0.19554590003892
  H   -1.08872950878380     -0.06227814846937     -1.03270920472193
  H   1.39377659970982      0.39340999631740      0.64516087799044
  H   1.38402957508774      0.22802604370655     -1.12182592445165
  C   -0.57615392077887      1.86827326858892     -0.45750443787167
  N   -0.57527956593818      3.01896057264834     -0.68846851310279
  N   -1.13965857345706      0.14137300907883      1.11015592484723
  H   -2.13974939735291      0.29923178057153      1.09784894717587
  H   -0.96640094714628     -0.84177170289146      1.29195578556876
  N   0.86686717694062     -1.53064999644447      0.01784825298791
  H   1.71916730889991     -1.83546377633290      0.46732133491372
  H   0.79581674915177     -2.01729284571034     -0.86649995681523
