13
Coordinates from ORCA-job run
  C   -0.56432751892621      0.32501026581035     -0.13858364430924
  C   0.51153018594016     -0.76094760916861     -0.07529333556097
  H   -0.71354118720424      0.59082474549241     -1.19068237031664
  H   0.08159323776902     -1.65835905106975     -0.53767267833369
  H   0.70594694878501     -0.99341793720143      0.97646280692879
  C   -0.09425805805664      1.53729583967404      0.56344063676033
  N   0.20512925192370      2.48786266140082      1.18482502715498
  N   -1.82821747133231     -0.19541155073547      0.37118725966682
  H   -1.75033726698394     -0.35518483574877      1.36948311206677
  H   -2.56535928742542      0.48615357666855      0.23586852841274
  N   1.74018805033432     -0.27478655035297     -0.68711945460784
  H   2.54602222550061     -0.75505324067880     -0.31194387066126
  H   1.72463088967594     -0.43398631409037     -1.68597201720077
