16

C	-0.389025	0.008212	-1.454608
C	0.0	0.0	0.0
Br	-2.389055	0.048085	-1.654183
H	1.097799	0.0	0.0
H	-0.122336	-0.956794	-1.885856
C	0.222898	1.16069	-2.211901
H	-0.135029	2.107938	-1.810313
H	1.30475	1.100688	-2.03957
H	0.009178	1.101983	-3.282257
N	-0.4134	-1.246779	0.634839
H	-1.374388	-1.174207	0.95585
H	0.1861	-1.39721	1.43972
N	-0.388392	1.249504	0.64873
H	0.247965	1.408695	1.421529
H	-1.333696	1.180304	1.009778
H	2.905354	0.0	0.0
