16

C	-0.332877	0.059002	-1.476897
C	0.0	0.0	0.0
Br	-2.295644	0.261453	-1.802845
H	1.10598	0.0	0.0
H	-0.115627	-0.913875	-1.92213
C	0.423065	1.158128	-2.189243
H	1.48702	1.017005	-1.956656
H	0.114062	2.139714	-1.823718
H	0.262888	1.125515	-3.269708
N	-0.523204	-1.23324	0.599623
H	-0.664911	-1.005755	1.577417
H	0.236648	-1.907067	0.579151
N	-0.422129	1.150422	0.779595
H	0.326686	1.833845	0.780187
H	-1.260464	1.566681	0.395251
H	2.928488	0.0	0.0
