16

C	-0.514143	-0.045165	-1.437658
C	0.0	0.0	0.0
Br	-0.084755	1.624924	-2.40508
H	1.102753	0.0	0.0
H	-1.610301	-0.055754	-1.427459
C	0.076914	-1.203693	-2.219863
H	-0.197079	-1.156726	-3.275639
H	-0.301293	-2.145222	-1.812018
H	1.164421	-1.185531	-2.117066
N	-0.410405	-1.192397	0.730016
H	0.207217	-1.961323	0.496586
H	-1.372665	-1.439424	0.513055
N	-0.592589	1.138165	0.707339
H	-0.163336	1.981057	0.338314
H	-0.25631	1.043701	1.660842
H	3.093385	0.0	0.0
