15

C	0.0	0.0	0.0
C	-0.484609	-0.115773	-1.473359
Cl	1.789235	0.0	0.0
H	-1.580619	-0.256445	-1.267902
C	-0.471716	1.2436	0.612276
N	-0.598656	2.308086	1.096403
C	-0.433655	-1.162636	0.782928
N	-0.599443	-2.115473	1.450394
C	0.113946	-1.272751	-2.119084
N	0.567683	-2.192372	-2.695191
C	-0.248967	1.165281	-2.265024
H	-0.575232	1.019479	-3.297834
H	0.803792	1.462368	-2.272728
H	-0.849402	1.96556	-1.827784
F	-2.493814	0.0	0.0
