15

C	0.0	0.0	0.0
C	-0.48082	-0.184554	-1.468862
Cl	1.789214	0.0	0.0
H	-1.573779	-0.332498	-1.264849
C	-0.4699	1.273386	0.549873
N	-0.605511	2.359071	0.981348
C	-0.440934	-1.126637	0.829004
N	-0.594447	-2.071022	1.511714
C	0.138959	-1.355811	-2.067298
N	0.614746	-2.287319	-2.605029
C	-0.266751	1.068696	-2.310674
H	-0.905248	1.863426	-1.921816
H	0.7745	1.401592	-2.304081
H	-0.55963	0.868205	-3.343844
F	-2.487973	0.0	0.0
