15

C	0.0	0.0	0.0
C	-0.483646	-0.056631	-1.477035
Cl	1.789172	0.0	0.0
H	-1.577054	-0.219325	-1.283226
C	-0.465432	1.220543	0.662215
N	-0.590378	2.263017	1.191623
C	-0.438813	-1.190202	0.736222
N	-0.589757	-2.179957	1.351539
C	0.130938	-1.174375	-2.175187
N	0.604405	-2.056462	-2.792558
C	-0.268848	1.263613	-2.208133
H	0.773311	1.592379	-2.176791
H	-0.56612	1.154179	-3.253696
H	-0.903978	2.02315	-1.749739
F	-2.490722	0.0	0.0
