15

C	0.0	0.0	0.0
C	-0.306621	-0.023368	-1.554543
Cl	1.792772	0.0	0.0
H	0.437149	0.647373	-1.999683
C	-0.465779	1.219281	0.663947
N	-0.569798	2.223547	1.263604
C	-0.494774	-1.170431	0.713135
N	-0.619807	-2.178795	1.305219
C	-1.617259	0.471306	-1.995216
N	-2.471517	0.834078	-2.724202
C	-0.078435	-1.423864	-2.135637
H	0.939135	-1.765027	-1.944961
H	-0.242008	-1.384979	-3.214621
H	-0.777895	-2.136508	-1.701128
F	-2.282463	0.0	0.0
