15

C	0.0	0.0	0.0
C	-0.480523	-0.214186	-1.465027
Cl	1.789464	0.0	0.0
H	-1.574106	-0.354598	-1.259551
C	-0.471301	1.283701	0.523236
N	-0.604586	2.379712	0.928154
C	-0.437592	-1.106727	0.856623
N	-0.592531	-2.023609	1.575397
C	0.136453	-1.3993	-2.03856
N	0.61115	-2.344888	-2.552074
C	-0.259661	1.020459	-2.333096
H	0.784132	1.345531	-2.336066
H	-0.557126	0.801173	-3.361281
H	-0.890772	1.828073	-1.958709
F	-2.486622	0.0	0.0
