15

C	0.0	0.0	0.0
C	-0.244334	0.193908	-1.569859
Cl	1.789482	0.0	0.0
H	0.576859	-0.376247	-2.016674
C	-0.493791	1.084659	0.839202
N	-0.611413	1.995307	1.575549
C	-0.480586	-1.313126	0.4223
N	-0.577239	-2.44606	0.727691
C	0.030991	1.594519	-1.900184
N	0.237182	2.705019	-2.223779
C	-1.50781	-0.281524	-2.285949
H	-1.727456	-1.30997	-2.003103
H	-2.362643	0.322497	-2.014862
H	-1.291672	-0.235312	-3.361989
F	-2.295296	0.0	0.0
