15

C	0.0	0.0	0.0
C	-0.224157	0.199462	-1.570039
Cl	1.789302	0.0	0.0
H	0.507906	-0.489972	-2.001146
C	-0.50021	1.062107	0.87283
N	-0.640868	1.912652	1.674396
C	-0.50006	-1.302687	0.451127
N	-0.689923	-2.394118	0.856031
C	0.253075	1.546068	-1.906023
N	0.600389	2.620591	-2.230745
C	-1.544343	-0.060713	-2.291133
H	-1.310338	-0.09513	-3.366691
H	-1.977873	-1.002754	-1.965116
H	-2.26446	0.714115	-2.074825
F	-2.30139	0.0	0.0
