15

C	0.0	0.0	0.0
C	-0.532169	-0.110191	-1.449632
Cl	1.789526	0.0	0.0
H	-1.638285	-0.226504	-1.174088
C	-0.469247	1.230791	0.642311
N	-0.725205	2.209467	1.239067
C	-0.40921	-1.162927	0.797541
N	-0.622283	-2.096809	1.479482
C	0.018902	-1.277028	-2.110738
N	0.45554	-2.194087	-2.704989
C	-0.310088	1.168823	-2.246289
H	-0.654882	1.023096	-3.271979
H	-0.904299	1.967626	-1.798993
H	0.741686	1.468258	-2.27461
F	-2.560824	0.0	0.0
