15

C	0.0	0.0	0.0
C	-0.392607	-0.03542	-1.522754
Cl	1.793095	0.0	0.0
H	0.507094	0.262322	-2.073662
C	-0.407478	1.245716	0.655584
N	-0.56933	2.279048	1.191556
C	-0.471905	-1.157896	0.757544
N	-0.569846	-2.154849	1.375581
C	-1.413852	0.942697	-1.901144
N	-2.030782	1.757105	-2.484809
C	-0.797915	-1.438766	-1.962912
H	-0.015121	-2.161806	-1.720116
H	-0.961603	-1.450344	-3.04362
H	-1.719479	-1.687362	-1.441189
F	-2.294526	0.0	0.0
