16
Coordinates from ORCA-job run
  C   -0.86328671750187      0.32782967590425     -0.30620716669554
  C   0.55743393575702     -0.25585022228000     -0.35259283758064
  Br  -1.10542635769904      1.49611702762491     -1.93435122442982
  H   0.61707953499156     -0.91734700588507     -1.21967773994154
  C   -1.09574633034525      1.19384924696745      0.84845278632702
  N   -1.35591139427872      1.83542385470372      1.79813204259702
  N   -1.78361168667627     -0.75436000079567     -0.26723019050826
  H   -2.73341731097692     -0.43346333456597     -0.12418628900502
  H   -1.73969149698817     -1.30113263026772     -1.11959317338524
  C   0.93031848375187     -0.96759829454184      0.93688620489373
  H   1.92844716813594     -1.39992839135324      0.83884204717520
  H   0.21353176306482     -1.76248120426744      1.13776467573003
  H   0.93104329361358     -0.26430611775559      1.77089267183061
  N   1.57351715209725      0.81133464713559     -0.61416846290234
  O   1.59958842070940      1.75191330666577      0.17408981967332
  O   2.32613154234478      0.63999944271086     -1.56905316377853
