16
Coordinates from ORCA-job run
  C   -0.81983042875652      0.34393879122688     -0.45034059184589
  C   0.59430906359175     -0.25124885429657     -0.38780648596667
  Br  -1.00444737580332      1.36273929833181     -2.11049167624048
  H   0.70287431143862     -0.88834277223882     -1.26539535123409
  C   -1.11012018365839      1.25916805938335      0.66182412859991
  N   -1.44807871204990      1.89450898044122      1.59249411393147
  N   -1.75467733304776     -0.76782596405367     -0.51876170752760
  H   -1.86135075918626     -1.16923631857419      0.40836110780926
  H   -2.66489423282469     -0.42662683947812     -0.80827181443108
  C   0.86269369941883     -1.00249328539199      0.90534280233529
  H   0.21464586725579     -1.87716682319744      0.97585732351384
  H   0.71258579507140     -0.35569574026210      1.77132010468673
  H   1.89536878503729     -1.35750307933801      0.91067072554119
  N   1.63059723126296      0.81931402536187     -0.53282541383022
  O   2.42053760088652      0.70630220935015     -1.46630506072554
  O   1.62878667136369      1.71016831273562      0.31332779538387
