16
Coordinates from ORCA-job run
  C   -0.92203259779855      0.23210540144457     -0.07353743196629
  C   0.49605201894118     -0.37723242156677     -0.08058382616102
  Br  -0.72740622385170      2.22420387926443      0.31109219394413
  H   0.36424293813222     -1.41899701653176     -0.39771783320437
  C   -1.64396613424701     -0.28395628960293      1.09133812328564
  N   -2.24029028191630     -0.72951401576862      2.00090599912183
  N   -1.66724332502848     -0.06849075788547     -1.23140398987335
  H   -1.22466860748266      0.30565341777771     -2.06000396212661
  H   -2.62758272390890      0.24137340157884     -1.15605608066209
  C   1.23027985502792     -0.30857890845064      1.24437609422760
  H   0.61195930890075     -0.73695074013368      2.03363434224976
  H   1.47416093479916      0.72154272410873      1.50164845926043
  H   2.15461812238088     -0.87895153630169      1.18150487921413
  N   1.35516974734901      0.22853650504198     -1.17576389970832
  O   0.79794810288906      0.66764437484172     -2.17917292122977
  O   2.56775886581342      0.18161198218357     -1.01226014637169
