16
Coordinates from ORCA-job run
  C   -0.87773656881829      0.34488128826377     -0.11454662399682
  C   0.48908448608167     -0.35000070722928      0.04921150611305
  Br  -0.80370084345090      2.26124413876460      0.30657757713882
  H   0.30157913222915     -1.41883686316764     -0.09203942284649
  C   -1.78040052790063     -0.24792383766076      0.88785140982885
  N   -2.51346052056328     -0.77943207308827      1.63925070576148
  N   -1.32285678792302      0.22238109530855     -1.47372438210123
  H   -2.25911004103960      0.59078105990238     -1.58766740852949
  H   -1.28981357895593     -0.74333687602588     -1.78370675184310
  C   1.20365788908668     -0.09389626204947      1.35689703173292
  H   0.55826249967339     -0.36363635442340      2.19524603569613
  H   1.48712055860071      0.95306714541295      1.44074604914124
  H   2.10497466145811     -0.70803605961953      1.40541303740201
  N   1.35590068735586      0.02242879822261     -1.11909770558048
  O   1.96654084356503      1.08369055517258     -1.05516801156793
  O   1.37895811060106     -0.77437504778323     -2.05524304634896
