16

C	0.0	0.0	0.0
C	-0.560035	0.101939	-1.39921
F	1.361968	0.0	0.0
H	-0.200498	1.064955	-1.774932
H	-1.65008	0.155206	-1.297457
C	-0.53841	1.0696	0.913709
H	-1.626279	0.967481	0.969062
H	-0.089966	0.964028	1.90109
H	-0.287673	2.049383	0.501925
N	-0.354669	-1.348415	0.629847
O	-1.083208	-2.123618	0.019366
O	0.143377	-1.561253	1.733818
N	-0.073784	-0.955007	-2.287782
H	-0.707353	-1.738911	-2.199582
H	-0.140278	-0.620505	-3.240369
Br	-4.060781	0.0	0.0
