16

C	0.0	0.0	0.0
C	-0.50417	0.067284	-1.431802
F	1.377179	0.0	0.0
H	-0.366229	1.107212	-1.746317
H	-1.580892	-0.121594	-1.408684
C	-0.531279	1.086177	0.887377
H	-0.122107	0.981122	1.891277
H	-0.235212	2.050797	0.469188
H	-1.623782	1.017453	0.906639
N	-0.319018	-1.358226	0.638066
O	-0.020567	-1.477818	1.824214
O	-0.771026	-2.255531	-0.068545
N	0.159059	-0.800078	-2.396912
H	1.161337	-0.731785	-2.264809
H	-0.110757	-1.75384	-2.196297
Br	-3.972819	0.0	0.0
