13

C	0.0	0.0	0.0
C	-0.527436	0.028909	-1.423293
F	1.3472	0.0	0.0
H	-1.594792	-0.233341	-1.370893
H	-0.467744	1.060008	-1.780574
C	-0.458343	1.139374	0.801765
N	-0.596899	2.133332	1.413298
N	-0.370564	-1.306777	0.706555
O	-0.279534	-1.288197	1.927584
O	-0.595873	-2.274198	-0.004033
C	0.238425	-0.827833	-2.318184
N	0.852755	-1.474702	-3.080812
Cl	-3.326506	0.0	0.0
