13

C	0.0	0.0	0.0
C	-0.526769	-0.017138	-1.425475
F	1.347034	0.0	0.0
H	-1.583662	-0.316688	-1.374885
H	-0.507155	1.008781	-1.803035
C	-0.453359	1.165114	0.768863
N	-0.635918	2.179997	1.331429
N	-0.369931	-1.282141	0.748583
O	-0.561246	-2.27714	0.065295
O	-0.306706	-1.220984	1.969762
C	0.27748	-0.86112	-2.299877
N	0.917561	-1.499159	-3.049046
Cl	-3.314811	0.0	0.0
