13

C	0.0	0.0	0.0
C	-0.503356	0.302729	-1.391667
F	1.359811	0.0	0.0
H	-0.147302	-0.485823	-2.057697
H	-1.60649	0.279943	-1.340032
C	-0.462246	0.930334	1.034213
N	-0.725572	1.694041	1.886734
N	-0.36782	-1.431227	0.409199
O	-0.444771	-1.651292	1.610329
O	-0.411947	-2.255444	-0.49428
C	-0.004453	1.597712	-1.836281
N	0.403396	2.632153	-2.213281
Cl	-3.35022	0.0	0.0
