13

C	0.0	0.0	0.0
C	-0.534336	0.05586	-1.419963
F	1.346843	0.0	0.0
H	-0.474162	1.094171	-1.759477
H	-1.602932	-0.207928	-1.368171
C	-0.452121	1.125236	0.826612
N	-0.634436	2.105908	1.446119
N	-0.369305	-1.316625	0.68749
O	-0.598264	-2.271652	-0.040071
O	-0.274303	-1.319586	1.90898
C	0.230021	-0.786713	-2.331924
N	0.840276	-1.424244	-3.106171
Cl	-3.340495	0.0	0.0
