15
Coordinates from ORCA-job run
  C   0.79221697161178     -0.71300456257596     -0.04378136932250
  C   -0.45194409178031      0.12947619733271     -0.31238548715108
  F   0.78493637389373     -1.10303293012395      1.28270818684982
  H   -0.43355184345280      0.44146867563715     -1.36087460264938
  H   0.74607833576753     -1.63912902733946     -0.62834698774403
  N   1.97139136876154      0.08470816847089     -0.24774759499189
  H   2.78742312297790     -0.46514068984398     -0.00618361813088
  H   2.04899247209445      0.34911556297474     -1.22263116192366
  C   -0.60190887163133      1.29998789644165      0.62979328413515
  H   -0.65968662466797      0.95213873152676      1.65887486985987
  H   -1.50572150383939      1.86511373892630      0.40179751119944
  H   0.26888086763967      1.94648196033583      0.52492309773296
  N   -1.62978726927903     -0.80805507335044     -0.23764508493900
  O   -2.44365753173155     -0.66146881666159      0.66813873177085
  O   -1.67366177636422     -1.67865983175066     -1.10563977469568
