15
Coordinates from ORCA-job run
  C   1.03870903649874     -0.13489493628481      0.11158860419363
  C   -0.40007359124126      0.13709847146710     -0.30679163705114
  F   1.82597605005085      0.77266619481063     -0.62964683227702
  H   -0.52604173879953     -0.13888959710351     -1.35589317816001
  H   1.18714695998118      0.11851702707500      1.16255358981848
  N   1.38150415300704     -1.48231283347688     -0.10604407747412
  H   1.31024388862730     -1.74091773287890     -1.08139615816914
  H   2.30321063627574     -1.70402385483784      0.24299468740717
  C   -0.84165128539073      1.56307663073920     -0.04721896431884
  H   -0.22685236758348      2.24258584546912     -0.63671429836459
  H   -0.73100450873377      1.80676679404545      1.00987385848204
  H   -1.88690820555874      1.69863636736624     -0.33138872760335
  N   -1.26452303372664     -0.81125707811076      0.46091473069901
  O   -1.88191945768812     -1.66184359809906     -0.17364315673801
  O   -1.28781653571857     -0.66420770018098      1.68081155955588
