15
Coordinates from ORCA-job run
  C   1.06493554315260     -0.06528348431593     -0.08747471848905
  C   -0.42942585281290      0.08154726246747     -0.33571656094420
  F   1.68731316392528      0.66478977598308     -1.08905853843381
  H   -0.63462382605665     -0.31175923702636     -1.33221519301171
  H   1.35387471885909      0.40360930527920      0.86071780635064
  N   1.47747874949998     -1.43538550313858     -0.24364581127989
  H   2.48452015162797     -1.45404392089541     -0.35462903320860
  H   1.24732178664449     -1.95027738405681      0.59750217550400
  C   -0.93219699377991      1.50433727268084     -0.17020632849727
  H   -0.77439837471974      1.84866312393105      0.85463994271259
  H   -1.99599709391397      1.56033984584189     -0.40445634516050
  H   -0.38634672360620      2.15849347651923     -0.85012728932184
  N   -1.18880947464779     -0.79618765204539      0.60652731785549
  O   -0.67740456228487     -1.02951348567226      1.70437063805402
  O   -2.29624121188736     -1.17732939555200      0.24377193787014
