15
Coordinates from ORCA-job run
  C   0.90836179185571     -0.48293340331410     -0.55011791602388
  C   -0.51957239568872      0.04607053238200     -0.48313316551170
  F   0.80027679731544     -1.84846844243851     -0.89395615684344
  H   -0.97784337988000     -0.09313334953375     -1.46238688799404
  H   1.40657205478483     -0.00689673089439     -1.39952616288199
  N   1.66280196785201     -0.25642092621583      0.61666845950868
  H   2.61339874254567     -0.57986579536954      0.50368283762752
  H   1.23370889565121     -0.69576362396134      1.42013172626577
  C   -0.60927776603899      1.48414022528954     -0.01253454701106
  H   -0.20899543302127      1.57748091997615      0.99522692537195
  H   -0.01979697560483      2.12187255890656     -0.67448633932938
  H   -1.64558193826450      1.82721022805943     -0.03352287057402
  N   -1.33866305357889     -0.82207144600463      0.42582693473260
  O   -2.35539946105341     -1.32701375003990     -0.03885644660371
  O   -0.94998984687427     -0.94420699684170      1.58798360926670
