16

C	-0.503575	-0.007762	-1.428502
C	0.0	0.0	0.0
F	-1.85776	0.170884	-1.496054
H	1.09797	0.0	0.0
H	-0.241934	-0.93255	-1.940674
N	0.141909	1.08903	-2.241403
O	-0.443709	2.167278	-2.321027
O	1.216629	0.800157	-2.756477
N	-0.487868	-1.255076	0.605366
H	0.290684	-1.906041	0.613506
H	-0.716826	-1.076404	1.57588
C	-0.508217	1.210081	0.7645
H	-0.058247	1.209692	1.760257
H	-1.597168	1.179707	0.858463
H	-0.226522	2.141728	0.273262
Br	3.622229	0.0	0.0
