16

C	-0.450655	-0.077025	-1.451696
C	0.0	0.0	0.0
F	-1.782017	-0.423551	-1.539802
H	1.09382	0.0	0.0
H	0.137058	-0.793248	-2.026766
N	-0.307437	1.244191	-2.158707
O	0.793791	1.472218	-2.646953
O	-1.276379	1.999302	-2.164231
N	-0.385465	-1.231457	0.694304
H	-1.282243	-1.568871	0.369254
H	0.319057	-1.939957	0.528977
C	-0.550183	1.215851	0.725914
H	-0.237966	1.143233	1.767461
H	-1.643107	1.247074	0.684713
H	-0.15696	2.146382	0.312113
Br	3.571937	0.0	0.0
