16

C	-0.384055	-0.017103	-1.459367
C	0.0	0.0	0.0
F	0.097087	-1.138116	-2.067424
H	1.103447	0.0	0.0
H	-0.031536	0.864704	-1.995742
N	-1.885838	-0.038873	-1.636688
O	-2.444511	1.050671	-1.510908
O	-2.437159	-1.1061	-1.869255
N	-0.568217	-1.193953	0.636313
H	-0.157631	-2.004447	0.182621
H	-0.213804	-1.209309	1.587319
C	-0.470289	1.248225	0.725763
H	-1.556196	1.264783	0.832117
H	-0.013726	1.26065	1.718906
H	-0.144904	2.152613	0.207241
Br	3.609643	0.0	0.0
