17

C	0.0	0.0	0.0
C	-0.307228	-0.014363	-1.559602
Cl	1.797766	0.0	0.0
H	0.589935	-0.392931	-2.044151
N	-0.65698	1.082728	0.628984
H	-1.696396	0.850877	0.461436
H	-0.498054	1.029702	1.632311
C	-0.330297	-1.339888	0.543092
N	-0.51225	-2.401144	1.016844
N	-0.352207	1.423857	-2.007124
O	0.734605	1.978102	-2.180442
O	-1.445534	1.947629	-2.184637
C	-1.511959	-0.771691	-2.068451
H	-1.567774	-0.642893	-3.154756
H	-2.417829	-0.429136	-1.556016
H	-1.377669	-1.834284	-1.847897
H	-3.085695	0.0	0.0
