17

C	0.0	0.0	0.0
C	-0.207603	0.002245	-1.582422
Cl	1.806152	0.0	0.0
H	0.377406	-0.833346	-1.967893
N	-0.641951	0.963325	0.795353
H	-1.675729	0.695164	0.695043
H	-0.520026	1.871629	0.359559
C	-0.3801	-1.357124	0.437494
N	-0.554459	-2.471746	0.766029
N	0.478186	1.201576	-2.170405
O	1.247588	1.011284	-3.111172
O	0.188292	2.309773	-1.719634
C	-1.595974	-0.023651	-2.185403
H	-1.474884	-0.057548	-3.276519
H	-2.148424	-0.888372	-1.82797
H	-2.185326	0.834132	-1.876145
H	-3.05669	0.0	0.0
