17

C	0.0	0.0	0.0
C	-0.534996	-0.054183	-1.440354
Cl	1.784952	0.0	0.0
H	-1.631423	-0.194237	-1.258873
N	-0.577389	1.160748	0.599569
H	-0.381973	1.140691	1.597081
H	-1.616944	0.944176	0.492315
C	-0.334835	-1.240048	0.749573
N	-0.499561	-2.174741	1.444561
N	-0.033414	-1.272909	-2.143563
O	0.815263	-1.14638	-3.029791
O	-0.514794	-2.351531	-1.799087
C	-0.230542	1.194057	-2.239384
H	-0.655005	2.051088	-1.721265
H	0.841716	1.337673	-2.362533
H	-0.680187	1.109339	-3.229983
H	-2.913506	0.0	0.0
