17

C	0.0	0.0	0.0
C	-0.206403	0.000949	-1.583105
Cl	1.807192	0.0	0.0
H	0.374345	-0.838148	-1.968686
N	-0.644148	0.963552	0.792289
H	-1.677903	0.691727	0.690737
H	-0.522492	1.870773	0.354248
C	-0.378427	-1.357475	0.438618
N	-0.553475	-2.471584	0.770056
N	0.486427	1.197531	-2.16979
O	0.197928	2.306911	-1.720672
O	1.260616	1.004353	-3.106213
C	-1.595532	-0.016499	-2.185056
H	-2.176696	0.846876	-1.874117
H	-1.47708	-0.050532	-3.27625
H	-2.154675	-0.876495	-1.827687
H	-3.053941	0.0	0.0
